REMARK  Name = 
REMARK  18 active torsions:
REMARK  status: ('A' for Active; 'I' for Inactive)
REMARK    1  A    between atoms: C_1  and  O_2
REMARK    2  A    between atoms: O_2  and  C_3
REMARK    3  A    between atoms: C_6  and  C_13
REMARK    4  A    between atoms: C_10  and  O_12
REMARK    5  A    between atoms: C_14  and  C_15
REMARK    6  A    between atoms: C_14  and  C_16
REMARK    7  A    between atoms: C_32  and  O_33
REMARK    8  A    between atoms: C_37  and  O_43
REMARK    9  A    between atoms: C_40  and  C_42
REMARK   10  A    between atoms: O_43  and  C_44
REMARK   11  A    between atoms: C_45  and  O_69
REMARK   12  A    between atoms: C_48  and  C_50
REMARK   13  A    between atoms: C_52  and  C_53
REMARK   14  A    between atoms: C_55  and  C_57
REMARK   15  A    between atoms: C_57  and  C_58
REMARK   16  A    between atoms: C_63  and  O_65
REMARK   17  A    between atoms: C_66  and  C_68
REMARK   18  A    between atoms: O_69  and  C_70
REMARK                            x       y       z     vdW  Elec       q    Type
REMARK                         _______ _______ _______ _____ _____    ______ ____
ROOT
ATOM      1  C   UNL     1      -0.000  -0.000  -0.000  0.00  0.00    +0.207 C 
ATOM      2  C   UNL     1      -0.000  -0.000  -0.000  0.00  0.00    +0.060 C 
ATOM      3  C   UNL     1      -0.000  -0.000  -0.000  0.00  0.00    +0.014 C 
ATOM      4  C   UNL     1      -0.000  -0.000  -0.000  0.00  0.00    +0.128 C 
ATOM      5  C   UNL     1      -0.000  -0.000  -0.000  0.00  0.00    +0.106 C 
ATOM      6  C   UNL     1      -0.000  -0.000  -0.000  0.00  0.00    +0.143 C 
ATOM      7  O   UNL     1      -0.000  -0.000  -0.000  0.00  0.00    -0.297 OA
ATOM      8  C   UNL     1      -0.000  -0.000  -0.000  0.00  0.00    +0.082 C 
ATOM      9  C   UNL     1      -0.000  -0.000  -0.000  0.00  0.00    -0.017 C 
ATOM     10  C   UNL     1      -0.000  -0.000  -0.000  0.00  0.00    -0.076 C 
ATOM     11  C   UNL     1      -0.000  -0.000  -0.000  0.00  0.00    +0.039 C 
ATOM     12  C   UNL     1      -0.000  -0.000  -0.000  0.00  0.00    +0.033 C 
ATOM     13  C   UNL     1      -0.000  -0.000  -0.000  0.00  0.00    -0.008 C 
ATOM     14  C   UNL     1      -0.000  -0.000  -0.000  0.00  0.00    +0.008 C 
ATOM     15  C   UNL     1      -0.000  -0.000  -0.000  0.00  0.00    +0.038 C 
ATOM     16  C   UNL     1      -0.000  -0.000  -0.000  0.00  0.00    +0.149 C 
ATOM     17  C   UNL     1      -0.000  -0.000  -0.000  0.00  0.00    +0.179 C 
ATOM     18  C   UNL     1      -0.000  -0.000  -0.000  0.00  0.00    +0.150 C 
ATOM     19  C   UNL     1      -0.000  -0.000  -0.000  0.00  0.00    +0.043 C 
ATOM     20  C   UNL     1      -0.000  -0.000  -0.000  0.00  0.00    +0.056 C 
ATOM     21  C   UNL     1      -0.000  -0.000  -0.000  0.00  0.00    +0.013 C 
ATOM     22  C   UNL     1      -0.000  -0.000  -0.000  0.00  0.00    +0.240 C 
ATOM     23  C   UNL     1      -0.000  -0.000  -0.000  0.00  0.00    +0.276 C 
ATOM     24  O   UNL     1      -0.000  -0.000  -0.000  0.00  0.00    -0.281 OA
ATOM     25  C   UNL     1      -0.000  -0.000  -0.000  0.00  0.00    +0.288 C 
ATOM     26  O   UNL     1      -0.000  -0.000  -0.000  0.00  0.00    -0.267 OA
ATOM     27  N   UNL     1      -0.000  -0.000  -0.000  0.00  0.00    -0.282 N 
ATOM     28  C   UNL     1      -0.000  -0.000  -0.000  0.00  0.00    +0.185 C 
ATOM     29  C   UNL     1      -0.000  -0.000  -0.000  0.00  0.00    +0.034 C 
ATOM     30  C   UNL     1      -0.000  -0.000  -0.000  0.00  0.00    +0.004 C 
ATOM     31  C   UNL     1      -0.000  -0.000  -0.000  0.00  0.00    +0.019 C 
ATOM     32  C   UNL     1      -0.000  -0.000  -0.000  0.00  0.00    +0.328 C 
ATOM     33  O   UNL     1      -0.000  -0.000  -0.000  0.00  0.00    -0.249 OA
ATOM     34  C   UNL     1      -0.000  -0.000  -0.000  0.00  0.00    +0.109 C 
ATOM     35  O   UNL     1      -0.000  -0.000  -0.000  0.00  0.00    -0.334 OA
ATOM     36  O   UNL     1      -0.000  -0.000  -0.000  0.00  0.00    -0.455 OA
ENDROOT
BRANCH   1  38
ATOM     37  C   UNL     1      -0.000  -0.000   0.000  0.00  0.00    -0.021 C 
ATOM     38  C   UNL     1      -0.000  -0.000   0.000  0.00  0.00    -0.036 C 
ATOM     39  C   UNL     1      -0.000  -0.000  -0.000  0.00  0.00    +0.042 C 
BRANCH  37  44
ATOM     40  C   UNL     1      -0.000  -0.000  -0.000  0.00  0.00    +0.147 C 
ATOM     41  C   UNL     1      -0.000  -0.000  -0.000  0.00  0.00    +0.143 C 
ATOM     42  C   UNL     1      -0.000  -0.000  -0.000  0.00  0.00    +0.034 C 
ATOM     43  C   UNL     1      -0.000  -0.000  -0.000  0.00  0.00    +0.010 C 
ATOM     44  C   UNL     1      -0.000  -0.000  -0.000  0.00  0.00    +0.014 C 
ATOM     45  C   UNL     1      -0.000  -0.000  -0.000  0.00  0.00    +0.041 C 
BRANCH  40  47
ATOM     46  C   UNL     1      -0.000  -0.000  -0.000  0.00  0.00    +0.194 C 
ATOM     47  O   UNL     1      -0.000  -0.000  -0.000  0.00  0.00    -0.377 OA
ENDBRANCH  40  47
BRANCH  41  48
ATOM     48  O   UNL     1      -0.000  -0.000   0.000  0.00  0.00    -0.389 OA
ATOM     49  H   UNL     1      -0.000  -0.000   0.000  0.00  0.00    +0.210 HD
ENDBRANCH  41  48
ENDBRANCH  37  44
ENDBRANCH   1  38
BRANCH   4  50
ATOM     50  O   UNL     1      -0.000  -0.000  -0.000  0.00  0.00    -0.391 OA
ATOM     51  H   UNL     1       0.000   0.000   0.000  0.00  0.00    +0.210 HD
ENDBRANCH   4  50
BRANCH  16  52
ATOM     52  O   UNL     1      -0.000  -0.000  -0.000  0.00  0.00    -0.377 OA
ATOM     53  C   UNL     1      -0.000  -0.000  -0.000  0.00  0.00    +0.194 C 
ENDBRANCH  16  52
BRANCH  18  54
ATOM     54  O   UNL     1      -0.000  -0.000  -0.000  0.00  0.00    -0.377 OA
ATOM     55  C   UNL     1      -0.000  -0.000  -0.000  0.00  0.00    +0.194 C 
ENDBRANCH  18  54
BRANCH  22  56
ATOM     56  O   UNL     1      -0.000  -0.000  -0.000  0.00  0.00    -0.358 OA
ATOM     57  H   UNL     1       0.000   0.000   0.000  0.00  0.00    +0.213 HD
ENDBRANCH  22  56
BRANCH   8  58
ATOM     58  C   UNL     1      -0.000  -0.000  -0.000  0.00  0.00    +0.041 C 
BRANCH  58  59
ATOM     59  C   UNL     1      -0.000  -0.000  -0.000  0.00  0.00    -0.033 C 
ATOM     60  C   UNL     1      -0.000  -0.000  -0.000  0.00  0.00    +0.004 C 
ENDBRANCH  58  59
ENDBRANCH   8  58
TORSDOF 10
