REMARK  Name = 
REMARK  4 active torsions:
REMARK  status: ('A' for Active; 'I' for Inactive)
REMARK    1  A    between atoms: C_1  and  O_2
REMARK    2  A    between atoms: O_2  and  C_3
REMARK    3  A    between atoms: C_12  and  C_15
REMARK    4  A    between atoms: C_15  and  C_17
REMARK                            x       y       z     vdW  Elec       q    Type
REMARK                         _______ _______ _______ _____ _____    ______ ____
ROOT
ATOM      1  C   UNL     1       3.484  -1.308  -0.248  0.00  0.00    +0.406 C 
ATOM      2  N   UNL     1       4.552  -0.946  -1.030  0.00  0.00    -0.221 N 
ATOM      3  H   UNL     1       4.750   0.038  -1.100  0.00  0.00    +0.161 HD
ATOM      4  C   UNL     1       5.237  -1.880  -1.759  0.00  0.00    +0.203 A 
ATOM      5  N   UNL     1       6.240  -1.536  -2.637  0.00  0.00    -0.326 N 
ATOM      6  H   UNL     1       6.587  -0.606  -2.808  0.00  0.00    +0.169 HD
ATOM      7  C   UNL     1       6.635  -2.677  -3.300  0.00  0.00    +0.068 A 
ATOM      8  C   UNL     1       7.540  -2.918  -4.340  0.00  0.00    +0.039 A 
ATOM      9  C   UNL     1       7.635  -4.248  -4.791  0.00  0.00    +0.024 A 
ATOM     10  C   UNL     1       6.928  -5.285  -4.166  0.00  0.00    +0.014 A 
ATOM     11  C   UNL     1       6.038  -5.010  -3.125  0.00  0.00    +0.030 A 
ATOM     12  C   UNL     1       5.883  -3.684  -2.708  0.00  0.00    +0.091 A 
ATOM     13  N   UNL     1       5.047  -3.176  -1.763  0.00  0.00    -0.214 NA
ATOM     14  O   UNL     1       3.035  -2.424  -0.037  0.00  0.00    -0.226 OA
ENDROOT
BRANCH   1  16
ATOM     15  C   UNL     1       1.765  -0.442   1.062  0.00  0.00    +0.282 C 
ATOM     16  O   UNL     1       2.933  -0.177   0.281  0.00  0.00    -0.453 OA
ENDBRANCH   1  16
BRANCH   9  17
ATOM     17  C   UNL     1       8.514  -4.532  -5.958  0.00  0.00    +0.193 C 
ATOM     18  O   UNL     1       9.556  -3.896  -6.086  0.00  0.00    -0.287 OA
BRANCH  17  19
ATOM     19  C   UNL     1       8.139  -5.549  -6.982  0.00  0.00    +0.022 A 
ATOM     20  C   UNL     1       6.801  -5.842  -7.283  0.00  0.00    +0.012 A 
ATOM     21  C   UNL     1       6.492  -6.789  -8.262  0.00  0.00    +0.001 A 
ATOM     22  C   UNL     1       7.515  -7.429  -8.960  0.00  0.00    +0.000 A 
ATOM     23  C   UNL     1       8.847  -7.128  -8.679  0.00  0.00    +0.001 A 
ATOM     24  C   UNL     1       9.160  -6.189  -7.693  0.00  0.00    +0.012 A 
ENDBRANCH  17  19
ENDBRANCH   9  17
TORSDOF 3
