REMARK  Name = 
REMARK  6 active torsions:
REMARK  status: ('A' for Active; 'I' for Inactive)
REMARK    1  A    between atoms: O_1  and  C_2
REMARK    2  A    between atoms: C_2  and  C_3
REMARK    3  A    between atoms: C_3  and  O_4
REMARK    4  A    between atoms: C_3  and  C_5
REMARK    5  A    between atoms: C_5  and  O_6
REMARK    6  A    between atoms: O_6  and  C_7
REMARK                            x       y       z     vdW  Elec       q    Type
REMARK                         _______ _______ _______ _____ _____    ______ ____
ROOT
ATOM      1  O   UNL     1       5.031   2.624  -0.898  0.00  0.00    -0.489 OA
ENDROOT
BRANCH   1   2
ATOM      2  C   UNL     1       6.406   2.660  -0.892  0.00  0.00    +0.121 A 
ATOM      3  C   UNL     1       6.980   3.904  -1.168  0.00  0.00    +0.047 A 
ATOM      4  C   UNL     1       8.374   4.057  -1.175  0.00  0.00    +0.023 A 
ATOM      5  C   UNL     1       9.192   2.961  -0.905  0.00  0.00    +0.041 A 
ATOM      6 CL   UNL     1      10.902   3.141  -0.902  0.00  0.00    -0.084 Cl
ATOM      7  C   UNL     1       8.631   1.718  -0.638  0.00  0.00    +0.023 A 
ATOM      8  C   UNL     1       7.241   1.568  -0.635  0.00  0.00    +0.047 A 
ENDBRANCH   1   2
BRANCH   1   9
ATOM      9  C   UNL     1       4.452   1.356  -0.545  0.00  0.00    +0.262 C 
BRANCH   9  10
ATOM     10  C   UNL     1       2.924   1.450  -0.467  0.00  0.00    +0.177 C 
BRANCH  10  11
ATOM     11  O   UNL     1       2.377   1.820  -1.736  0.00  0.00    -0.386 OA
ATOM     12  H   UNL     1       2.866   2.614  -2.026  0.00  0.00    +0.210 HD
ENDBRANCH  10  11
BRANCH  10  13
ATOM     13  C   UNL     1       2.440   2.427   0.606  0.00  0.00    +0.190 C 
BRANCH  13  14
ATOM     14  O   UNL     1       2.917   2.044   1.889  0.00  0.00    -0.392 OA
ATOM     15  H   UNL     1       2.585   2.703   2.522  0.00  0.00    +0.210 HD
ENDBRANCH  13  14
ENDBRANCH  10  13
ENDBRANCH   9  10
ENDBRANCH   1   9
TORSDOF 6
