REMARK  Name = 
REMARK  20 active torsions:
REMARK  status: ('A' for Active; 'I' for Inactive)
REMARK    1  A    between atoms: C_1  and  O_2
REMARK    2  A    between atoms: O_2  and  C_3
REMARK    3  A    between atoms: C_3  and  C_5
REMARK    4  A    between atoms: C_5  and  C_6
REMARK    5  A    between atoms: C_6  and  C_7
REMARK    6  A    between atoms: C_24  and  C_25
REMARK    7  A    between atoms: C_25  and  C_26
REMARK    8  A    between atoms: C_26  and  C_27
REMARK    9  A    between atoms: C_27  and  O_28
REMARK   10  A    between atoms: C_30  and  C_31
REMARK   11  A    between atoms: C_32  and  C_33
REMARK   12  A    between atoms: C_35  and  C_36
REMARK   13  A    between atoms: C_40  and  C_49
REMARK   14  A    between atoms: C_41  and  C_43
REMARK   15  A    between atoms: C_43  and  O_45
REMARK   16  A    between atoms: O_45  and  C_46
REMARK   17  A    between atoms: C_47  and  C_48
REMARK   18  A    between atoms: C_49  and  O_51
REMARK   19  A    between atoms: O_51  and  C_52
REMARK   20  A    between atoms: C_53  and  C_54
REMARK                            x       y       z     vdW  Elec       q    Type
REMARK                         _______ _______ _______ _____ _____    ______ ____
ROOT
ATOM      1  C   UNL     1       1.448   0.415   7.144  0.00  0.00    -0.019 A 
ATOM      2  C   UNL     1       2.861   0.018   6.767  0.00  0.00    -0.022 A 
ATOM      3  C   UNL     1       4.071   0.438   7.566  0.00  0.00    +0.046 C 
ATOM      4  C   UNL     1       2.899  -0.707   5.563  0.00  0.00    +0.045 A 
ATOM      5  C   UNL     1       4.166  -1.324   4.760  0.00  0.00    +0.050 C 
ATOM      6  C   UNL     1       4.356  -1.321   3.384  0.00  0.00    +0.055 C 
ATOM      7  C   UNL     1       5.382  -1.857   2.037  0.00  0.00    +0.054 C 
ATOM      8  C   UNL     1       5.516  -3.403   2.173  0.00  0.00    +0.024 C 
ATOM      9  C   UNL     1       4.402  -1.379   0.923  0.00  0.00    -0.009 C 
ATOM     10  C   UNL     1       4.549  -1.214  -0.390  0.00  0.00    +0.007 C 
ATOM     11  C   UNL     1       5.791  -1.449  -1.034  0.00  0.00    +0.012 C 
ATOM     12  C   UNL     1       6.910  -1.509  -0.293  0.00  0.00    +0.051 C 
ATOM     13  C   UNL     1       3.277  -0.719   1.580  0.00  0.00    +0.070 C 
ATOM     14  C   UNL     1       2.213   0.024   0.927  0.00  0.00    +0.054 C 
ATOM     15  C   UNL     1       1.692   1.129   1.490  0.00  0.00    +0.045 A 
ATOM     16  C   UNL     1       2.063   1.973   2.661  0.00  0.00    -0.018 A 
ATOM     17  C   UNL     1       3.273   1.925   3.530  0.00  0.00    +0.046 C 
ATOM     18  C   UNL     1       1.020   2.774   2.990  0.00  0.00    +0.003 A 
ATOM     19  C   UNL     1       0.009   2.595   1.929  0.00  0.00    +0.049 A 
ATOM     20  C   UNL     1      -1.273   2.851   2.194  0.00  0.00    +0.054 C 
ATOM     21  C   UNL     1      -1.643   1.919   3.299  0.00  0.00    +0.070 C 
ATOM     22  C   UNL     1      -2.739   2.351   4.251  0.00  0.00    -0.020 C 
ATOM     23  C   UNL     1      -3.568   3.594   4.137  0.00  0.00    +0.046 C 
ATOM     24  C   UNL     1      -3.101   1.061   4.407  0.00  0.00    -0.017 C 
ATOM     25  C   UNL     1      -1.715   0.366   4.620  0.00  0.00    +0.070 C 
ATOM     26  C   UNL     1      -0.945   0.215   5.786  0.00  0.00    +0.054 C 
ATOM     27  N   UNL     1      -1.127   0.710   3.429  0.00  0.00    -0.247 NA
ATOM     28  N   UNL     1       0.454   1.596   1.077  0.00  0.00    -0.354 N 
ATOM     29  H   UNL     1      -0.227   0.854   0.901  0.00  0.00    +0.166 HD
ATOM     30  C   UNL     1       6.883  -1.501   1.262  0.00  0.00    +0.151 C 
ATOM     31  N   UNL     1       3.222  -0.811   2.846  0.00  0.00    -0.251 NA
ATOM     32  N   UNL     1       1.510  -0.635   5.135  0.00  0.00    -0.355 N 
ATOM     33  H   UNL     1       1.218  -0.962   4.229  0.00  0.00    +0.166 HD
ATOM     34  C   UNL     1       0.593   0.040   6.052  0.00  0.00    +0.045 A 
ENDROOT
BRANCH  12  35
ATOM     35  C   UNL     1       8.073  -1.723  -1.241  0.00  0.00    +0.336 C 
ATOM     36  O   UNL     1       7.963  -1.772  -2.485  0.00  0.00    -0.245 OA
BRANCH  35  37
ATOM     37  O   UNL     1       9.262  -1.963  -0.616  0.00  0.00    -0.465 OA
ATOM     38  C   UNL     1      10.322  -2.317  -1.549  0.00  0.00    +0.280 C 
ENDBRANCH  35  37
ENDBRANCH  12  35
BRANCH  18  39
ATOM     39  C   UNL     1       0.839   3.219   4.384  0.00  0.00    +0.002 C 
ATOM     40  C   UNL     1       0.127   4.232   4.888  0.00  0.00    +0.009 C 
ENDBRANCH  18  39
BRANCH  30  41
ATOM     41  C   UNL     1       7.604  -0.407   1.993  0.00  0.00    +0.316 C 
ATOM     42  O   UNL     1       8.002  -0.582   3.145  0.00  0.00    -0.250 OA
BRANCH  41  43
ATOM     43  O   UNL     1       7.787   0.725   1.276  0.00  0.00    -0.467 OA
ATOM     44  C   UNL     1       8.507   1.753   1.969  0.00  0.00    +0.280 C 
ENDBRANCH  41  43
ENDBRANCH  30  41
BRANCH   1  45
ATOM     45  C   UNL     1       1.330   1.188   8.507  0.00  0.00    +0.048 C 
BRANCH  45  46
ATOM     46  C   UNL     1       0.126   1.683   9.296  0.00  0.00    +0.125 C 
BRANCH  46  47
ATOM     47  C   UNL     1      -0.834   0.704   9.914  0.00  0.00    +0.307 C 
ATOM     48  O   UNL     1      -2.005   0.992  10.146  0.00  0.00    -0.251 OA
BRANCH  47  50
ATOM     49  C   UNL     1      -1.153  -1.411  10.838  0.00  0.00    +0.280 C 
ATOM     50  O   UNL     1      -0.239  -0.453  10.297  0.00  0.00    -0.468 OA
ENDBRANCH  47  50
ENDBRANCH  46  47
ENDBRANCH  45  46
ENDBRANCH   1  45
BRANCH  24  51
ATOM     51  C   UNL     1      -4.235   0.721   3.239  0.00  0.00    +0.049 C 
BRANCH  51  52
ATOM     52  C   UNL     1      -4.323   1.438   1.780  0.00  0.00    +0.125 C 
BRANCH  52  53
ATOM     53  C   UNL     1      -3.584   0.964   0.530  0.00  0.00    +0.305 C 
ATOM     54  O   UNL     1      -3.781   1.455  -0.587  0.00  0.00    -0.251 OA
BRANCH  53  55
ATOM     55  O   UNL     1      -2.681  -0.023   0.709  0.00  0.00    -0.481 OA
ATOM     56  H   UNL     1      -2.502  -0.237   1.655  0.00  0.00    +0.295 HD
ENDBRANCH  53  55
ENDBRANCH  52  53
ENDBRANCH  51  52
ENDBRANCH  24  51
TORSDOF 13
