REMARK  Name = 
REMARK  10 active torsions:
REMARK  status: ('A' for Active; 'I' for Inactive)
REMARK    1  A    between atoms: C_1  and  O_2
REMARK    2  A    between atoms: O_2  and  C_3
REMARK    3  A    between atoms: C_5  and  C_6
REMARK    4  A    between atoms: C_6  and  O_7
REMARK    5  A    between atoms: C_6  and  C_8
REMARK    6  A    between atoms: C_8  and  N_9
REMARK    7  A    between atoms: C_10  and  C_12
REMARK    8  A    between atoms: C_12  and  N_13
REMARK    9  A    between atoms: C_14  and  O_15
REMARK   10  A    between atoms: O_15  and  C_16
REMARK                            x       y       z     vdW  Elec       q    Type
REMARK                         _______ _______ _______ _____ _____    ______ ____
ROOT
ATOM      1  C   UNL     1       3.399   3.861  -3.031  0.00  0.00    +0.165 C 
ENDROOT
BRANCH   1   6
ATOM      2  C   UNL     1       3.090   0.471  -1.232  0.00  0.00    +0.121 A 
ATOM      3  C   UNL     1       3.726  -0.382  -2.125  0.00  0.00    +0.049 A 
ATOM      4  C   UNL     1       4.249   0.116  -3.322  0.00  0.00    +0.049 A 
ATOM      5  C   UNL     1       4.142   1.481  -3.633  0.00  0.00    +0.126 A 
ATOM      6  C   UNL     1       3.527   2.364  -2.729  0.00  0.00    +0.027 A 
ATOM      7  C   UNL     1       3.026   1.830  -1.524  0.00  0.00    +0.055 A 
BRANCH   2   9
ATOM      8  C   UNL     1       1.502   0.601   0.506  0.00  0.00    +0.277 C 
ATOM      9  O   UNL     1       2.596  -0.099  -0.089  0.00  0.00    -0.495 OA
ENDBRANCH   2   9
BRANCH   5  10
ATOM     10  O   UNL     1       4.604   2.036  -4.802  0.00  0.00    -0.495 OA
ATOM     11  C   UNL     1       5.184   1.164  -5.765  0.00  0.00    +0.277 C 
ENDBRANCH   5  10
ENDBRANCH   1   6
BRANCH   1  12
ATOM     12  O   UNL     1       2.574   4.072  -4.188  0.00  0.00    -0.386 OA
ATOM     13  H   UNL     1       2.197   3.211  -4.438  0.00  0.00    +0.210 HD
ENDBRANCH   1  12
BRANCH   1  14
ATOM     14  C   UNL     1       2.763   4.682  -1.890  0.00  0.00    +0.140 C 
BRANCH  14  15
ATOM     15  N   UNL     1       2.684   6.105  -2.131  0.00  0.00    -0.311 N 
ATOM     16  H   UNL     1       2.731   6.454  -3.087  0.00  0.00    +0.149 HD
ATOM     17  C   UNL     1       2.065   6.920  -1.206  0.00  0.00    +0.227 C 
ATOM     18  O   UNL     1       1.641   6.513  -0.126  0.00  0.00    -0.274 OA
BRANCH  17  19
ATOM     19  C   UNL     1       1.918   8.378  -1.642  0.00  0.00    +0.174 C 
BRANCH  19  20
ATOM     20  N   UNL     1       2.989   8.761  -2.580  0.00  0.00    -0.322 NA
ATOM     21  H   UNL     1       2.989   9.777  -2.669  0.00  0.00    +0.119 HD
ATOM     22  H   UNL     1       3.884   8.521  -2.148  0.00  0.00    +0.119 HD
ENDBRANCH  19  20
ENDBRANCH  17  19
ENDBRANCH  14  15
ENDBRANCH   1  14
TORSDOF 8
