REMARK  Name = 
REMARK  5 active torsions:
REMARK  status: ('A' for Active; 'I' for Inactive)
REMARK    1  A    between atoms: C_1  and  C_2
REMARK    2  A    between atoms: C_2  and  C_3
REMARK    3  A    between atoms: N_5  and  C_6
REMARK    4  A    between atoms: C_6  and  C_7
REMARK    5  A    between atoms: C_7  and  C_8
REMARK                            x       y       z     vdW  Elec       q    Type
REMARK                         _______ _______ _______ _____ _____    ______ ____
ROOT
ATOM      1  C   UNL     1       7.010  -1.160  -4.356  0.00  0.00    +0.021 C 
ATOM      2  C   UNL     1       7.097  -2.649  -4.481  0.00  0.00    -0.034 A 
ATOM      3  C   UNL     1       7.818  -3.613  -3.772  0.00  0.00    +0.001 A 
ATOM      4  C   UNL     1       8.767  -3.530  -2.660  0.00  0.00    +0.080 C 
ATOM      5  C   UNL     1       9.080  -5.016  -2.446  0.00  0.00    +0.234 C 
ATOM      6  O   UNL     1       8.337  -5.821  -3.397  0.00  0.00    -0.491 OA
ATOM      7  C   UNL     1       7.600  -4.931  -4.168  0.00  0.00    +0.124 A 
ATOM      8  C   UNL     1       6.787  -5.417  -5.173  0.00  0.00    +0.046 A 
ATOM      9  C   UNL     1       6.093  -4.479  -5.896  0.00  0.00    +0.007 A 
ATOM     10  C   UNL     1       6.285  -3.161  -5.514  0.00  0.00    -0.043 A 
ATOM     11  C   UNL     1       5.566  -2.045  -6.217  0.00  0.00    +0.036 C 
ATOM     12  C   UNL     1       6.192  -0.761  -5.618  0.00  0.00    +0.013 C 
ENDROOT
BRANCH   1  13
ATOM     13  C   UNL     1       6.381  -0.707  -3.033  0.00  0.00    +0.027 C 
BRANCH  13  14
ATOM     14  C   UNL     1       4.995  -1.291  -2.748  0.00  0.00    +0.105 C 
BRANCH  14  16
ATOM     15  C   UNL     1       3.752   0.396  -1.446  0.00  0.00    +0.213 C 
ATOM     16  N   UNL     1       4.452  -0.789  -1.499  0.00  0.00    -0.315 N 
ATOM     17  H   UNL     1       4.638  -1.301  -0.647  0.00  0.00    +0.149 HD
ATOM     18  O   UNL     1       3.559   1.105  -2.427  0.00  0.00    -0.276 OA
BRANCH  15  20
ATOM     19  C   UNL     1       2.436   2.015  -0.047  0.00  0.00    +0.013 C 
ATOM     20  C   UNL     1       3.246   0.730  -0.057  0.00  0.00    +0.092 C 
ENDBRANCH  15  20
ENDBRANCH  14  16
ENDBRANCH  13  14
ENDBRANCH   1  13
TORSDOF 4
