REMARK  Name = 
REMARK  8 active torsions:
REMARK  status: ('A' for Active; 'I' for Inactive)
REMARK    1  A    between atoms: C_4  and  C_5
REMARK    2  A    between atoms: C_4  and  C_6
REMARK    3  A    between atoms: CA_7  and  C_31
REMARK    4  A    between atoms: CA_12  and  N_14
REMARK    5  A    between atoms: C_15  and  C_17
REMARK    6  A    between atoms: C_18  and  C_19
REMARK    7  A    between atoms: C_22  and  C_23
REMARK    8  A    between atoms: C_31  and  O_32
REMARK                            x       y       z     vdW  Elec       q    Type
REMARK                         _______ _______ _______ _____ _____    ______ ____
ROOT
ATOM      1  N   UNL     1       3.274  -0.713   2.265  0.00  0.00    -0.298 N 
ATOM      2  H   UNL     1       4.173  -0.243   2.231  0.00  0.00    +0.150 HD
ATOM      3  C   UNL     1       2.803  -1.139   3.482  0.00  0.00    +0.250 C 
ATOM      4  O   UNL     1       1.838  -1.885   3.583  0.00  0.00    -0.270 OA
ENDROOT
BRANCH   1   6
ATOM      5  C   UNL     1       3.444  -0.721  -0.280  0.00  0.00    +0.165 C 
ATOM      6  CA  UNL     1       2.586  -1.019   0.984  0.00  0.00    +0.190 C 
ATOM      7  C   UNL     1       2.635  -2.486   0.470  0.00  0.00    +0.240 C 
ATOM      8  O   UNL     1       2.399  -3.599   0.889  0.00  0.00    -0.273 OA
ATOM      9  N   UNL     1       3.300  -2.138  -0.670  0.00  0.00    -0.271 N 
ATOM     10  CA  UNL     1       4.549  -2.829  -1.043  0.00  0.00    +0.201 C 
ATOM     11  C   UNL     1       5.680  -2.243  -0.165  0.00  0.00    +0.042 C 
ATOM     12  C   UNL     1       5.710  -2.896   1.236  0.00  0.00    +0.025 C 
ATOM     13  C   UNL     1       7.096  -2.372  -0.732  0.00  0.00    +0.025 C 
ATOM     14  S   UNL     1       5.246  -0.453   0.038  0.00  0.00    -0.127 S 
BRANCH  10  15
ATOM     15  C   UNL     1       4.677  -2.663  -2.568  0.00  0.00    +0.327 C 
ATOM     16  OXT UNL     1       5.711  -2.729  -3.211  0.00  0.00    -0.249 OA
BRANCH  15  17
ATOM     17  O   UNL     1       3.468  -2.570  -3.187  0.00  0.00    -0.479 OA
ATOM     18  H   UNL     1       2.740  -2.637  -2.532  0.00  0.00    +0.295 HD
ENDBRANCH  15  17
ENDBRANCH  10  15
ENDBRANCH   1   6
BRANCH   3  19
ATOM     19  C   UNL     1       3.533  -0.633   4.626  0.00  0.00    +0.106 A 
ATOM     20  C   UNL     1       4.165   0.639   4.869  0.00  0.00    +0.130 A 
ATOM     21  N   UNL     1       4.735   0.638   6.085  0.00  0.00    -0.077 NA
ATOM     22  O   UNL     1       4.478  -0.589   6.647  0.00  0.00    -0.359 OA
ATOM     23  C   UNL     1       3.745  -1.342   5.792  0.00  0.00    +0.147 A 
ATOM     24  C   UNL     1       3.393  -2.694   6.273  0.00  0.00    +0.090 C 
BRANCH  20  25
ATOM     25  C   UNL     1       4.299   1.809   3.986  0.00  0.00    +0.058 A 
ATOM     26  C   UNL     1       3.275   2.265   3.136  0.00  0.00    +0.053 A 
ATOM     27 CL   UNL     1       1.613   1.814   3.324  0.00  0.00    -0.083 Cl
ATOM     28  C   UNL     1       3.549   3.178   2.107  0.00  0.00    +0.021 A 
ATOM     29  C   UNL     1       4.809   3.759   1.996  0.00  0.00    +0.004 A 
ATOM     30  C   UNL     1       5.784   3.448   2.934  0.00  0.00    +0.039 A 
ATOM     31  C   UNL     1       5.535   2.472   3.901  0.00  0.00    +0.134 A 
ATOM     32  F   UNL     1       6.543   2.169   4.732  0.00  0.00    -0.205 F 
ENDBRANCH  20  25
ENDBRANCH   3  19
TORSDOF 5
