REMARK  Name = 
REMARK  6 active torsions:
REMARK  status: ('A' for Active; 'I' for Inactive)
REMARK    1  A    between atoms: C_1  and  C_2
REMARK    2  A    between atoms: C_2  and  N_3
REMARK    3  A    between atoms: C_5  and  C_6
REMARK    4  A    between atoms: C_6  and  O_7
REMARK    5  A    between atoms: C_15  and  N_16
REMARK    6  A    between atoms: C_20  and  C_21
REMARK                            x       y       z     vdW  Elec       q    Type
REMARK                         _______ _______ _______ _____ _____    ______ ____
ROOT
ATOM      1  N   UNL     1       2.917   0.795   1.153  0.00  0.00    -0.344 N 
ATOM      2  C   UNL     1       2.636   2.178   0.995  0.00  0.00    +0.090 A 
ATOM      3  C   UNL     1       2.955   3.058   2.049  0.00  0.00    +0.052 A 
ATOM      4  C   UNL     1       2.692   4.427   1.965  0.00  0.00    +0.054 A 
ATOM      5  C   UNL     1       2.109   4.950   0.816  0.00  0.00    +0.148 A 
ATOM      6  C   UNL     1       1.763   4.151  -0.286  0.00  0.00    +0.103 A 
ATOM      7  F   UNL     1       1.926   6.280   0.780  0.00  0.00    -0.203 F 
ATOM      8  C   UNL     1       3.575   2.538   3.292  0.00  0.00    +0.204 A 
ATOM      9  O   UNL     1       3.862   3.280   4.230  0.00  0.00    -0.286 OA
ATOM     10  C   UNL     1       3.842   1.092   3.391  0.00  0.00    +0.122 A 
ATOM     11  C   UNL     1       2.045   2.766  -0.153  0.00  0.00    +0.171 A 
ATOM     12  F   UNL     1       1.669   1.970  -1.169  0.00  0.00    -0.201 F 
ATOM     13  C   UNL     1       3.493   0.346   2.336  0.00  0.00    +0.105 A 
ENDROOT
BRANCH   6  14
ATOM     14  N   UNL     1       1.162   4.668  -1.425  0.00  0.00    -0.323 N 
ATOM     15  C   UNL     1       1.487   4.194  -2.782  0.00  0.00    +0.123 C 
ATOM     16  C   UNL     1       2.029   5.373  -3.649  0.00  0.00    +0.068 C 
ATOM     17  C   UNL     1       2.227   4.920  -5.095  0.00  0.00    +0.025 C 
ATOM     18  N   UNL     1       1.152   6.567  -3.644  0.00  0.00    -0.311 NA
ATOM     19  H   UNL     1       1.621   7.332  -4.129  0.00  0.00    +0.122 HD
ATOM     20  C   UNL     1       0.872   6.979  -2.253  0.00  0.00    +0.100 C 
ATOM     21  C   UNL     1       0.273   5.839  -1.405  0.00  0.00    +0.120 C 
ENDBRANCH   6  14
BRANCH   1  23
ATOM     22  C   UNL     1       1.018  -0.557   0.341  0.00  0.00    +0.027 C 
ATOM     23  C   UNL     1       2.480  -0.181   0.135  0.00  0.00    +0.118 C 
ENDBRANCH   1  23
BRANCH  10  24
ATOM     24  C   UNL     1       4.446   0.440   4.571  0.00  0.00    +0.342 C 
ATOM     25  O   UNL     1       4.661  -0.762   4.640  0.00  0.00    -0.245 OA
BRANCH  24  26
ATOM     26  O   UNL     1       4.750   1.283   5.582  0.00  0.00    -0.477 OA
ATOM     27  H   UNL     1       4.526   2.228   5.400  0.00  0.00    +0.295 HD
ENDBRANCH  24  26
ENDBRANCH  10  24
TORSDOF 4
