REMARK  Name = 
REMARK  6 active torsions:
REMARK  status: ('A' for Active; 'I' for Inactive)
REMARK    1  A    between atoms: C_1  and  C_2
REMARK    2  A    between atoms: C_3  and  C_4
REMARK    3  A    between atoms: C_5  and  N_6
REMARK    4  A    between atoms: N_6  and  C_7
REMARK    5  A    between atoms: C_12  and  C_13
REMARK    6  A    between atoms: C_13  and  O_14
REMARK                            x       y       z     vdW  Elec       q    Type
REMARK                         _______ _______ _______ _____ _____    ______ ____
ROOT
ATOM      1  N   UNL     1       4.976  -2.504   0.187  0.00  0.00    -0.314 N 
ATOM      2  H   UNL     1       4.843  -3.077   1.015  0.00  0.00    +0.152 HD
ENDROOT
BRANCH   1   8
ATOM      3  C   UNL     1       0.795   0.209   0.142  0.00  0.00    +0.044 C 
ATOM      4  C   UNL     1       2.287   0.078   0.275  0.00  0.00    -0.046 A 
ATOM      5  C   UNL     1       3.052   1.240   0.100  0.00  0.00    +0.004 A 
ATOM      6  C   UNL     1       4.431   1.193   0.122  0.00  0.00    +0.002 A 
ATOM      7  C   UNL     1       5.066  -0.044   0.225  0.00  0.00    +0.023 A 
ATOM      8  C   UNL     1       4.331  -1.236   0.344  0.00  0.00    +0.035 A 
ATOM      9  C   UNL     1       2.935  -1.159   0.534  0.00  0.00    -0.026 A 
ATOM     10  C   UNL     1       2.154  -2.362   0.978  0.00  0.00    +0.046 C 
ENDBRANCH   1   8
BRANCH   1  11
ATOM     11  C   UNL     1       6.180  -2.726  -0.533  0.00  0.00    +0.045 A 
ATOM     12  C   UNL     1       7.129  -3.693  -0.160  0.00  0.00    +0.080 A 
ATOM     13  C   UNL     1       8.400  -3.720  -0.762  0.00  0.00    +0.017 A 
ATOM     14  C   UNL     1       8.705  -2.845  -1.805  0.00  0.00    +0.001 A 
ATOM     15  C   UNL     1       7.727  -1.991  -2.290  0.00  0.00    +0.002 A 
ATOM     16  C   UNL     1       6.474  -1.952  -1.676  0.00  0.00    +0.024 A 
BRANCH  12  17
ATOM     17  C   UNL     1       6.851  -4.725   0.863  0.00  0.00    +0.339 C 
ATOM     18  O   UNL     1       7.677  -5.129   1.661  0.00  0.00    -0.245 OA
BRANCH  17  19
ATOM     19  O   UNL     1       5.597  -5.223   0.765  0.00  0.00    -0.477 OA
ATOM     20  H   UNL     1       5.130  -4.950  -0.052  0.00  0.00    +0.295 HD
ENDBRANCH  17  19
ENDBRANCH  12  17
ENDBRANCH   1  11
TORSDOF 4
