REMARK  Name = 
REMARK  2 active torsions:
REMARK  status: ('A' for Active; 'I' for Inactive)
REMARK    1  A    between atoms: N_4  and  C_5
REMARK    2  A    between atoms: C_5  and  C_6
REMARK                            x       y       z     vdW  Elec       q    Type
REMARK                         _______ _______ _______ _____ _____    ______ ____
ROOT
ATOM      1  C   UNL     1       5.258  -2.629  -0.303  0.00  0.00    +0.184 C 
ATOM      2  O   UNL     1       4.614  -3.632   0.496  0.00  0.00    -0.340 OA
ATOM      3  C   UNL     1       4.847  -4.866  -0.200  0.00  0.00    +0.171 C 
ATOM      4  C   UNL     1       3.518  -5.621  -0.310  0.00  0.00    +0.065 C 
ATOM      5  C   UNL     1       3.696  -6.997  -0.948  0.00  0.00    +0.005 C 
ATOM      6  C   UNL     1       4.739  -7.827  -0.204  0.00  0.00    +0.000 C 
ATOM      7  C   UNL     1       6.068  -7.088  -0.070  0.00  0.00    +0.005 C 
ATOM      8  C   UNL     1       5.888  -5.703   0.551  0.00  0.00    +0.065 C 
ATOM      9  O   UNL     1       5.343  -4.580  -1.522  0.00  0.00    -0.346 OA
ATOM     10  C   UNL     1       5.096  -3.186  -1.698  0.00  0.00    +0.198 C 
ENDROOT
BRANCH   1  11
ATOM     11  C   UNL     1       4.613  -1.250  -0.159  0.00  0.00    +0.277 C 
BRANCH  11  16
ATOM     12  N   UNL     1       4.592   0.944   2.701  0.00  0.00    -0.289 N 
ATOM     13  H   UNL     1       5.234   0.363   3.228  0.00  0.00    +0.255 HD
ATOM     14  H   UNL     1       4.822   1.924   2.770  0.00  0.00    +0.255 HD
ATOM     15  C   UNL     1       4.411   0.451   1.458  0.00  0.00    +0.377 C 
ATOM     16  N   UNL     1       4.902  -0.696   1.168  0.00  0.00    -0.111 NA
ATOM     17  N   UNL     1       3.673   1.282   0.695  0.00  0.00    -0.289 N 
ATOM     18  H   UNL     1       3.646   1.106  -0.299  0.00  0.00    +0.255 HD
ATOM     19  H   UNL     1       3.643   2.257   0.949  0.00  0.00    +0.255 HD
ENDBRANCH  11  16
ENDBRANCH   1  11
TORSDOF 2
