REMARK  Name = 
REMARK  4 active torsions:
REMARK  status: ('A' for Active; 'I' for Inactive)
REMARK    1  A    between atoms: C_1  and  N_2
REMARK    2  A    between atoms: C_4  and  C_5
REMARK    3  A    between atoms: N_7  and  C_8
REMARK    4  A    between atoms: N_16  and  C_17
REMARK                            x       y       z     vdW  Elec       q    Type
REMARK                         _______ _______ _______ _____ _____    ______ ____
ROOT
ATOM      1  C   UNL     1       5.200   3.210   1.870  0.00  0.00    +0.265 C 
ATOM      2  N   UNL     1       5.556   3.058   0.547  0.00  0.00    -0.307 N 
ATOM      3  H   UNL     1       4.939   2.487  -0.026  0.00  0.00    +0.149 HD
ATOM      4  O   UNL     1       5.877   3.877   2.650  0.00  0.00    -0.268 OA
ENDROOT
BRANCH   1  12
ATOM      5  C   UNL     1       0.927   0.876   1.702  0.00  0.00    +0.173 C 
ATOM      6  N   UNL     1       2.089   1.531   2.257  0.00  0.00    -0.266 N 
ATOM      7  C   UNL     1       2.278   1.821   3.586  0.00  0.00    +0.069 A 
ATOM      8  C   UNL     1       3.515   2.450   3.642  0.00  0.00    +0.032 A 
ATOM      9  C   UNL     1       4.027   2.854   4.892  0.00  0.00    +0.012 A 
ATOM     10  C   UNL     1       3.265   2.644   6.044  0.00  0.00    +0.001 A 
ATOM     11  C   UNL     1       2.013   2.043   5.959  0.00  0.00    +0.002 A 
ATOM     12  C   UNL     1       3.959   2.541   2.291  0.00  0.00    +0.155 A 
ATOM     13  C   UNL     1       1.495   1.609   4.730  0.00  0.00    +0.028 A 
ATOM     14  N   UNL     1       3.095   1.938   1.445  0.00  0.00    -0.166 NA
ENDBRANCH   1  12
BRANCH   2  15
ATOM     15  C   UNL     1       6.811   3.616   0.048  0.00  0.00    +0.076 C 
ATOM     16  C   UNL     1       6.758   5.146  -0.100  0.00  0.00    +0.041 C 
ATOM     17  C   UNL     1       7.813   5.771  -1.038  0.00  0.00    +0.058 C 
ATOM     18  N   UNL     1       8.806   4.835  -1.570  0.00  0.00    -0.299 NA
ATOM     19  C   UNL     1       9.860   4.508  -0.616  0.00  0.00    +0.105 C 
ATOM     20  C   UNL     1       8.135   3.680  -2.166  0.00  0.00    +0.058 C 
ATOM     21  C   UNL     1       7.289   4.132  -3.377  0.00  0.00    +0.019 C 
ATOM     22  C   UNL     1       6.515   5.442  -3.217  0.00  0.00    +0.003 C 
ATOM     23  C   UNL     1       7.155   6.440  -2.256  0.00  0.00    +0.019 C 
ATOM     24  C   UNL     1       7.328   2.845  -1.165  0.00  0.00    +0.041 C 
ENDBRANCH   2  15
TORSDOF 2
