REMARK  Name = 
REMARK  12 active torsions:
REMARK  status: ('A' for Active; 'I' for Inactive)
REMARK    1  A    between atoms: C_1  and  C_2
REMARK    2  A    between atoms: C_2  and  O_3
REMARK    3  A    between atoms: O_3  and  C_4
REMARK    4  A    between atoms: C_4  and  C_6
REMARK    5  A    between atoms: C_6  and  C_8
REMARK    6  A    between atoms: C_6  and  N_16
REMARK    7  A    between atoms: C_8  and  C_9
REMARK    8  A    between atoms: C_9  and  C_10
REMARK    9  A    between atoms: N_16  and  C_17
REMARK   10  A    between atoms: N_27  and  C_28
REMARK   11  A    between atoms: C_28  and  C_29
REMARK   12  A    between atoms: C_29  and  O_30
REMARK                            x       y       z     vdW  Elec       q    Type
REMARK                         _______ _______ _______ _____ _____    ______ ____
ROOT
ATOM      1  C   UNL     1       6.712  -3.526  -3.196  0.00  0.00    +0.142 C 
ATOM      2  C   UNL     1       8.208  -3.795  -2.911  0.00  0.00    +0.237 C 
ATOM      3  O   UNL     1       8.855  -3.236  -2.022  0.00  0.00    -0.274 OA
ATOM      4  N   UNL     1       8.748  -4.896  -3.571  0.00  0.00    -0.259 N 
ATOM      5  C   UNL     1       9.210  -4.660  -4.891  0.00  0.00    +0.040 A 
ATOM      6  C   UNL     1       8.273  -4.314  -5.883  0.00  0.00    -0.026 A 
ATOM      7  C   UNL     1       8.719  -3.899  -7.143  0.00  0.00    +0.005 A 
ATOM      8  C   UNL     1      10.078  -3.819  -7.415  0.00  0.00    +0.000 A 
ATOM      9  C   UNL     1      11.004  -4.198  -6.448  0.00  0.00    +0.002 A 
ATOM     10  C   UNL     1       6.796  -4.374  -5.600  0.00  0.00    +0.039 C 
ATOM     11  C   UNL     1      10.575  -4.644  -5.194  0.00  0.00    +0.024 A 
ATOM     12  C   UNL     1       6.384  -3.244  -4.663  0.00  0.00    +0.033 C 
ENDROOT
BRANCH   1  13
ATOM     13  N   UNL     1       6.236  -2.407  -2.349  0.00  0.00    -0.293 NA
ATOM     14  H   UNL     1       6.670  -2.473  -1.421  0.00  0.00    +0.123 HD
BRANCH  13  15
ATOM     15  C   UNL     1       4.760  -2.342  -2.199  0.00  0.00    +0.164 C 
BRANCH  15  16
ATOM     16  C   UNL     1       4.388  -1.050  -1.442  0.00  0.00    +0.324 C 
ATOM     17  O   UNL     1       4.610  -0.849  -0.255  0.00  0.00    -0.249 OA
BRANCH  16  18
ATOM     18  O   UNL     1       3.751  -0.197  -2.292  0.00  0.00    -0.464 OA
BRANCH  18  20
ATOM     19  C   UNL     1       1.941   0.895  -1.123  0.00  0.00    +0.048 C 
ATOM     20  C   UNL     1       3.321   1.054  -1.735  0.00  0.00    +0.229 C 
ENDBRANCH  18  20
ENDBRANCH  16  18
ENDBRANCH  15  16
BRANCH  15  21
ATOM     21  C   UNL     1       4.199  -3.580  -1.492  0.00  0.00    +0.035 C 
BRANCH  21  22
ATOM     22  C   UNL     1       2.679  -3.573  -1.314  0.00  0.00    +0.037 C 
BRANCH  22  23
ATOM     23  C   UNL     1       2.246  -4.924  -0.793  0.00  0.00    -0.047 A 
ATOM     24  C   UNL     1       1.981  -5.980  -1.676  0.00  0.00    +0.003 A 
ATOM     25  C   UNL     1       1.685  -7.253  -1.188  0.00  0.00    +0.000 A 
ATOM     26  C   UNL     1       1.652  -7.485   0.186  0.00  0.00    +0.000 A 
ATOM     27  C   UNL     1       1.914  -6.441   1.072  0.00  0.00    +0.000 A 
ATOM     28  C   UNL     1       2.212  -5.169   0.586  0.00  0.00    +0.003 A 
ENDBRANCH  22  23
ENDBRANCH  21  22
ENDBRANCH  15  21
ENDBRANCH  13  15
ENDBRANCH   1  13
BRANCH   4  29
ATOM     29  C   UNL     1       9.322  -5.969  -2.762  0.00  0.00    +0.234 C 
BRANCH  29  30
ATOM     30  C   UNL     1      10.607  -5.802  -1.956  0.00  0.00    +0.323 C 
ATOM     31  O   UNL     1      11.154  -6.751  -1.406  0.00  0.00    -0.249 OA
BRANCH  30  32
ATOM     32  O   UNL     1      11.086  -4.548  -1.842  0.00  0.00    -0.480 OA
ATOM     33  H   UNL     1      10.432  -3.860  -2.112  0.00  0.00    +0.295 HD
ENDBRANCH  30  32
ENDBRANCH  29  30
ENDBRANCH   4  29
TORSDOF 11
