REMARK  Name = 
REMARK  10 active torsions:
REMARK  status: ('A' for Active; 'I' for Inactive)
REMARK    1  A    between atoms: C_1  and  C_2
REMARK    2  A    between atoms: C_2  and  C_3
REMARK    3  A    between atoms: C_2  and  C_4
REMARK    4  A    between atoms: C_2  and  N_5
REMARK    5  A    between atoms: N_5  and  C_6
REMARK    6  A    between atoms: C_6  and  C_7
REMARK    7  A    between atoms: C_7  and  O_8
REMARK    8  A    between atoms: C_7  and  C_9
REMARK    9  A    between atoms: C_11  and  O_12
REMARK   10  A    between atoms: C_14  and  O_15
REMARK                            x       y       z     vdW  Elec       q    Type
REMARK                         _______ _______ _______ _____ _____    ______ ____
ROOT
ATOM      1  C   UNL     1       4.964   1.514   2.513  0.00  0.00    +0.158 C 
ENDROOT
BRANCH   1   2
ATOM      2  C   UNL     1       6.483   1.584   2.546  0.00  0.00    -0.011 A 
ATOM      3  C   UNL     1       7.268   0.417   2.520  0.00  0.00    +0.051 A 
ATOM      4  C   UNL     1       8.656   0.502   2.437  0.00  0.00    +0.121 A 
ATOM      5  C   UNL     1       9.293   1.734   2.396  0.00  0.00    +0.090 A 
ATOM      6  C   UNL     1       8.523   2.889   2.447  0.00  0.00    +0.121 A 
ATOM      7  C   UNL     1       7.131   2.827   2.524  0.00  0.00    +0.051 A 
BRANCH   4   8
ATOM      8  O   UNL     1       9.356  -0.667   2.376  0.00  0.00    -0.507 OA
ATOM      9  H   UNL     1      10.302  -0.455   2.304  0.00  0.00    +0.292 HD
ENDBRANCH   4   8
BRANCH   6  10
ATOM     10  O   UNL     1       9.178   4.085   2.398  0.00  0.00    -0.507 OA
ATOM     11  H   UNL     1       8.524   4.801   2.452  0.00  0.00    +0.292 HD
ENDBRANCH   6  10
ENDBRANCH   1   2
BRANCH   1  12
ATOM     12  O   UNL     1       4.475   0.869   3.693  0.00  0.00    -0.386 OA
ATOM     13  H   UNL     1       4.857  -0.023   3.719  0.00  0.00    +0.210 HD
ENDBRANCH   1  12
BRANCH   1  14
ATOM     14  C   UNL     1       4.489   0.759   1.244  0.00  0.00    +0.117 C 
BRANCH  14  15
ATOM     15  N   UNL     1       3.026   0.705   1.115  0.00  0.00    -0.309 NA
ATOM     16  H   UNL     1       2.636   0.359   1.995  0.00  0.00    +0.123 HD
BRANCH  15  18
ATOM     17  C   UNL     1       2.980  -1.569   0.057  0.00  0.00    +0.027 C 
ATOM     18  C   UNL     1       2.532  -0.098  -0.023  0.00  0.00    +0.011 C 
ATOM     19  C   UNL     1       0.993  -0.064   0.031  0.00  0.00    +0.027 C 
ATOM     20  C   UNL     1       2.978   0.512  -1.364  0.00  0.00    +0.027 C 
ENDBRANCH  15  18
ENDBRANCH  14  15
ENDBRANCH   1  14
TORSDOF 7
