REMARK  Name = 
REMARK  12 active torsions:
REMARK  status: ('A' for Active; 'I' for Inactive)
REMARK    1  A    between atoms: C_1  and  O_2
REMARK    2  A    between atoms: O_2  and  C_3
REMARK    3  A    between atoms: C_4  and  C_5
REMARK    4  A    between atoms: C_5  and  C_6
REMARK    5  A    between atoms: N_8  and  C_9
REMARK    6  A    between atoms: C_13  and  N_14
REMARK    7  A    between atoms: C_15  and  O_17
REMARK    8  A    between atoms: O_17  and  C_18
REMARK    9  A    between atoms: C_27  and  C_29
REMARK   10  A    between atoms: N_31  and  S_32
REMARK   11  A    between atoms: S_32  and  C_35
REMARK   12  A    between atoms: C_40  and  C_41
REMARK                            x       y       z     vdW  Elec       q    Type
REMARK                         _______ _______ _______ _____ _____    ______ ____
ROOT
ATOM      1  C   UNL     1       2.313   1.642   2.057  0.00  0.00    +0.124 A 
ATOM      2  C   UNL     1       3.285   1.119   2.926  0.00  0.00    +0.059 A 
ATOM      3  C   UNL     1       4.605   0.943   2.497  0.00  0.00    +0.042 A 
ATOM      4  C   UNL     1       4.962   1.377   1.213  0.00  0.00    +0.013 A 
ATOM      5  C   UNL     1       4.012   1.942   0.362  0.00  0.00    +0.008 A 
ATOM      6  C   UNL     1       2.670   2.062   0.760  0.00  0.00    -0.001 A 
ENDROOT
BRANCH   3   7
ATOM      7  C   UNL     1       5.666   0.283   3.319  0.00  0.00    +0.263 C 
ATOM      8  N   UNL     1       5.269  -0.306   4.526  0.00  0.00    -0.181 N 
ATOM      9  H   UNL     1       4.334  -0.268   4.903  0.00  0.00    +0.177 HD
ATOM     10  O   UNL     1       6.819   0.264   2.926  0.00  0.00    -0.269 OA
BRANCH   8  11
ATOM     11  S   UNL     1       6.321  -1.087   5.560  0.00  0.00    +0.075 S 
ATOM     12  O   UNL     1       6.975  -2.152   4.831  0.00  0.00    -0.150 OA
ATOM     13  O   UNL     1       5.551  -1.384   6.749  0.00  0.00    -0.150 OA
BRANCH  11  14
ATOM     14  C   UNL     1       7.509   0.177   5.978  0.00  0.00    +0.111 A 
ATOM     15  C   UNL     1       7.141   1.347   6.674  0.00  0.00    -0.024 A 
ATOM     16  C   UNL     1       5.742   1.631   7.144  0.00  0.00    +0.046 C 
ATOM     17  C   UNL     1       8.137   2.306   6.929  0.00  0.00    +0.005 A 
ATOM     18  C   UNL     1       9.457   2.103   6.522  0.00  0.00    +0.000 A 
ATOM     19  C   UNL     1       9.809   0.937   5.850  0.00  0.00    +0.002 A 
ATOM     20  C   UNL     1       8.838  -0.025   5.576  0.00  0.00    +0.029 A 
ENDBRANCH  11  14
ENDBRANCH   8  11
ENDBRANCH   3   7
BRANCH   1  22
ATOM     21  C   UNL     1       0.528   0.914   3.447  0.00  0.00    +0.277 C 
ATOM     22  O   UNL     1       0.992   1.768   2.405  0.00  0.00    -0.495 OA
ENDBRANCH   1  22
BRANCH   6  23
ATOM     23  C   UNL     1       1.646   2.542  -0.249  0.00  0.00    +0.076 C 
BRANCH  23  24
ATOM     24  C   UNL     1       1.477   4.034  -0.196  0.00  0.00    -0.018 A 
ATOM     25  C   UNL     1       0.584   4.768  -1.057  0.00  0.00    +0.005 A 
ATOM     26  C   UNL     1      -0.278   4.384  -2.112  0.00  0.00    +0.033 A 
ATOM     27  C   UNL     1      -1.075   5.327  -2.777  0.00  0.00    +0.037 A 
ATOM     28  C   UNL     1      -0.991   6.668  -2.400  0.00  0.00    +0.025 A 
ATOM     29  C   UNL     1      -0.150   7.084  -1.351  0.00  0.00    +0.028 A 
ATOM     30  C   UNL     1       0.631   6.114  -0.699  0.00  0.00    +0.049 A 
ATOM     31  N   UNL     1       1.530   6.207   0.342  0.00  0.00    -0.349 N 
ATOM     32  C   UNL     1       1.848   7.420   1.061  0.00  0.00    +0.149 C 
ATOM     33  C   UNL     1       2.065   4.977   0.626  0.00  0.00    +0.090 A 
BRANCH  27  34
ATOM     34  N   UNL     1      -1.956   4.972  -3.827  0.00  0.00    -0.251 N 
ATOM     35  H   UNL     1      -2.400   5.704  -4.357  0.00  0.00    +0.158 HD
ATOM     36  C   UNL     1      -2.367   3.698  -4.137  0.00  0.00    +0.405 C 
ATOM     37  O   UNL     1      -2.098   2.673  -3.527  0.00  0.00    -0.226 OA
BRANCH  36  38
ATOM     38  O   UNL     1      -3.181   3.719  -5.236  0.00  0.00    -0.447 OA
BRANCH  38  39
ATOM     39  C   UNL     1      -3.742   2.436  -5.552  0.00  0.00    +0.178 C 
ATOM     40  C   UNL     1      -4.275   2.385  -6.985  0.00  0.00    +0.045 C 
ATOM     41  C   UNL     1      -5.515   1.487  -6.942  0.00  0.00    +0.004 C 
ATOM     42  C   UNL     1      -5.705   1.081  -5.485  0.00  0.00    +0.004 C 
ATOM     43  C   UNL     1      -4.973   2.151  -4.698  0.00  0.00    +0.045 C 
ENDBRANCH  38  39
ENDBRANCH  36  38
ENDBRANCH  27  34
ENDBRANCH  23  24
ENDBRANCH   6  23
TORSDOF 9
