REMARK  Name = 
REMARK  19 active torsions:
REMARK  status: ('A' for Active; 'I' for Inactive)
REMARK    1  A    between atoms: C_1  and  C_2
REMARK    2  A    between atoms: C_5  and  O_6
REMARK    3  A    between atoms: O_6  and  C_7
REMARK    4  A    between atoms: C_9  and  O_10
REMARK    5  A    between atoms: C_11  and  C_58
REMARK    6  A    between atoms: C_12  and  O_13
REMARK    7  A    between atoms: C_18  and  O_19
REMARK    8  A    between atoms: C_20  and  O_21
REMARK    9  A    between atoms: C_24  and  O_25
REMARK   10  A    between atoms: C_27  and  O_28
REMARK   11  A    between atoms: C_30  and  O_31
REMARK   12  A    between atoms: C_36  and  C_37
REMARK   13  A    between atoms: C_38  and  C_39
REMARK   14  A    between atoms: C_40  and  O_41
REMARK   15  A    between atoms: C_42  and  C_43
REMARK   16  A    between atoms: C_58  and  O_59
REMARK   17  A    between atoms: C_61  and  O_63
REMARK   18  A    between atoms: C_64  and  N_66
REMARK   19  A    between atoms: C_67  and  O_69
REMARK                            x       y       z     vdW  Elec       q    Type
REMARK                         _______ _______ _______ _____ _____    ______ ____
ROOT
ATOM      1  C   UNL     1       0.109  -8.901   6.203  0.00  0.00    +0.147 C 
ATOM      2  C   UNL     1      -0.507 -10.450   8.708  0.00  0.00    +0.004 C 
ATOM      3  C   UNL     1      -1.142 -11.767  10.796  0.00  0.00    -0.002 C 
ATOM      4  C   UNL     1      -1.732 -13.255  13.083  0.00  0.00    -0.000 C 
ATOM      5  C   UNL     1      -2.236 -14.434  15.081  0.00  0.00    -0.000 C 
ATOM      6  C   UNL     1      -2.701 -15.875  17.262  0.00  0.00    -0.000 C 
ATOM      7  C   UNL     1      -2.900 -17.060  19.289  0.00  0.00    -0.000 C 
ATOM      8  C   UNL     1      -3.023 -18.304  21.340  0.00  0.00    -0.004 C 
ATOM      9  C   UNL     1      -2.868 -19.856  22.513  0.00  0.00    -0.027 C 
ATOM     10  C   UNL     1      -1.480 -19.492  23.064  0.00  0.00    +0.031 C 
ATOM     11  C   UNL     1      -1.596 -19.893  21.520  0.00  0.00    +0.031 C 
ATOM     12  C   UNL     1      -0.942 -18.898  20.720  0.00  0.00    -0.027 C 
ATOM     13  C   UNL     1      -1.377 -18.945  19.448  0.00  0.00    -0.005 C 
ATOM     14  C   UNL     1      -0.761 -17.822  18.818  0.00  0.00    -0.004 C 
ATOM     15  C   UNL     1      -0.981 -17.598  17.529  0.00  0.00    -0.021 C 
ATOM     16  C   UNL     1      -0.453 -16.232  16.950  0.00  0.00    +0.038 C 
ATOM     17  C   UNL     1      -0.947 -14.644  17.772  0.00  0.00    +0.014 C 
ATOM     18  C   UNL     1      -0.821 -16.324  15.397  0.00  0.00    +0.127 C 
ATOM     19  C   UNL     1      -0.054 -14.970  14.562  0.00  0.00    +0.055 C 
ATOM     20  C   UNL     1      -0.410 -13.090  15.010  0.00  0.00    +0.014 C 
ATOM     21  C   UNL     1      -0.466 -15.342  13.092  0.00  0.00    +0.179 C 
ATOM     22  C   UNL     1      -0.068 -16.701  12.655  0.00  0.00    +0.052 C 
ATOM     23  O   UNL     1       0.306 -14.421  12.315  0.00  0.00    -0.461 OA
ATOM     24  C   UNL     1      -0.016 -14.337  11.005  0.00  0.00    +0.310 C 
ATOM     25  O   UNL     1      -0.866 -15.025  10.462  0.00  0.00    -0.251 OA
ATOM     26  C   UNL     1       0.741 -13.212  10.346  0.00  0.00    +0.152 C 
ATOM     27  C   UNL     1       0.369 -13.226   8.880  0.00  0.00    +0.128 C 
ATOM     28  C   UNL     1       1.143 -12.238   8.056  0.00  0.00    +0.063 C 
ATOM     29  C   UNL     1       0.764 -12.253   6.615  0.00  0.00    +0.119 C 
ATOM     30  C   UNL     1       1.513 -11.188   5.879  0.00  0.00    +0.062 C 
ATOM     31  C   UNL     1       1.176 -11.262   4.419  0.00  0.00    +0.117 C 
ATOM     32  C   UNL     1       1.903 -10.304   3.588  0.00  0.00    +0.034 C 
ATOM     33  C   UNL     1       1.649 -10.437   2.107  0.00  0.00    +0.036 C 
ATOM     34  C   UNL     1       2.438  -9.513   1.303  0.00  0.00    +0.143 C 
ATOM     35  C   UNL     1       2.015  -9.445  -0.095  0.00  0.00    +0.150 C 
ATOM     36  C   UNL     1       2.958  -8.607  -0.764  0.00  0.00    +0.108 C 
ATOM     37  C   UNL     1       2.635  -8.859  -2.201  0.00  0.00    +0.138 C 
ATOM     38  O   UNL     1       1.525  -9.295  -2.628  0.00  0.00    -0.297 OA
ATOM     39  C   UNL     1       3.469  -7.897  -2.870  0.00  0.00    +0.106 C 
ATOM     40  C   UNL     1       2.123  -7.736  -3.558  0.00  0.00    +0.138 C 
ATOM     41  C   UNL     1       1.524  -7.173  -1.552  0.00  0.00    +0.155 C 
ATOM     42  C   UNL     1       1.101  -7.385   0.997  0.00  0.00    +0.133 C 
ATOM     43  C   UNL     1       0.609  -8.081   3.620  0.00  0.00    +0.068 C 
ENDROOT
BRANCH  18  44
ATOM     44  O   UNL     1      -0.470 -17.651  15.007  0.00  0.00    -0.391 OA
ATOM     45  H   UNL     1       0.478 -17.690  15.125  0.00  0.00    +0.210 HD
ENDBRANCH  18  44
BRANCH  27  46
ATOM     46  O   UNL     1       0.809 -14.485   8.409  0.00  0.00    -0.391 OA
ATOM     47  H   UNL     1       1.767 -14.499   8.541  0.00  0.00    +0.210 HD
ENDBRANCH  27  46
BRANCH  29  48
ATOM     48  O   UNL     1       1.213 -13.474   6.127  0.00  0.00    -0.392 OA
ATOM     49  H   UNL     1       2.163 -13.494   6.309  0.00  0.00    +0.210 HD
ENDBRANCH  29  48
BRANCH  31  50
ATOM     50  O   UNL     1       1.627 -12.465   3.887  0.00  0.00    -0.392 OA
ATOM     51  H   UNL     1       2.577 -12.484   4.081  0.00  0.00    +0.210 HD
ENDBRANCH  31  50
BRANCH  34  52
ATOM     52  O   UNL     1       1.632  -8.724   1.966  0.00  0.00    -0.389 OA
ATOM     53  H   UNL     1       0.633  -8.592   1.734  0.00  0.00    +0.210 HD
ENDBRANCH  34  52
BRANCH  35  54
ATOM     54  O   UNL     1       2.458 -10.642  -0.589  0.00  0.00    -0.389 OA
ATOM     55  H   UNL     1       3.413 -10.547  -0.401  0.00  0.00    +0.210 HD
ENDBRANCH  35  54
BRANCH  40  56
ATOM     56  O   UNL     1       2.959  -9.016  -4.627  0.00  0.00    -0.390 OA
ATOM     57  H   UNL     1       3.895  -8.731  -4.923  0.00  0.00    +0.210 HD
ENDBRANCH  40  56
BRANCH  41  58
ATOM     58  C   UNL     1       2.146  -6.774  -3.844  0.00  0.00    +0.313 C 
ATOM     59  O   UNL     1       2.358  -5.963  -5.176  0.00  0.00    -0.251 OA
BRANCH  58  60
ATOM     60  O   UNL     1       2.732  -7.486  -5.622  0.00  0.00    -0.480 OA
ATOM     61  H   UNL     1       3.007  -8.416  -6.587  0.00  0.00    +0.295 HD
ENDBRANCH  58  60
ENDBRANCH  41  58
BRANCH  42  62
ATOM     62  O   UNL     1       2.131  -6.156  -0.322  0.00  0.00    -0.391 OA
ATOM     63  H   UNL     1       2.395  -5.644  -1.605  0.00  0.00    +0.210 HD
ENDBRANCH  42  62
BRANCH   1  64
ATOM     64  O   UNL     1       0.665  -6.864   4.562  0.00  0.00    -0.341 OA
BRANCH  64  70
ATOM     65  C   UNL     1       1.814  -0.007   0.728  0.00  0.00    +0.041 C 
ATOM     66  C   UNL     1       2.899  -1.582   0.918  0.00  0.00    +0.148 C 
ATOM     67  C   UNL     1       3.583  -0.256  -0.554  0.00  0.00    +0.162 C 
ATOM     68  C   UNL     1       2.105  -1.606  -0.594  0.00  0.00    +0.116 C 
ATOM     69  C   UNL     1       1.616  -3.476   0.830  0.00  0.00    +0.189 C 
ATOM     70  C   UNL     1       1.240  -5.089   2.879  0.00  0.00    +0.281 C 
ATOM     71  O   UNL     1       2.376  -3.368   1.953  0.00  0.00    -0.343 OA
BRANCH  68  72
ATOM     72  N   UNL     1       1.638   0.062  -1.768  0.00  0.00    -0.323 NA
ATOM     73  H   UNL     1       1.109   0.735  -2.737  0.00  0.00    +0.119 HD
ATOM     74  H   UNL     1       0.836   0.589  -1.388  0.00  0.00    +0.119 HD
ENDBRANCH  68  72
BRANCH  67  75
ATOM     75  O   UNL     1       5.045   0.055  -1.480  0.00  0.00    -0.388 OA
ATOM     76  H   UNL     1       5.269   0.892  -2.104  0.00  0.00    +0.210 HD
ENDBRANCH  67  75
BRANCH  69  77
ATOM     77  O   UNL     1       1.307  -2.742  -1.116  0.00  0.00    -0.385 OA
ATOM     78  H   UNL     1       1.413  -1.770  -2.149  0.00  0.00    +0.210 HD
ENDBRANCH  69  77
ENDBRANCH  64  70
ENDBRANCH   1  64
TORSDOF 15
