REMARK  Name = 
REMARK  37 active torsions:
REMARK  status: ('A' for Active; 'I' for Inactive)
REMARK    1  A    between atoms: C_1  and  C_2
REMARK    2  A    between atoms: C_2  and  C_3
REMARK    3  A    between atoms: C_2  and  C_4
REMARK    4  A    between atoms: C_4  and  C_5
REMARK    5  A    between atoms: C_5  and  N_6
REMARK    6  A    between atoms: C_5  and  C_72
REMARK    7  A    between atoms: C_7  and  C_9
REMARK    8  A    between atoms: C_9  and  C_10
REMARK    9  A    between atoms: C_9  and  N_21
REMARK   10  A    between atoms: C_10  and  C_11
REMARK   11  A    between atoms: C_22  and  C_24
REMARK   12  A    between atoms: C_24  and  C_25
REMARK   13  A    between atoms: C_24  and  N_33
REMARK   14  A    between atoms: C_25  and  C_26
REMARK   15  A    between atoms: C_29  and  O_30
REMARK   16  A    between atoms: C_34  and  CA_36
REMARK   17  A    between atoms: CA_36  and  C_37
REMARK   18  A    between atoms: CA_36  and  N_39
REMARK   19  A    between atoms: C_37  and  O_38
REMARK   20  A    between atoms: C_40  and  CA_42
REMARK   21  A    between atoms: CA_42  and  CB_43
REMARK   22  A    between atoms: CA_42  and  N_53
REMARK   23  A    between atoms: CB_43  and  CG_44
REMARK   24  A    between atoms: C_54  and  CA_56
REMARK   25  A    between atoms: CA_56  and  CB_57
REMARK   26  A    between atoms: CA_56  and  N_63
REMARK   27  A    between atoms: CB_57  and  CG_58
REMARK   28  A    between atoms: C_64  and  CA_66
REMARK   29  A    between atoms: N_74  and  C_75
REMARK   30  A    between atoms: C_75  and  C_76
REMARK   31  A    between atoms: C_75  and  C_83
REMARK   32  A    between atoms: C_76  and  C_77
REMARK   33  A    between atoms: C_77  and  C_78
REMARK   34  A    between atoms: C_78  and  N_79
REMARK   35  A    between atoms: C_89  and  C_90
REMARK   36  A    between atoms: N_92  and  C_93
REMARK   37  A    between atoms: C_93  and  C_94
REMARK                            x       y       z     vdW  Elec       q    Type
REMARK                         _______ _______ _______ _____ _____    ______ ____
ROOT
ATOM      1  N   UNL     1       5.300   3.946  -0.235  0.00  0.00    -0.302 N 
ATOM      2  H   UNL     1       5.891   4.221  -1.018  0.00  0.00    +0.150 HD
ATOM      3  C   UNL     1       4.097   4.613  -0.068  0.00  0.00    +0.234 C 
ATOM      4  O   UNL     1       3.258   4.241   0.749  0.00  0.00    -0.274 OA
ENDROOT
BRANCH   3   5
ATOM      5  C   UNL     1       3.839   5.741  -1.103  0.00  0.00    +0.163 C 
BRANCH   5   6
ATOM      6  N   UNL     1       4.936   6.712  -1.050  0.00  0.00    -0.302 N 
ATOM      7  H   UNL     1       4.986   7.359  -0.269  0.00  0.00    +0.150 HD
ATOM      8  C   UNL     1       6.025   6.655  -1.893  0.00  0.00    +0.236 C 
ATOM      9  O   UNL     1       6.122   5.805  -2.775  0.00  0.00    -0.274 OA
BRANCH   8  10
ATOM     10  CA  UNL     1       7.024   7.811  -1.727  0.00  0.00    +0.184 C 
BRANCH  10  11
ATOM     11  N   UNL     1       7.392   7.963  -0.311  0.00  0.00    -0.301 N 
ATOM     12  H   UNL     1       7.220   8.884   0.070  0.00  0.00    +0.150 HD
ATOM     13  C   UNL     1       8.300   7.123   0.295  0.00  0.00    +0.234 C 
ATOM     14  O   UNL     1       8.602   6.048  -0.225  0.00  0.00    -0.274 OA
BRANCH  13  15
ATOM     15  CA  UNL     1       8.831   7.495   1.717  0.00  0.00    +0.163 C 
BRANCH  15  16
ATOM     16  N   UNL     1       8.332   6.475   2.663  0.00  0.00    -0.302 N 
ATOM     17  H   UNL     1       8.074   5.581   2.252  0.00  0.00    +0.150 HD
ATOM     18  C   UNL     1       8.675   6.463   4.005  0.00  0.00    +0.234 C 
ATOM     19  O   UNL     1       9.305   7.373   4.542  0.00  0.00    -0.274 OA
BRANCH  18  20
ATOM     20  CA  UNL     1       8.056   5.329   4.831  0.00  0.00    +0.165 C 
BRANCH  20  21
ATOM     21  N   UNL     1       6.727   5.779   5.298  0.00  0.00    -0.302 N 
ATOM     22  H   UNL     1       6.726   6.593   5.900  0.00  0.00    +0.150 HD
ATOM     23  C   UNL     1       5.551   5.391   4.701  0.00  0.00    +0.234 C 
ATOM     24  O   UNL     1       5.526   4.644   3.727  0.00  0.00    -0.274 OA
BRANCH  23  25
ATOM     25  CA  UNL     1       4.255   5.870   5.378  0.00  0.00    +0.159 C 
ATOM     26  N   UNL     1       3.135   5.700   4.482  0.00  0.00    -0.304 N 
ATOM     27  H   UNL     1       3.053   4.943   3.808  0.00  0.00    +0.149 HD
ATOM     28  C   UNL     1       2.311   6.803   4.435  0.00  0.00    +0.214 C 
ATOM     29  O   UNL     1       1.342   6.931   3.702  0.00  0.00    -0.276 OA
ATOM     30  C   UNL     1       2.792   7.783   5.467  0.00  0.00    +0.098 C 
ATOM     31  C   UNL     1       4.243   7.364   5.669  0.00  0.00    +0.041 C 
ENDBRANCH  23  25
ENDBRANCH  20  21
BRANCH  20  32
ATOM     32  CB  UNL     1       8.902   4.939   6.049  0.00  0.00    +0.088 C 
BRANCH  32  33
ATOM     33  CG  UNL     1      10.246   4.382   5.737  0.00  0.00    +0.061 A 
ATOM     34  ND1 UNL     1      10.460   3.028   5.754  0.00  0.00    -0.241 NA
ATOM     35  CE1 UNL     1      11.722   2.856   5.436  0.00  0.00    +0.196 A 
ATOM     36  NE2 UNL     1      12.361   4.050   5.290  0.00  0.00    -0.351 N 
ATOM     37  HE2 UNL     1      13.341   4.175   5.080  0.00  0.00    +0.166 HD
ATOM     38  CD2 UNL     1      11.432   5.034   5.477  0.00  0.00    +0.107 A 
ENDBRANCH  32  33
ENDBRANCH  20  32
ENDBRANCH  18  20
ENDBRANCH  15  16
BRANCH  15  39
ATOM     39  CB  UNL     1       8.517   8.924   2.193  0.00  0.00    +0.069 C 
BRANCH  39  40
ATOM     40  CG  UNL     1       8.977  10.037   1.301  0.00  0.00    -0.020 A 
ATOM     41  CD2 UNL     1      10.268  10.254   0.719  0.00  0.00    +0.003 A 
ATOM     42  CE2 UNL     1      10.164  11.385  -0.095  0.00  0.00    +0.047 A 
ATOM     43  CZ2 UNL     1      11.232  11.882  -0.849  0.00  0.00    +0.026 A 
ATOM     44  CH2 UNL     1      12.464  11.237  -0.733  0.00  0.00    +0.002 A 
ATOM     45  CZ3 UNL     1      12.611  10.121   0.085  0.00  0.00    +0.001 A 
ATOM     46  NE1 UNL     1       8.883  11.865   0.032  0.00  0.00    -0.360 N 
ATOM     47  HE1 UNL     1       8.529  12.688  -0.436  0.00  0.00    +0.165 HD
ATOM     48  CE3 UNL     1      11.522   9.611   0.803  0.00  0.00    +0.010 A 
ATOM     49  CD1 UNL     1       8.188  11.110   0.932  0.00  0.00    +0.087 A 
ENDBRANCH  39  40
ENDBRANCH  15  39
ENDBRANCH  13  15
ENDBRANCH  10  11
BRANCH  10  50
ATOM     50  C   UNL     1       6.395   9.114  -2.254  0.00  0.00    +0.187 C 
BRANCH  50  51
ATOM     51  O   UNL     1       5.339   9.562  -1.394  0.00  0.00    -0.393 OA
ATOM     52  H   UNL     1       4.520   9.151  -1.736  0.00  0.00    +0.209 HD
ENDBRANCH  50  51
ENDBRANCH  10  50
ENDBRANCH   8  10
ENDBRANCH   5   6
BRANCH   5  53
ATOM     53  C   UNL     1       2.461   6.435  -0.952  0.00  0.00    +0.067 C 
BRANCH  53  54
ATOM     54  C   UNL     1       2.202   7.444  -2.065  0.00  0.00    -0.045 A 
ATOM     55  C   UNL     1       1.967   8.798  -1.780  0.00  0.00    +0.007 A 
ATOM     56  C   UNL     1       1.918   9.740  -2.814  0.00  0.00    +0.045 A 
ATOM     57  C   UNL     1       2.091   9.332  -4.131  0.00  0.00    +0.117 A 
ATOM     58  C   UNL     1       2.225   7.985  -4.441  0.00  0.00    +0.045 A 
ATOM     59  C   UNL     1       2.256   7.044  -3.410  0.00  0.00    +0.007 A 
BRANCH  57  60
ATOM     60  O   UNL     1       2.143  10.290  -5.100  0.00  0.00    -0.507 OA
ATOM     61  H   UNL     1       2.362   9.862  -5.945  0.00  0.00    +0.292 HD
ENDBRANCH  57  60
ENDBRANCH  53  54
ENDBRANCH   5  53
ENDBRANCH   3   5
BRANCH   1  62
ATOM     62  C   UNL     1       5.763   2.836   0.635  0.00  0.00    +0.163 C 
BRANCH  62  65
ATOM     63  N   UNL     1       4.100   1.389  -0.530  0.00  0.00    -0.302 N 
ATOM     64  H   UNL     1       3.507   2.212  -0.497  0.00  0.00    +0.150 HD
ATOM     65  C   UNL     1       5.279   1.429   0.174  0.00  0.00    +0.234 C 
ATOM     66  O   UNL     1       5.822   0.379   0.519  0.00  0.00    -0.274 OA
BRANCH  63  67
ATOM     67  C   UNL     1       3.514   0.125  -0.974  0.00  0.00    +0.159 C 
BRANCH  67  68
ATOM     68  C   UNL     1       2.414  -0.332   0.028  0.00  0.00    +0.234 C 
ATOM     69  N   UNL     1       2.824  -1.032   1.147  0.00  0.00    -0.302 N 
ATOM     70  H   UNL     1       3.821  -1.130   1.341  0.00  0.00    +0.150 HD
ATOM     71  O   UNL     1       1.228  -0.028  -0.128  0.00  0.00    -0.274 OA
BRANCH  69  72
ATOM     72  C   UNL     1       1.819  -1.508   2.136  0.00  0.00    +0.159 C 
BRANCH  72  73
ATOM     73  C   UNL     1       2.399  -1.537   3.575  0.00  0.00    +0.237 C 
ATOM     74  N   UNL     1       3.195  -0.477   3.967  0.00  0.00    -0.288 N 
ATOM     75  C   UNL     1       3.942  -0.434   5.248  0.00  0.00    +0.162 C 
ATOM     76  C   UNL     1       4.537   0.988   5.292  0.00  0.00    +0.033 C 
ATOM     77  C   UNL     1       4.397   1.479   3.861  0.00  0.00    +0.021 C 
ATOM     78  C   UNL     1       3.099   0.866   3.423  0.00  0.00    +0.109 C 
ATOM     79  O   UNL     1       2.103  -2.415   4.399  0.00  0.00    -0.274 OA
BRANCH  75  80
ATOM     80  C   UNL     1       5.041  -1.528   5.367  0.00  0.00    +0.234 C 
ATOM     81  N   UNL     1       4.569  -2.802   5.170  0.00  0.00    -0.305 N 
ATOM     82  H   UNL     1       3.552  -2.888   5.205  0.00  0.00    +0.149 HD
ATOM     83  O   UNL     1       6.202  -1.294   5.688  0.00  0.00    -0.274 OA
BRANCH  81  84
ATOM     84  C   UNL     1       5.290  -4.050   5.356  0.00  0.00    +0.199 C 
BRANCH  84  85
ATOM     85  C   UNL     1       6.563  -4.302   4.533  0.00  0.00    +0.228 C 
ATOM     86  O   UNL     1       6.842  -5.408   4.081  0.00  0.00    -0.274 OA
ATOM     87  N   UNL     1       7.471  -3.294   4.466  0.00  0.00    -0.328 N 
ATOM     88  H   UNL     1       8.334  -3.432   3.963  0.00  0.00    +0.145 HD
ATOM     89  H   UNL     1       7.288  -2.371   4.857  0.00  0.00    +0.145 HD
ENDBRANCH  84  85
ENDBRANCH  81  84
ENDBRANCH  75  80
ENDBRANCH  72  73
BRANCH  72  90
ATOM     90  C   UNL     1       1.284  -2.862   1.634  0.00  0.00    +0.035 C 
BRANCH  90  91
ATOM     91  C   UNL     1       0.138  -3.534   2.407  0.00  0.00    +0.039 C 
BRANCH  91  92
ATOM     92  C   UNL     1      -0.249  -4.826   1.677  0.00  0.00    +0.196 C 
BRANCH  92  93
ATOM     93  N   UNL     1      -1.240  -5.598   2.405  0.00  0.00    -0.276 N 
ATOM     94  H   UNL     1      -1.913  -5.039   2.916  0.00  0.00    +0.258 HD
ATOM     95  C   UNL     1      -1.789  -6.727   1.902  0.00  0.00    +0.376 C 
ATOM     96  N   UNL     1      -1.448  -7.389   0.859  0.00  0.00    -0.130 NA
ATOM     97  H   UNL     1      -0.658  -6.932   0.405  0.00  0.00    +0.306 HD
ATOM     98  N   UNL     1      -2.808  -7.181   2.653  0.00  0.00    -0.289 N 
ATOM     99  H   UNL     1      -3.088  -8.090   2.293  0.00  0.00    +0.255 HD
ATOM    100  H   UNL     1      -2.554  -7.266   3.628  0.00  0.00    +0.255 HD
ENDBRANCH  92  93
ENDBRANCH  91  92
ENDBRANCH  90  91
ENDBRANCH  72  90
ENDBRANCH  69  72
ENDBRANCH  67  68
BRANCH  67 101
ATOM    101  C   UNL     1       2.849   0.291  -2.354  0.00  0.00    +0.034 C 
BRANCH 101 103
ATOM    102  C   UNL     1       4.891  -0.076  -3.861  0.00  0.00    +0.007 C 
ATOM    103  C   UNL     1       3.719   0.835  -3.502  0.00  0.00    -0.015 C 
ATOM    104  C   UNL     1       2.831   1.039  -4.737  0.00  0.00    +0.007 C 
ENDBRANCH 101 103
ENDBRANCH  67 101
ENDBRANCH  63  67
ENDBRANCH  62  65
BRANCH  62 105
ATOM    105  C   UNL     1       7.309   2.858   0.753  0.00  0.00    +0.067 C 
BRANCH 105 106
ATOM    106  C   UNL     1       7.940   1.987   1.822  0.00  0.00    -0.045 A 
ATOM    107  C   UNL     1       7.644   2.229   3.157  0.00  0.00    +0.004 A 
ATOM    108  C   UNL     1       8.287   1.564   4.195  0.00  0.00    +0.009 A 
ATOM    109  C   UNL     1       9.198   0.554   3.922  0.00  0.00    -0.018 A 
ATOM    110  C   UNL     1       9.441   0.192   2.580  0.00  0.00    -0.018 A 
ATOM    111  C   UNL     1      10.273  -0.916   2.346  0.00  0.00    +0.008 A 
ATOM    112  C   UNL     1      10.853  -1.623   3.407  0.00  0.00    +0.001 A 
ATOM    113  C   UNL     1      10.668  -1.199   4.720  0.00  0.00    +0.001 A 
ATOM    114  C   UNL     1       9.845  -0.110   4.974  0.00  0.00    +0.008 A 
ATOM    115  C   UNL     1       8.838   0.948   1.541  0.00  0.00    +0.012 A 
ENDBRANCH 105 106
ENDBRANCH  62 105
ENDBRANCH   1  62
TORSDOF 35
