REMARK  Name = 
REMARK  1 active torsions:
REMARK  status: ('A' for Active; 'I' for Inactive)
REMARK    1  A    between atoms: N_1  and  C_2
REMARK                            x       y       z     vdW  Elec       q    Type
REMARK                         _______ _______ _______ _____ _____    ______ ____
ROOT
ATOM      1  C   UNL     1       2.390  -0.006   0.040  0.00  0.00    +0.286 A 
ATOM      2  N   UNL     1       3.113  -1.202   0.064  0.00  0.00    -0.120 N 
ATOM      3  O   UNL     1       2.483  -2.329   0.129  0.00  0.00    -0.616 OA
ATOM      4  C   UNL     1       4.510  -1.144   0.013  0.00  0.00    +0.386 A 
ATOM      5  N   UNL     1       5.261  -2.326   0.025  0.00  0.00    -0.287 N 
ATOM      6  H   UNL     1       4.671  -3.096   0.342  0.00  0.00    +0.149 HD
ATOM      7  H   UNL     1       6.157  -2.195   0.473  0.00  0.00    +0.149 HD
ATOM      8  N   UNL     1       5.161   0.045  -0.052  0.00  0.00    -0.156 NA
ATOM      9  C   UNL     1       4.458   1.196  -0.079  0.00  0.00    +0.137 A 
ATOM     10  N   UNL     1       5.114   2.399  -0.316  0.00  0.00    -0.315 N 
ATOM     11  C   UNL     1       4.988   3.458   0.688  0.00  0.00    +0.106 C 
ATOM     12  C   UNL     1       5.190   4.802  -0.018  0.00  0.00    +0.019 C 
ATOM     13  C   UNL     1       6.501   4.839  -0.808  0.00  0.00    +0.003 C 
ATOM     14  C   UNL     1       6.661   3.614  -1.709  0.00  0.00    +0.019 C 
ATOM     15  C   UNL     1       6.440   2.315  -0.931  0.00  0.00    +0.106 C 
ATOM     16  C   UNL     1       3.073   1.201  -0.011  0.00  0.00    +0.141 A 
ENDROOT
BRANCH   1  17
ATOM     17  N   UNL     1       0.973  -0.039   0.077  0.00  0.00    -0.304 N 
ATOM     18  H   UNL     1       0.715  -1.036   0.069  0.00  0.00    +0.148 HD
ATOM     19  H   UNL     1       0.559   0.450  -0.712  0.00  0.00    +0.148 HD
ENDBRANCH   1  17
TORSDOF 1
