REMARK  Name = 
REMARK  11 active torsions:
REMARK  status: ('A' for Active; 'I' for Inactive)
REMARK    1  A    between atoms: C_1  and  O_2
REMARK    2  A    between atoms: O_2  and  C_3
REMARK    3  A    between atoms: C_3  and  C_5
REMARK    4  A    between atoms: C_5  and  C_7
REMARK    5  A    between atoms: C_5  and  N_14
REMARK    6  A    between atoms: C_7  and  C_8
REMARK    7  A    between atoms: C_15  and  C_17
REMARK    8  A    between atoms: C_17  and  N_19
REMARK    9  A    between atoms: C_17  and  C_20
REMARK   10  A    between atoms: C_20  and  C_21
REMARK   11  A    between atoms: C_21  and  O_22
REMARK                            x       y       z     vdW  Elec       q    Type
REMARK                         _______ _______ _______ _____ _____    ______ ____
ROOT
ATOM      1  N   UNL     1       5.191   2.698   0.242  0.00  0.00    -0.301 N 
ATOM      2  H   UNL     1       6.164   2.869  -0.002  0.00  0.00    +0.150 HD
ATOM      3  C   UNL     1       4.594   3.692   0.982  0.00  0.00    +0.231 C 
ATOM      4  O   UNL     1       3.532   3.538   1.571  0.00  0.00    -0.274 OA
ENDROOT
BRANCH   1   5
ATOM      5  C   UNL     1       4.647   1.337   0.213  0.00  0.00    +0.186 C 
BRANCH   5   6
ATOM      6  C   UNL     1       4.977   0.486   1.453  0.00  0.00    +0.328 C 
ATOM      7  O   UNL     1       4.566  -0.658   1.607  0.00  0.00    -0.249 OA
BRANCH   6   9
ATOM      8  C   UNL     1       6.007   0.413   3.550  0.00  0.00    +0.280 C 
ATOM      9  O   UNL     1       5.785   1.137   2.337  0.00  0.00    -0.467 OA
ENDBRANCH   6   9
ENDBRANCH   5   6
BRANCH   5  10
ATOM     10  C   UNL     1       5.133   0.578  -1.034  0.00  0.00    +0.069 C 
BRANCH  10  11
ATOM     11  C   UNL     1       4.725   1.236  -2.335  0.00  0.00    -0.045 A 
ATOM     12  C   UNL     1       3.371   1.421  -2.649  0.00  0.00    +0.004 A 
ATOM     13  C   UNL     1       2.997   2.031  -3.847  0.00  0.00    +0.000 A 
ATOM     14  C   UNL     1       3.972   2.449  -4.750  0.00  0.00    +0.000 A 
ATOM     15  C   UNL     1       5.321   2.254  -4.457  0.00  0.00    +0.000 A 
ATOM     16  C   UNL     1       5.697   1.650  -3.256  0.00  0.00    +0.004 A 
ENDBRANCH  10  11
ENDBRANCH   5  10
ENDBRANCH   1   5
BRANCH   3  17
ATOM     17  C   UNL     1       5.322   5.049   0.903  0.00  0.00    +0.148 C 
BRANCH  17  18
ATOM     18  N   UNL     1       6.790   4.805   0.806  0.00  0.00    -0.320 NA
ATOM     19  H   UNL     1       7.262   5.707   0.717  0.00  0.00    +0.119 HD
ATOM     20  H   UNL     1       7.104   4.429   1.705  0.00  0.00    +0.119 HD
ENDBRANCH  17  18
BRANCH  17  21
ATOM     21  C   UNL     1       4.858   5.811  -0.332  0.00  0.00    +0.148 C 
BRANCH  21  22
ATOM     22  C   UNL     1       3.402   6.178  -0.225  0.00  0.00    +0.307 C 
ATOM     23  O   UNL     1       3.001   7.151   0.395  0.00  0.00    -0.251 OA
BRANCH  22  24
ATOM     24  O   UNL     1       2.574   5.344  -0.891  0.00  0.00    -0.481 OA
ATOM     25  H   UNL     1       3.006   4.563  -1.291  0.00  0.00    +0.295 HD
ENDBRANCH  22  24
ENDBRANCH  21  22
ENDBRANCH  17  21
ENDBRANCH   3  17
TORSDOF 10
