REMARK  Name = 
REMARK  37 active torsions:
REMARK  status: ('A' for Active; 'I' for Inactive)
REMARK    1  A    between atoms: C_1  and  C_2
REMARK    2  A    between atoms: C_2  and  C_3
REMARK    3  A    between atoms: C_3  and  C_4
REMARK    4  A    between atoms: C_3  and  C_5
REMARK    5  A    between atoms: C_5  and  C_6
REMARK    6  A    between atoms: C_6  and  C_7
REMARK    7  A    between atoms: C_6  and  C_8
REMARK    8  A    between atoms: C_8  and  C_9
REMARK    9  A    between atoms: C_9  and  C_10
REMARK   10  A    between atoms: C_10  and  C_11
REMARK   11  A    between atoms: C_11  and  C_12
REMARK   12  A    between atoms: C_12  and  C_13
REMARK   13  A    between atoms: C_13  and  C_14
REMARK   14  A    between atoms: C_14  and  C_15
REMARK   15  A    between atoms: C_15  and  C_16
REMARK   16  A    between atoms: N_18  and  C_19
REMARK   17  A    between atoms: C_22  and  O_24
REMARK   18  A    between atoms: C_25  and  N_27
REMARK   19  A    between atoms: N_27  and  C_28
REMARK   20  A    between atoms: C_28  and  C_29
REMARK   21  A    between atoms: C_29  and  N_30
REMARK   22  A    between atoms: C_36  and  O_38
REMARK   23  A    between atoms: C_44  and  C_86
REMARK   24  A    between atoms: C_49  and  C_73
REMARK   25  A    between atoms: C_57  and  O_59
REMARK   26  A    between atoms: C_64  and  C_69
REMARK   27  A    between atoms: C_69  and  C_71
REMARK   28  A    between atoms: C_69  and  O_72
REMARK   29  A    between atoms: C_73  and  O_75
REMARK   30  A    between atoms: C_73  and  C_76
REMARK   31  A    between atoms: C_76  and  O_78
REMARK   32  A    between atoms: C_76  and  C_79
REMARK   33  A    between atoms: C_82  and  O_83
REMARK   34  A    between atoms: C_86  and  O_88
REMARK   35  A    between atoms: C_86  and  C_89
REMARK   36  A    between atoms: C_89  and  C_90
REMARK   37  A    between atoms: C_90  and  N_91
REMARK                            x       y       z     vdW  Elec       q    Type
REMARK                         _______ _______ _______ _____ _____    ______ ____
ROOT
ATOM      1  C   UNL     1      14.221  11.417   1.106  0.00  0.00    +0.161 C 
ATOM      2  C   UNL     1      12.875  11.926   1.839  0.00  0.00    +0.234 C 
ATOM      3  O   UNL     1      11.839  11.851   1.173  0.00  0.00    -0.274 OA
ATOM      4  N   UNL     1      12.814  11.999   3.223  0.00  0.00    -0.300 N 
ATOM      5  H   UNL     1      12.920  11.042   3.563  0.00  0.00    +0.150 HD
ATOM      6  C   UNL     1      12.130  12.838   4.340  0.00  0.00    +0.187 C 
ATOM      7  C   UNL     1      10.627  13.008   4.573  0.00  0.00    +0.239 C 
ATOM      8  O   UNL     1      10.153  13.782   5.411  0.00  0.00    -0.273 OA
ATOM      9  N   UNL     1       9.818  12.102   3.943  0.00  0.00    -0.286 N 
ATOM     10  C   UNL     1       9.729  10.677   4.316  0.00  0.00    +0.164 C 
ATOM     11  C   UNL     1       9.604   9.970   2.967  0.00  0.00    +0.065 C 
ATOM     12  C   UNL     1       9.040  11.012   2.003  0.00  0.00    +0.134 C 
ATOM     13  C   UNL     1      10.916  10.053   5.132  0.00  0.00    +0.234 C 
ATOM     14  O   UNL     1      11.636   9.162   4.712  0.00  0.00    -0.274 OA
ATOM     15  N   UNL     1      11.189  10.667   6.302  0.00  0.00    -0.300 N 
ATOM     16  H   UNL     1      10.475  11.268   6.710  0.00  0.00    +0.150 HD
ATOM     17  C   UNL     1      12.284  10.341   7.211  0.00  0.00    +0.190 C 
ATOM     18  C   UNL     1      13.776  10.011   6.881  0.00  0.00    +0.237 C 
ATOM     19  O   UNL     1      14.520  10.266   7.819  0.00  0.00    -0.274 OA
ATOM     20  N   UNL     1      14.361   9.440   5.745  0.00  0.00    -0.300 N 
ATOM     21  H   UNL     1      13.652   9.076   5.065  0.00  0.00    +0.150 HD
ATOM     22  C   UNL     1      15.674   8.637   5.841  0.00  0.00    +0.188 C 
ATOM     23  C   UNL     1      16.247   8.582   7.250  0.00  0.00    +0.239 C 
ATOM     24  O   UNL     1      15.989   7.570   7.916  0.00  0.00    -0.273 OA
ATOM     25  N   UNL     1      17.146   9.571   7.677  0.00  0.00    -0.286 N 
ATOM     26  C   UNL     1      17.026  11.107   7.674  0.00  0.00    +0.190 C 
ATOM     27  C   UNL     1      18.061  11.512   8.769  0.00  0.00    +0.145 C 
ATOM     28  C   UNL     1      18.127  10.312   9.701  0.00  0.00    +0.052 C 
ATOM     29  C   UNL     1      17.229  12.038   6.397  0.00  0.00    +0.237 C 
ATOM     30  O   UNL     1      18.191  12.794   6.292  0.00  0.00    -0.274 OA
ATOM     31  N   UNL     1      16.262  12.017   5.406  0.00  0.00    -0.296 N 
ATOM     32  H   UNL     1      15.544  11.303   5.495  0.00  0.00    +0.150 HD
ATOM     33  C   UNL     1      16.550  12.461   4.020  0.00  0.00    +0.170 C 
ATOM     34  C   UNL     1      15.695  11.550   3.085  0.00  0.00    +0.151 C 
ATOM     35  C   UNL     1      17.973   9.133   8.789  0.00  0.00    +0.111 C 
ATOM     36  C   UNL     1       9.470  12.358   2.562  0.00  0.00    +0.140 C 
ATOM     37  C   UNL     1      15.619  11.829   1.608  0.00  0.00    +0.066 C 
ENDROOT
BRANCH   1  39
ATOM     38  C   UNL     1      14.364  12.911  -0.877  0.00  0.00    +0.214 C 
ATOM     39  N   UNL     1      14.154  11.662  -0.339  0.00  0.00    -0.304 N 
ATOM     40  H   UNL     1      13.688  10.963  -0.902  0.00  0.00    +0.149 HD
ATOM     41  O   UNL     1      14.572  13.912  -0.197  0.00  0.00    -0.276 OA
BRANCH  38  42
ATOM     42  C   UNL     1      14.415  12.959  -2.385  0.00  0.00    +0.096 C 
BRANCH  42  43
ATOM     43  C   UNL     1      13.139  12.430  -3.016  0.00  0.00    +0.009 C 
BRANCH  43  44
ATOM     44  C   UNL     1      13.139  12.677  -4.514  0.00  0.00    +0.000 C 
BRANCH  44  45
ATOM     45  C   UNL     1      11.851  12.153  -5.137  0.00  0.00    +0.000 C 
BRANCH  45  46
ATOM     46  C   UNL     1      11.877  12.408  -6.632  0.00  0.00    +0.000 C 
BRANCH  46  47
ATOM     47  C   UNL     1      10.611  11.915  -7.325  0.00  0.00    +0.000 C 
BRANCH  47  48
ATOM     48  C   UNL     1      10.727  12.265  -8.802  0.00  0.00    +0.000 C 
BRANCH  48  49
ATOM     49  C   UNL     1       9.505  11.868  -9.622  0.00  0.00    +0.003 C 
BRANCH  49  50
ATOM     50  C   UNL     1       9.697  12.190 -11.121  0.00  0.00    -0.014 C 
ATOM     51  C   UNL     1       9.977  13.678 -11.370  0.00  0.00    +0.007 C 
BRANCH  50  52
ATOM     52  C   UNL     1       8.455  11.721 -11.911  0.00  0.00    +0.006 C 
BRANCH  52  53
ATOM     53  C   UNL     1       8.559  11.883 -13.443  0.00  0.00    -0.014 C 
ATOM     54  C   UNL     1       7.224  11.518 -14.101  0.00  0.00    +0.007 C 
BRANCH  53  56
ATOM     55  C   UNL     1       9.630   9.583 -13.906  0.00  0.00    +0.004 C 
ATOM     56  C   UNL     1       9.725  11.093 -14.070  0.00  0.00    -0.000 C 
ENDBRANCH  53  56
ENDBRANCH  52  53
ENDBRANCH  50  52
ENDBRANCH  49  50
ENDBRANCH  48  49
ENDBRANCH  47  48
ENDBRANCH  46  47
ENDBRANCH  45  46
ENDBRANCH  44  45
ENDBRANCH  43  44
ENDBRANCH  42  43
ENDBRANCH  38  42
ENDBRANCH   1  39
BRANCH  34  57
ATOM     57  O   UNL     1      15.610  10.169   3.238  0.00  0.00    -0.389 OA
ATOM     58  H   UNL     1      16.399   9.754   2.822  0.00  0.00    +0.210 HD
ENDBRANCH  34  57
BRANCH  33  59
ATOM     59  N   UNL     1      16.024  13.775   3.628  0.00  0.00    -0.295 NA
ATOM     60  H   UNL     1      15.087  13.666   3.237  0.00  0.00    +0.124 HD
BRANCH  59  61
ATOM     61  C   UNL     1      15.951  14.987   4.403  0.00  0.00    +0.097 C 
BRANCH  61  62
ATOM     62  C   UNL     1      17.100  15.981   4.475  0.00  0.00    +0.093 C 
BRANCH  62  63
ATOM     63  N   UNL     1      17.438  16.569   3.180  0.00  0.00    -0.329 NA
ATOM     64  H   UNL     1      18.258  17.161   3.294  0.00  0.00    +0.118 HD
ATOM     65  H   UNL     1      17.683  15.826   2.528  0.00  0.00    +0.118 HD
ENDBRANCH  62  63
ENDBRANCH  61  62
ENDBRANCH  59  61
ENDBRANCH  33  59
BRANCH  27  66
ATOM     66  O   UNL     1      17.624  12.630   9.541  0.00  0.00    -0.389 OA
ATOM     67  H   UNL     1      18.174  12.669  10.343  0.00  0.00    +0.210 HD
ENDBRANCH  27  66
BRANCH  12  68
ATOM     68  O   UNL     1       7.617  10.908   2.009  0.00  0.00    -0.390 OA
ATOM     69  H   UNL     1       7.305  11.216   2.878  0.00  0.00    +0.210 HD
ENDBRANCH  12  68
BRANCH   6  70
ATOM     70  C   UNL     1      12.912  13.927   5.156  0.00  0.00    +0.141 C 
ATOM     71  C   UNL     1      12.585  15.383   4.864  0.00  0.00    +0.040 C 
BRANCH  70  72
ATOM     72  O   UNL     1      12.668  13.710   6.570  0.00  0.00    -0.390 OA
ATOM     73  H   UNL     1      11.777  14.074   6.765  0.00  0.00    +0.210 HD
ENDBRANCH  70  72
ENDBRANCH   6  70
BRANCH  22  74
ATOM     74  C   UNL     1      17.019   8.709   4.896  0.00  0.00    +0.145 C 
BRANCH  74  75
ATOM     75  O   UNL     1      16.826   8.361   3.508  0.00  0.00    -0.389 OA
ATOM     76  H   UNL     1      16.057   7.775   3.451  0.00  0.00    +0.210 HD
ENDBRANCH  74  75
BRANCH  74  77
ATOM     77  C   UNL     1      18.135   7.682   5.254  0.00  0.00    +0.048 C 
BRANCH  77  78
ATOM     78  C   UNL     1      19.435   7.901   4.447  0.00  0.00    +0.080 C 
BRANCH  78  79
ATOM     79  N   UNL     1      20.318   6.747   4.602  0.00  0.00    -0.330 NA
ATOM     80  H   UNL     1      21.207   6.926   4.136  0.00  0.00    +0.118 HD
ATOM     81  H   UNL     1      20.527   6.588   5.585  0.00  0.00    +0.118 HD
ENDBRANCH  78  79
ENDBRANCH  77  78
ENDBRANCH  74  77
ENDBRANCH  22  74
BRANCH  17  82
ATOM     82  C   UNL     1      11.792   9.533   8.463  0.00  0.00    +0.176 C 
BRANCH  82  83
ATOM     83  O   UNL     1      10.442   9.994   8.759  0.00  0.00    -0.387 OA
ATOM     84  H   UNL     1      10.536  10.626   9.502  0.00  0.00    +0.210 HD
ENDBRANCH  82  83
BRANCH  82  85
ATOM     85  C   UNL     1      12.681   9.750   9.738  0.00  0.00    +0.175 C 
BRANCH  85  86
ATOM     86  C   UNL     1      12.259   8.923  10.934  0.00  0.00    -0.016 A 
ATOM     87  C   UNL     1      11.383   9.410  11.915  0.00  0.00    +0.010 A 
ATOM     88  C   UNL     1      11.014   8.606  12.993  0.00  0.00    +0.046 A 
ATOM     89  C   UNL     1      11.523   7.318  13.096  0.00  0.00    +0.117 A 
ATOM     90  C   UNL     1      12.428   6.829  12.161  0.00  0.00    +0.046 A 
ATOM     91  C   UNL     1      12.795   7.631  11.082  0.00  0.00    +0.010 A 
BRANCH  89  92
ATOM     92  O   UNL     1      11.100   6.546  14.136  0.00  0.00    -0.507 OA
ATOM     93  H   UNL     1      11.373   5.631  13.962  0.00  0.00    +0.292 HD
ENDBRANCH  89  92
ENDBRANCH  85  86
BRANCH  85  94
ATOM     94  O   UNL     1      12.654  11.139  10.090  0.00  0.00    -0.385 OA
ATOM     95  H   UNL     1      13.460  11.531   9.698  0.00  0.00    +0.210 HD
ENDBRANCH  85  94
ENDBRANCH  82  85
ENDBRANCH  17  82
TORSDOF 33
