REMARK  Name = 
REMARK  13 active torsions:
REMARK  status: ('A' for Active; 'I' for Inactive)
REMARK    1  A    between atoms: C_5  and  C_6
REMARK    2  A    between atoms: C_7  and  C_26
REMARK    3  A    between atoms: C_14  and  C_15
REMARK    4  A    between atoms: C_18  and  O_20
REMARK    5  A    between atoms: C_22  and  O_24
REMARK    6  A    between atoms: C_26  and  C_28
REMARK    7  A    between atoms: C_26  and  C_29
REMARK    8  A    between atoms: C_30  and  C_31
REMARK    9  A    between atoms: C_31  and  C_33
REMARK   10  A    between atoms: C_31  and  C_34
REMARK   11  A    between atoms: C_34  and  O_35
REMARK   12  A    between atoms: C_34  and  C_36
REMARK   13  A    between atoms: C_34  and  C_37
REMARK                            x       y       z     vdW  Elec       q    Type
REMARK                         _______ _______ _______ _____ _____    ______ ____
ROOT
ATOM      1  C   UNL     1      -0.000  -0.000   0.000  0.00  0.00    +0.031 C 
ATOM      2  C   UNL     1      -0.000  -0.000  -0.000  0.00  0.00    -0.066 C 
ATOM      3  C   UNL     1      -0.000  -0.000  -0.000  0.00  0.00    -0.001 C 
ATOM      4  C   UNL     1      -0.000  -0.000  -0.000  0.00  0.00    +0.021 C 
ATOM      5  C   UNL     1      -0.000  -0.000  -0.000  0.00  0.00    -0.022 C 
ATOM      6  C   UNL     1      -0.000  -0.000   0.000  0.00  0.00    +0.002 C 
ATOM      7  C   UNL     1      -0.000  -0.000  -0.000  0.00  0.00    +0.005 C 
ATOM      8  C   UNL     1      -0.000  -0.000  -0.000  0.00  0.00    +0.012 C 
ATOM      9  C   UNL     1      -0.000  -0.000  -0.000  0.00  0.00    +0.008 C 
ATOM     10  C   UNL     1      -0.000  -0.000  -0.000  0.00  0.00    +0.009 C 
ATOM     11  C   UNL     1      -0.000  -0.000   0.000  0.00  0.00    +0.005 C 
ENDROOT
BRANCH   3  12
ATOM     12  C   UNL     1      -0.000  -0.000  -0.000  0.00  0.00    -0.001 C 
ATOM     13  C   UNL     1      -0.000  -0.000  -0.000  0.00  0.00    -0.065 C 
ATOM     14  C   UNL     1      -0.000  -0.000   0.000  0.00  0.00    +0.062 C 
ATOM     15  C   UNL     1      -0.000  -0.000  -0.000  0.00  0.00    +0.121 C 
ATOM     16  C   UNL     1      -0.000  -0.000   0.000  0.00  0.00    +0.063 C 
ATOM     17  C   UNL     1      -0.000  -0.000  -0.000  0.00  0.00    +0.121 C 
ATOM     18  C   UNL     1      -0.000  -0.000  -0.000  0.00  0.00    +0.062 C 
BRANCH  15  19
ATOM     19  O   UNL     1      -0.000  -0.000   0.000  0.00  0.00    -0.391 OA
ATOM     20  H   UNL     1      -0.000  -0.000   0.000  0.00  0.00    +0.210 HD
ENDBRANCH  15  19
BRANCH  17  21
ATOM     21  O   UNL     1      -0.000  -0.000  -0.000  0.00  0.00    -0.391 OA
ATOM     22  H   UNL     1      -0.000  -0.000   0.000  0.00  0.00    +0.210 HD
ENDBRANCH  17  21
ENDBRANCH   3  12
BRANCH   6  23
ATOM     23  C   UNL     1      -0.000  -0.000   0.000  0.00  0.00    +0.012 C 
ATOM     24  C   UNL     1      -0.000  -0.000   0.000  0.00  0.00    +0.012 C 
BRANCH  23  25
ATOM     25  C   UNL     1      -0.000  -0.000   0.000  0.00  0.00    -0.027 C 
ATOM     26  C   UNL     1      -0.000  -0.000   0.000  0.00  0.00    -0.025 C 
BRANCH  26  27
ATOM     27  C   UNL     1      -0.000  -0.000   0.000  0.00  0.00    +0.039 C 
ATOM     28  C   UNL     1      -0.000  -0.000   0.000  0.00  0.00    +0.015 C 
BRANCH  27  29
ATOM     29  C   UNL     1      -0.000  -0.000   0.000  0.00  0.00    +0.066 C 
ATOM     30  C   UNL     1      -0.000  -0.000   0.000  0.00  0.00    +0.041 C 
ATOM     31  C   UNL     1      -0.000  -0.000   0.000  0.00  0.00    +0.041 C 
BRANCH  29  32
ATOM     32  O   UNL     1      -0.000  -0.000   0.000  0.00  0.00    -0.389 OA
ATOM     33  H   UNL     1      -0.000  -0.000   0.000  0.00  0.00    +0.210 HD
ENDBRANCH  29  32
ENDBRANCH  27  29
ENDBRANCH  26  27
ENDBRANCH  23  25
ENDBRANCH   6  23
TORSDOF 8
