REMARK  Name = 
REMARK  7 active torsions:
REMARK  status: ('A' for Active; 'I' for Inactive)
REMARK    1  A    between atoms: C_1  and  C_2
REMARK    2  A    between atoms: C_3  and  C_4
REMARK    3  A    between atoms: C_3  and  C_14
REMARK    4  A    between atoms: C_4  and  C_7
REMARK    5  A    between atoms: C_5  and  C_6
REMARK    6  A    between atoms: C_10  and  O_11
REMARK    7  A    between atoms: C_17  and  O_18
REMARK                            x       y       z     vdW  Elec       q    Type
REMARK                         _______ _______ _______ _____ _____    ______ ____
ROOT
ATOM      1  C   UNL     1       1.318  -0.313  -0.205  0.00  0.00    +0.036 C 
ATOM      2  C   UNL     1       2.745   0.043   0.060  0.00  0.00    -0.021 C 
ATOM      3  C   UNL     1       3.341   1.260   0.050  0.00  0.00    -0.015 C 
ENDROOT
BRANCH   3   4
ATOM      4  C   UNL     1       4.816   1.139   0.183  0.00  0.00    -0.017 A 
ATOM      5  C   UNL     1       5.409   1.040   1.451  0.00  0.00    +0.012 A 
ATOM      6  C   UNL     1       6.738   0.616   1.584  0.00  0.00    +0.046 A 
ATOM      7  C   UNL     1       7.470   0.280   0.446  0.00  0.00    +0.117 A 
ATOM      8  C   UNL     1       6.920   0.424  -0.820  0.00  0.00    +0.046 A 
ATOM      9  C   UNL     1       5.597   0.856  -0.950  0.00  0.00    +0.012 A 
BRANCH   7  10
ATOM     10  O   UNL     1       8.720  -0.236   0.617  0.00  0.00    -0.507 OA
ATOM     11  H   UNL     1       8.990  -0.658  -0.216  0.00  0.00    +0.292 HD
ENDBRANCH   7  10
ENDBRANCH   3   4
BRANCH   3  12
ATOM     12  C   UNL     1       2.606   2.526  -0.157  0.00  0.00    -0.015 C 
ATOM     13  C   UNL     1       1.621   2.931   0.681  0.00  0.00    -0.021 C 
ATOM     14  C   UNL     1       1.204   2.405   2.015  0.00  0.00    +0.036 C 
BRANCH  12  15
ATOM     15  C   UNL     1       2.819   3.426  -1.338  0.00  0.00    -0.017 A 
ATOM     16  C   UNL     1       3.063   2.915  -2.620  0.00  0.00    +0.012 A 
ATOM     17  C   UNL     1       3.115   3.767  -3.733  0.00  0.00    +0.046 A 
ATOM     18  C   UNL     1       2.885   5.127  -3.578  0.00  0.00    +0.117 A 
ATOM     19  C   UNL     1       2.695   5.673  -2.318  0.00  0.00    +0.046 A 
ATOM     20  C   UNL     1       2.698   4.828  -1.207  0.00  0.00    +0.012 A 
BRANCH  18  21
ATOM     21  O   UNL     1       2.819   5.902  -4.697  0.00  0.00    -0.507 OA
ATOM     22  H   UNL     1       2.392   6.741  -4.458  0.00  0.00    +0.292 HD
ENDBRANCH  18  21
ENDBRANCH  12  15
ENDBRANCH   3  12
TORSDOF 5
