REMARK  Name = 
REMARK  40 active torsions:
REMARK  status: ('A' for Active; 'I' for Inactive)
REMARK    1  A    between atoms: C_1  and  C_2
REMARK    2  A    between atoms: C_2  and  C_3
REMARK    3  A    between atoms: C_2  and  C_4
REMARK    4  A    between atoms: C_4  and  C_5
REMARK    5  A    between atoms: C_5  and  N_7
REMARK    6  A    between atoms: C_5  and  C_74
REMARK    7  A    between atoms: C_8  and  C_10
REMARK    8  A    between atoms: C_10  and  C_12
REMARK    9  A    between atoms: C_10  and  N_18
REMARK   10  A    between atoms: C_12  and  O_13
REMARK   11  A    between atoms: O_13  and  C_14
REMARK   12  A    between atoms: C_14  and  C_15
REMARK   13  A    between atoms: C_14  and  C_16
REMARK   14  A    between atoms: C_14  and  C_17
REMARK   15  A    between atoms: C_19  and  C_21
REMARK   16  A    between atoms: C_21  and  C_23
REMARK   17  A    between atoms: C_21  and  N_31
REMARK   18  A    between atoms: C_23  and  C_24
REMARK   19  A    between atoms: C_27  and  O_28
REMARK   20  A    between atoms: C_32  and  CA_34
REMARK   21  A    between atoms: CA_34  and  C_36
REMARK   22  A    between atoms: CA_34  and  N_38
REMARK   23  A    between atoms: C_36  and  O_37
REMARK   24  A    between atoms: C_39  and  CA_41
REMARK   25  A    between atoms: CA_41  and  CB_43
REMARK   26  A    between atoms: CA_41  and  N_53
REMARK   27  A    between atoms: CB_43  and  CG_44
REMARK   28  A    between atoms: C_54  and  CA_56
REMARK   29  A    between atoms: CA_56  and  CB_58
REMARK   30  A    between atoms: CA_56  and  N_64
REMARK   31  A    between atoms: CB_58  and  CG_59
REMARK   32  A    between atoms: C_65  and  CA_67
REMARK   33  A    between atoms: N_76  and  C_77
REMARK   34  A    between atoms: C_77  and  C_79
REMARK   35  A    between atoms: C_77  and  C_86
REMARK   36  A    between atoms: C_79  and  C_80
REMARK   37  A    between atoms: C_80  and  C_81
REMARK   38  A    between atoms: C_81  and  N_82
REMARK   39  A    between atoms: C_92  and  C_94
REMARK   40  A    between atoms: N_96  and  N_97
REMARK                            x       y       z     vdW  Elec       q    Type
REMARK                         _______ _______ _______ _____ _____    ______ ____
ROOT
ATOM      1  C   UNL     1       5.670  -8.328  15.041  0.00  0.00    +0.163 C 
ENDROOT
BRANCH   1   2
ATOM      2  N   UNL     1       4.628  -8.981  14.225  0.00  0.00    -0.302 N 
ATOM      3  H   UNL     1       4.648  -9.990  14.228  0.00  0.00    +0.150 HD
ATOM      4  C   UNL     1       3.406  -8.377  13.958  0.00  0.00    +0.236 C 
ATOM      5  O   UNL     1       3.147  -7.252  14.355  0.00  0.00    -0.274 OA
BRANCH   4   6
ATOM      6  CA  UNL     1       2.392  -9.193  13.131  0.00  0.00    +0.184 C 
BRANCH   6   7
ATOM      7  N   UNL     1       2.904 -10.427  12.504  0.00  0.00    -0.301 N 
ATOM      8  H   UNL     1       3.500 -11.043  13.033  0.00  0.00    +0.150 HD
ATOM      9  C   UNL     1       2.694 -10.634  11.156  0.00  0.00    +0.234 C 
ATOM     10  O   UNL     1       1.949  -9.862  10.545  0.00  0.00    -0.274 OA
BRANCH   9  11
ATOM     11  CA  UNL     1       3.410 -11.835  10.436  0.00  0.00    +0.163 C 
BRANCH  11  12
ATOM     12  N   UNL     1       3.817 -11.405   9.069  0.00  0.00    -0.302 N 
ATOM     13  H   UNL     1       4.811 -11.311   8.910  0.00  0.00    +0.150 HD
ATOM     14  C   UNL     1       2.913 -11.123   8.055  0.00  0.00    +0.234 C 
ATOM     15  O   UNL     1       1.696 -11.217   8.226  0.00  0.00    -0.274 OA
BRANCH  14  16
ATOM     16  CA  UNL     1       3.451 -10.641   6.666  0.00  0.00    +0.165 C 
BRANCH  16  17
ATOM     17  N   UNL     1       3.121  -9.243   6.300  0.00  0.00    -0.302 N 
ATOM     18  H   UNL     1       2.788  -8.630   7.036  0.00  0.00    +0.150 HD
ATOM     19  C   UNL     1       3.249  -8.775   4.996  0.00  0.00    +0.234 C 
ATOM     20  O   UNL     1       3.582  -9.508   4.068  0.00  0.00    -0.274 OA
BRANCH  19  21
ATOM     21  CA  UNL     1       2.872  -7.291   4.769  0.00  0.00    +0.159 C 
ATOM     22  N   UNL     1       3.197  -6.473   5.912  0.00  0.00    -0.304 N 
ATOM     23  H   UNL     1       2.684  -6.427   6.784  0.00  0.00    +0.149 HD
ATOM     24  C   UNL     1       4.366  -5.765   5.743  0.00  0.00    +0.214 C 
ATOM     25  O   UNL     1       4.927  -5.143   6.627  0.00  0.00    -0.276 OA
ATOM     26  C   UNL     1       4.871  -5.987   4.342  0.00  0.00    +0.098 C 
ATOM     27  C   UNL     1       3.665  -6.620   3.643  0.00  0.00    +0.041 C 
ENDBRANCH  19  21
ENDBRANCH  16  17
BRANCH  16  28
ATOM     28  CB  UNL     1       4.915 -11.006   6.394  0.00  0.00    +0.086 C 
BRANCH  28  29
ATOM     29  CG  UNL     1       5.911 -10.078   6.991  0.00  0.00    +0.038 A 
ATOM     30  ND1 UNL     1       5.899  -8.720   6.802  0.00  0.00    -0.348 N 
ATOM     31  HD1 UNL     1       5.181  -8.176   6.353  0.00  0.00    +0.166 HD
ATOM     32  CE1 UNL     1       7.029  -8.214   7.343  0.00  0.00    +0.196 A 
ATOM     33  NE2 UNL     1       7.721  -9.161   7.939  0.00  0.00    -0.244 NA
ATOM     34  CD2 UNL     1       7.032 -10.321   7.744  0.00  0.00    +0.133 A 
ENDBRANCH  28  29
ENDBRANCH  16  28
ENDBRANCH  14  16
ENDBRANCH  11  12
BRANCH  11  35
ATOM     35  CB  UNL     1       4.584 -12.529  11.204  0.00  0.00    +0.069 C 
BRANCH  35  36
ATOM     36  CG  UNL     1       5.834 -11.712  11.420  0.00  0.00    -0.020 A 
ATOM     37  CD2 UNL     1       7.220 -12.141  11.476  0.00  0.00    +0.003 A 
ATOM     38  CE2 UNL     1       8.005 -10.979  11.561  0.00  0.00    +0.047 A 
ATOM     39  CZ2 UNL     1       9.387 -10.944  11.404  0.00  0.00    +0.026 A 
ATOM     40  CH2 UNL     1      10.041 -12.156  11.247  0.00  0.00    +0.002 A 
ATOM     41  CZ3 UNL     1       9.325 -13.349  11.312  0.00  0.00    +0.001 A 
ATOM     42  NE1 UNL     1       7.152  -9.982  11.839  0.00  0.00    -0.360 N 
ATOM     43  HE1 UNL     1       7.426  -9.067  12.129  0.00  0.00    +0.165 HD
ATOM     44  CE3 UNL     1       7.919 -13.362  11.428  0.00  0.00    +0.010 A 
ATOM     45  CD1 UNL     1       5.867 -10.342  11.571  0.00  0.00    +0.087 A 
ENDBRANCH  35  36
ENDBRANCH  11  35
ENDBRANCH   9  11
ENDBRANCH   6   7
BRANCH   6  46
ATOM     46  C   UNL     1       1.117  -9.435  13.953  0.00  0.00    +0.187 C 
BRANCH  46  47
ATOM     47  O   UNL     1       0.058  -9.994  13.174  0.00  0.00    -0.393 OA
ATOM     48  H   UNL     1      -0.103  -9.407  12.415  0.00  0.00    +0.209 HD
ENDBRANCH  46  47
ENDBRANCH   6  46
ENDBRANCH   4   6
ENDBRANCH   1   2
BRANCH   1  51
ATOM     49  N   UNL     1       6.147  -7.890  17.472  0.00  0.00    -0.301 N 
ATOM     50  H   UNL     1       7.121  -7.754  17.220  0.00  0.00    +0.150 HD
ATOM     51  C   UNL     1       5.248  -8.380  16.543  0.00  0.00    +0.234 C 
ATOM     52  O   UNL     1       4.194  -8.910  16.898  0.00  0.00    -0.274 OA
BRANCH  49  53
ATOM     53  C   UNL     1       5.855  -7.947  18.928  0.00  0.00    +0.185 C 
BRANCH  53  56
ATOM     54  N   UNL     1       7.110  -8.015  21.142  0.00  0.00    -0.302 N 
ATOM     55  H   UNL     1       6.191  -7.922  21.559  0.00  0.00    +0.150 HD
ATOM     56  C   UNL     1       7.195  -8.072  19.762  0.00  0.00    +0.236 C 
ATOM     57  O   UNL     1       8.253  -8.327  19.171  0.00  0.00    -0.274 OA
BRANCH  54  58
ATOM     58  C   UNL     1       8.191  -8.286  22.148  0.00  0.00    +0.159 C 
BRANCH  58  59
ATOM     59  C   UNL     1       7.677  -7.854  23.588  0.00  0.00    +0.234 C 
ATOM     60  N   UNL     1       8.549  -7.887  24.661  0.00  0.00    -0.302 N 
ATOM     61  H   UNL     1       9.553  -7.908  24.507  0.00  0.00    +0.150 HD
ATOM     62  O   UNL     1       6.471  -7.657  23.771  0.00  0.00    -0.274 OA
BRANCH  60  63
ATOM     63  C   UNL     1       8.128  -7.700  26.079  0.00  0.00    +0.159 C 
BRANCH  63  64
ATOM     64  C   UNL     1       8.961  -6.594  26.810  0.00  0.00    +0.237 C 
ATOM     65  N   UNL     1       8.534  -6.164  28.058  0.00  0.00    -0.288 N 
ATOM     66  C   UNL     1       9.303  -5.210  28.873  0.00  0.00    +0.163 C 
ATOM     67  C   UNL     1       8.269  -4.638  29.869  0.00  0.00    +0.033 C 
ATOM     68  C   UNL     1       6.953  -5.361  29.572  0.00  0.00    +0.021 C 
ATOM     69  C   UNL     1       7.360  -6.595  28.796  0.00  0.00    +0.109 C 
ATOM     70  O   UNL     1       9.990  -6.140  26.300  0.00  0.00    -0.274 OA
BRANCH  66  71
ATOM     71  C   UNL     1      10.415  -5.912  29.689  0.00  0.00    +0.250 C 
ATOM     72  N   UNL     1      11.401  -5.080  30.194  0.00  0.00    -0.232 N 
ATOM     73  H   UNL     1      11.620  -4.155  29.828  0.00  0.00    +0.173 HD
ATOM     74  O   UNL     1      10.360  -7.104  30.009  0.00  0.00    -0.272 OA
BRANCH  72  75
ATOM     75  N   UNL     1      12.370  -5.670  31.030  0.00  0.00    -0.218 N 
ATOM     76  H   UNL     1      12.152  -6.610  31.348  0.00  0.00    +0.174 HD
ATOM     77  C   UNL     1      13.230  -4.875  31.743  0.00  0.00    +0.313 C 
ATOM     78  O   UNL     1      13.348  -3.665  31.596  0.00  0.00    -0.252 OA
ATOM     79  N   UNL     1      14.009  -5.576  32.612  0.00  0.00    -0.312 N 
ATOM     80  H   UNL     1      14.628  -5.036  33.204  0.00  0.00    +0.147 HD
ATOM     81  H   UNL     1      13.730  -6.486  32.948  0.00  0.00    +0.147 HD
ENDBRANCH  72  75
ENDBRANCH  66  71
ENDBRANCH  63  64
BRANCH  63  82
ATOM     82  C   UNL     1       8.275  -9.017  26.875  0.00  0.00    +0.035 C 
BRANCH  82  83
ATOM     83  C   UNL     1       7.235 -10.088  26.558  0.00  0.00    +0.043 C 
BRANCH  83  84
ATOM     84  C   UNL     1       7.478 -10.803  25.237  0.00  0.00    +0.243 C 
BRANCH  84  85
ATOM     85  N   UNL     1       6.392 -11.759  25.004  0.00  0.00    -0.114 NA
ATOM     86  C   UNL     1       5.332 -11.338  24.423  0.00  0.00    +0.376 C 
ATOM     87  N   UNL     1       4.324 -12.206  24.186  0.00  0.00    -0.289 N 
ATOM     88  H   UNL     1       3.944 -12.105  23.255  0.00  0.00    +0.255 HD
ATOM     89  H   UNL     1       4.658 -13.152  24.342  0.00  0.00    +0.255 HD
ATOM     90  N   UNL     1       4.990 -10.115  23.956  0.00  0.00    -0.289 N 
ATOM     91  H   UNL     1       4.017  -9.893  24.124  0.00  0.00    +0.255 HD
ATOM     92  H   UNL     1       5.572  -9.331  24.248  0.00  0.00    +0.255 HD
ENDBRANCH  84  85
ENDBRANCH  83  84
ENDBRANCH  82  83
ENDBRANCH  63  82
ENDBRANCH  60  63
ENDBRANCH  58  59
BRANCH  58  93
ATOM     93  C   UNL     1       9.586  -7.724  21.833  0.00  0.00    +0.034 C 
BRANCH  93  95
ATOM     94  C   UNL     1      11.157  -5.763  21.712  0.00  0.00    +0.007 C 
ATOM     95  C   UNL     1       9.697  -6.190  21.871  0.00  0.00    -0.015 C 
ATOM     96  C   UNL     1       8.856  -5.504  20.800  0.00  0.00    +0.007 C 
ENDBRANCH  93  95
ENDBRANCH  58  93
ENDBRANCH  54  58
ENDBRANCH  53  56
BRANCH  53  97
ATOM     97  C   UNL     1       4.781  -6.894  19.340  0.00  0.00    +0.192 C 
BRANCH  97  98
ATOM     98  O   UNL     1       5.175  -5.516  19.243  0.00  0.00    -0.372 OA
BRANCH  98  99
ATOM     99  C   UNL     1       4.144  -4.528  19.536  0.00  0.00    +0.061 C 
ATOM    100  C   UNL     1       2.974  -4.563  18.537  0.00  0.00    +0.041 C 
ATOM    101  C   UNL     1       4.808  -3.142  19.412  0.00  0.00    +0.041 C 
ATOM    102  C   UNL     1       3.593  -4.664  20.966  0.00  0.00    +0.041 C 
ENDBRANCH  98  99
ENDBRANCH  97  98
ENDBRANCH  53  97
ENDBRANCH  49  53
ENDBRANCH   1  51
BRANCH   1 103
ATOM    103  C   UNL     1       6.091  -6.917  14.562  0.00  0.00    +0.067 C 
BRANCH 103 104
ATOM    104  C   UNL     1       6.774  -6.900  13.214  0.00  0.00    -0.045 A 
ATOM    105  C   UNL     1       8.166  -7.064  13.145  0.00  0.00    +0.007 A 
ATOM    106  C   UNL     1       8.800  -7.223  11.917  0.00  0.00    +0.045 A 
ATOM    107  C   UNL     1       8.042  -7.278  10.759  0.00  0.00    +0.117 A 
ATOM    108  C   UNL     1       6.668  -7.045  10.776  0.00  0.00    +0.045 A 
ATOM    109  C   UNL     1       6.043  -6.830  12.016  0.00  0.00    +0.007 A 
BRANCH 107 110
ATOM    110  O   UNL     1       8.713  -7.788   9.696  0.00  0.00    -0.507 OA
ATOM    111  H   UNL     1       8.179  -8.511   9.271  0.00  0.00    +0.292 HD
ENDBRANCH 107 110
ENDBRANCH 103 104
ENDBRANCH   1 103
TORSDOF 35
