REMARK  Name = 
REMARK  7 active torsions:
REMARK  status: ('A' for Active; 'I' for Inactive)
REMARK    1  A    between atoms: C_1  and  N_2
REMARK    2  A    between atoms: C_10  and  O_13
REMARK    3  A    between atoms: O_13  and  C_14
REMARK    4  A    between atoms: C_14  and  C_16
REMARK    5  A    between atoms: C_16  and  C_18
REMARK    6  A    between atoms: C_16  and  C_20
REMARK    7  A    between atoms: C_18  and  O_19
REMARK                            x       y       z     vdW  Elec       q    Type
REMARK                         _______ _______ _______ _____ _____    ______ ____
ROOT
ATOM      1  C   UNL     1       4.501   2.031  -6.444  0.00  0.00    +0.317 C 
ATOM      2  O   UNL     1       4.774   1.286  -7.377  0.00  0.00    -0.250 OA
ENDROOT
BRANCH   1   3
ATOM      3  O   UNL     1       5.034   1.907  -5.192  0.00  0.00    -0.461 OA
BRANCH   3   8
ATOM      4  C   UNL     1       9.646   1.542  -4.483  0.00  0.00    +0.105 C 
ATOM      5  N   UNL     1       8.691   1.268  -3.427  0.00  0.00    -0.299 NA
ATOM      6  C   UNL     1       7.809   2.376  -3.060  0.00  0.00    +0.060 C 
ATOM      7  C   UNL     1       6.994   2.889  -4.249  0.00  0.00    +0.063 C 
ATOM      8  C   UNL     1       6.467   1.797  -5.198  0.00  0.00    +0.179 C 
ATOM      9  C   UNL     1       6.918   0.353  -4.940  0.00  0.00    +0.063 C 
ATOM     10  C   UNL     1       6.912   1.710  -2.015  0.00  0.00    +0.020 C 
ATOM     11  C   UNL     1       6.879   0.239  -2.418  0.00  0.00    +0.020 C 
ATOM     12  C   UNL     1       7.759   0.162  -3.670  0.00  0.00    +0.060 C 
ENDBRANCH   3   8
ENDBRANCH   1   3
BRANCH   1  13
ATOM     13  C   UNL     1       3.578   3.240  -6.485  0.00  0.00    +0.153 C 
BRANCH  13  14
ATOM     14  C   UNL     1       3.643   3.966  -7.824  0.00  0.00    -0.032 A 
ATOM     15  C   UNL     1       3.144   3.378  -8.997  0.00  0.00    +0.004 A 
ATOM     16  C   UNL     1       3.189   4.060 -10.213  0.00  0.00    +0.000 A 
ATOM     17  C   UNL     1       3.740   5.336 -10.277  0.00  0.00    +0.000 A 
ATOM     18  C   UNL     1       4.261   5.926  -9.127  0.00  0.00    +0.000 A 
ATOM     19  C   UNL     1       4.216   5.246  -7.907  0.00  0.00    +0.004 A 
ENDBRANCH  13  14
BRANCH  13  20
ATOM     20  C   UNL     1       2.149   2.832  -6.120  0.00  0.00    +0.175 C 
BRANCH  20  21
ATOM     21  O   UNL     1       2.055   2.345  -4.783  0.00  0.00    -0.394 OA
ATOM     22  H   UNL     1       2.401   1.434  -4.770  0.00  0.00    +0.209 HD
ENDBRANCH  20  21
ENDBRANCH  13  20
ENDBRANCH   1  13
TORSDOF 6
