REMARK  Name = 
REMARK  11 active torsions:
REMARK  status: ('A' for Active; 'I' for Inactive)
REMARK    1  A    between atoms: C_9  and  C_11
REMARK    2  A    between atoms: C_13  and  O_14
REMARK    3  A    between atoms: O_14  and  C_15
REMARK    4  A    between atoms: C_16  and  O_17
REMARK    5  A    between atoms: C_18  and  O_19
REMARK    6  A    between atoms: O_19  and  C_20
REMARK    7  A    between atoms: C_31  and  O_33
REMARK    8  A    between atoms: O_33  and  C_34
REMARK    9  A    between atoms: C_41  and  C_51
REMARK   10  A    between atoms: C_45  and  O_47
REMARK   11  A    between atoms: C_48  and  O_50
REMARK                            x       y       z     vdW  Elec       q    Type
REMARK                         _______ _______ _______ _____ _____    ______ ____
ROOT
ATOM      1  C   UNL     1       6.191  -0.085  -1.598  0.00  0.00    +0.075 C 
ATOM      2  C   UNL     1       4.824  -0.349  -1.002  0.00  0.00    +0.159 C 
ATOM      3  C   UNL     1       4.968  -0.790   0.446  0.00  0.00    -0.011 A 
ATOM      4  C   UNL     1       6.133  -0.487   1.211  0.00  0.00    -0.030 A 
ATOM      5  C   UNL     1       6.213  -0.951   2.541  0.00  0.00    +0.054 A 
ATOM      6  C   UNL     1       5.190  -1.736   3.031  0.00  0.00    +0.167 A 
ATOM      7  O   UNL     1       5.145  -2.304   4.267  0.00  0.00    -0.453 OA
ATOM      8  C   UNL     1       3.948  -3.100   4.156  0.00  0.00    +0.466 C 
ATOM      9  O   UNL     1       3.228  -2.878   2.926  0.00  0.00    -0.453 OA
ATOM     10  C   UNL     1       4.090  -2.056   2.274  0.00  0.00    +0.167 A 
ATOM     11  C   UNL     1       7.336   0.283   0.626  0.00  0.00    +0.064 C 
ATOM     12  C   UNL     1       3.943  -1.585   0.990  0.00  0.00    +0.056 A 
ATOM     13  C   UNL     1       7.002   0.875  -0.757  0.00  0.00    +0.118 C 
ATOM     14  C   UNL     1       8.079   1.253  -1.740  0.00  0.00    +0.312 C 
ATOM     15  O   UNL     1       9.129   1.819  -1.490  0.00  0.00    -0.250 OA
ATOM     16  O   UNL     1       7.635   1.004  -3.018  0.00  0.00    -0.464 OA
ATOM     17  C   UNL     1       6.296   0.490  -2.979  0.00  0.00    +0.239 C 
ENDROOT
BRANCH  11  18
ATOM     18  C   UNL     1       8.631  -0.515   0.590  0.00  0.00    -0.032 A 
ATOM     19  C   UNL     1       8.694  -1.806   0.062  0.00  0.00    +0.054 A 
ATOM     20  C   UNL     1       9.923  -2.378  -0.277  0.00  0.00    +0.165 A 
ATOM     21  C   UNL     1      11.116  -1.669  -0.019  0.00  0.00    +0.201 A 
ATOM     22  C   UNL     1      11.081  -0.433   0.636  0.00  0.00    +0.165 A 
ATOM     23  C   UNL     1       9.831   0.122   0.936  0.00  0.00    +0.054 A 
BRANCH  20  24
ATOM     24  O   UNL     1      10.050  -3.609  -0.875  0.00  0.00    -0.491 OA
ATOM     25  C   UNL     1       8.847  -4.315  -1.165  0.00  0.00    +0.277 C 
ENDBRANCH  20  24
BRANCH  21  26
ATOM     26  O   UNL     1      12.279  -2.244  -0.461  0.00  0.00    -0.501 OA
ATOM     27  H   UNL     1      12.910  -2.211   0.270  0.00  0.00    +0.292 HD
ENDBRANCH  21  26
BRANCH  22  28
ATOM     28  O   UNL     1      12.098   0.386   1.034  0.00  0.00    -0.491 OA
ATOM     29  C   UNL     1      13.422   0.173   0.583  0.00  0.00    +0.277 C 
ENDBRANCH  22  28
ENDBRANCH  11  18
BRANCH   2  30
ATOM     30  O   UNL     1       3.795   0.594  -1.234  0.00  0.00    -0.340 OA
BRANCH  30  31
ATOM     31  C   UNL     1       3.782   1.933  -0.727  0.00  0.00    +0.282 C 
ATOM     32  C   UNL     1       2.619   2.610  -1.514  0.00  0.00    +0.201 C 
ATOM     33  C   UNL     1       1.983   3.822  -0.827  0.00  0.00    +0.179 C 
ATOM     34  C   UNL     1       1.887   3.633   0.680  0.00  0.00    +0.184 C 
ATOM     35  C   UNL     1       3.272   3.271   1.190  0.00  0.00    +0.178 C 
ATOM     36  C   UNL     1       3.235   3.306   2.716  0.00  0.00    +0.197 C 
ATOM     37  O   UNL     1       2.681   4.524   3.208  0.00  0.00    -0.344 OA
ATOM     38  C   UNL     1       1.404   4.862   2.664  0.00  0.00    +0.289 C 
ATOM     39  O   UNL     1       1.401   4.856   1.234  0.00  0.00    -0.338 OA
ATOM     40  O   UNL     1       3.635   1.977   0.694  0.00  0.00    -0.340 OA
BRANCH  38  41
ATOM     41  C   UNL     1       0.275   4.018   3.209  0.00  0.00    +0.045 A 
ATOM     42  S   UNL     1       0.273   3.486   4.845  0.00  0.00    -0.097 S 
ATOM     43  C   UNL     1      -1.231   2.694   4.665  0.00  0.00    +0.045 A 
ATOM     44  C   UNL     1      -1.756   2.862   3.405  0.00  0.00    +0.008 A 
ATOM     45  C   UNL     1      -0.901   3.641   2.576  0.00  0.00    +0.016 A 
ENDBRANCH  38  41
BRANCH  32  46
ATOM     46  O   UNL     1       3.101   2.989  -2.826  0.00  0.00    -0.384 OA
ATOM     47  H   UNL     1       3.608   3.816  -2.746  0.00  0.00    +0.210 HD
ENDBRANCH  32  46
BRANCH  33  48
ATOM     48  O   UNL     1       0.667   4.046  -1.358  0.00  0.00    -0.386 OA
ATOM     49  H   UNL     1       0.267   4.749  -0.812  0.00  0.00    +0.210 HD
ENDBRANCH  33  48
ENDBRANCH  30  31
ENDBRANCH   2  30
TORSDOF 9
