REMARK  Name = 
REMARK  3 active torsions:
REMARK  status: ('A' for Active; 'I' for Inactive)
REMARK    1  A    between atoms: C_1  and  N_2
REMARK    2  A    between atoms: C_10  and  C_16
REMARK    3  A    between atoms: C_12  and  O_13
REMARK                            x       y       z     vdW  Elec       q    Type
REMARK                         _______ _______ _______ _____ _____    ______ ____
ROOT
ATOM      1  C   UNL     1       0.882   0.057   0.035  0.00  0.00    +0.138 C 
ATOM      2  N   UNL     1       2.333   0.074   0.157  0.00  0.00    -0.270 N 
ATOM      3  C   UNL     1       2.967  -1.173   0.092  0.00  0.00    +0.271 C 
ATOM      4  O   UNL     1       2.329  -2.231   0.043  0.00  0.00    -0.270 OA
ATOM      5  C   UNL     1       4.518  -1.174   0.031  0.00  0.00    +0.320 C 
ATOM      6  N   UNL     1       4.992  -0.816   1.359  0.00  0.00    -0.243 NA
ATOM      7  C   UNL     1       4.848   0.403   1.756  0.00  0.00    +0.078 C 
ATOM      8  C   UNL     1       4.246   1.489   0.920  0.00  0.00    +0.023 A 
ATOM      9  C   UNL     1       4.913   2.728   0.898  0.00  0.00    +0.032 A 
ATOM     10  C   UNL     1       4.348   3.817   0.245  0.00  0.00    +0.042 A 
ATOM     11  C   UNL     1       3.134   3.682  -0.415  0.00  0.00    +0.022 A 
ATOM     12  C   UNL     1       2.486   2.443  -0.431  0.00  0.00    +0.025 A 
ATOM     13 CL   UNL     1       5.142   5.341   0.273  0.00  0.00    -0.084 Cl
ATOM     14  C   UNL     1       3.029   1.320   0.223  0.00  0.00    +0.045 A 
ENDROOT
BRANCH   7  15
ATOM     15  C   UNL     1       5.345   0.732   3.136  0.00  0.00    +0.001 A 
ATOM     16  C   UNL     1       6.412  -0.009   3.661  0.00  0.00    +0.010 A 
ATOM     17  C   UNL     1       6.925   0.288   4.927  0.00  0.00    +0.001 A 
ATOM     18  C   UNL     1       6.372   1.324   5.675  0.00  0.00    +0.000 A 
ATOM     19  C   UNL     1       5.291   2.048   5.173  0.00  0.00    +0.001 A 
ATOM     20  C   UNL     1       4.769   1.746   3.913  0.00  0.00    +0.010 A 
ENDBRANCH   7  15
BRANCH   5  21
ATOM     21  O   UNL     1       4.992  -2.448  -0.380  0.00  0.00    -0.364 OA
ATOM     22  H   UNL     1       4.598  -3.058   0.269  0.00  0.00    +0.212 HD
ENDBRANCH   5  21
TORSDOF 2
