REMARK  Name = 
REMARK  6 active torsions:
REMARK  status: ('A' for Active; 'I' for Inactive)
REMARK    1  A    between atoms: C_1  and  C_2
REMARK    2  A    between atoms: C_2  and  C_4
REMARK    3  A    between atoms: C_4  and  C_5
REMARK    4  A    between atoms: C_5  and  C_6
REMARK    5  A    between atoms: C_5  and  C_12
REMARK    6  A    between atoms: C_13  and  O_14
REMARK                            x       y       z     vdW  Elec       q    Type
REMARK                         _______ _______ _______ _____ _____    ______ ____
ROOT
ATOM      1  C   UNL     1       5.398   2.185   0.762  0.00  0.00    +0.087 A 
ATOM      2  C   UNL     1       6.395   1.988   1.859  0.00  0.00    +0.345 A 
ATOM      3  O   UNL     1       6.678   0.873   2.284  0.00  0.00    -0.245 OA
ATOM      4  O   UNL     1       7.056   3.110   2.345  0.00  0.00    -0.422 OA
ATOM      5  C   UNL     1       6.860   4.381   1.788  0.00  0.00    +0.143 A 
ATOM      6  C   UNL     1       7.676   5.414   2.251  0.00  0.00    +0.047 A 
ATOM      7  C   UNL     1       7.545   6.686   1.697  0.00  0.00    +0.004 A 
ATOM      8  C   UNL     1       6.586   6.917   0.711  0.00  0.00    +0.001 A 
ATOM      9  C   UNL     1       5.771   5.871   0.265  0.00  0.00    +0.015 A 
ATOM     10  C   UNL     1       5.916   4.581   0.790  0.00  0.00    +0.059 A 
ATOM     11  C   UNL     1       5.180   3.426   0.282  0.00  0.00    +0.138 A 
ENDROOT
BRANCH  11  12
ATOM     12  O   UNL     1       4.323   3.697  -0.763  0.00  0.00    -0.506 OA
ATOM     13  H   UNL     1       4.456   3.011  -1.441  0.00  0.00    +0.292 HD
ENDBRANCH  11  12
BRANCH   1  14
ATOM     14  C   UNL     1       4.713   0.913   0.262  0.00  0.00    +0.067 C 
BRANCH  14  15
ATOM     15  C   UNL     1       5.154   0.575  -1.179  0.00  0.00    -0.039 A 
ATOM     16  C   UNL     1       6.522   0.416  -1.465  0.00  0.00    +0.004 A 
ATOM     17  C   UNL     1       6.955   0.088  -2.753  0.00  0.00    +0.000 A 
ATOM     18  C   UNL     1       6.031  -0.099  -3.777  0.00  0.00    +0.000 A 
ATOM     19  C   UNL     1       4.675   0.054  -3.518  0.00  0.00    +0.000 A 
ATOM     20  C   UNL     1       4.241   0.392  -2.234  0.00  0.00    +0.004 A 
ENDBRANCH  14  15
BRANCH  14  21
ATOM     21  C   UNL     1       3.176   0.935   0.415  0.00  0.00    +0.087 C 
BRANCH  21  23
ATOM     22  C   UNL     1       1.129   1.131   1.930  0.00  0.00    +0.086 C 
ATOM     23  C   UNL     1       2.637   1.133   1.815  0.00  0.00    +0.131 C 
ATOM     24  O   UNL     1       3.353   1.303   2.797  0.00  0.00    -0.298 OA
ENDBRANCH  21  23
ENDBRANCH  14  21
ENDBRANCH   1  14
TORSDOF 5
