REMARK  Name = 
REMARK  3 active torsions:
REMARK  status: ('A' for Active; 'I' for Inactive)
REMARK    1  A    between atoms: C_5  and  O_6
REMARK    2  A    between atoms: C_5  and  C_7
REMARK    3  A    between atoms: C_9  and  C_10
REMARK                            x       y       z     vdW  Elec       q    Type
REMARK                         _______ _______ _______ _____ _____    ______ ____
ROOT
ATOM      1  C   UNL     1      -0.000  -0.000   0.000  0.00  0.00    +0.002 C 
ATOM      2  C   UNL     1      -0.000  -0.000  -0.000  0.00  0.00    -0.003 C 
ATOM      3  C   UNL     1      -0.000  -0.000  -0.000  0.00  0.00    -0.000 C 
ATOM      4  C   UNL     1      -0.000  -0.000  -0.000  0.00  0.00    +0.019 C 
ATOM      5  C   UNL     1      -0.000  -0.000  -0.000  0.00  0.00    -0.063 C 
ATOM      6  C   UNL     1       0.000  -0.000   0.000  0.00  0.00    +0.031 C 
ATOM      7  C   UNL     1      -0.000  -0.000   0.000  0.00  0.00    +0.045 C 
ATOM      8  C   UNL     1      -0.000  -0.000  -0.000  0.00  0.00    +0.156 C 
ATOM      9  O   UNL     1      -0.000  -0.000  -0.000  0.00  0.00    -0.293 OA
ATOM     10  C   UNL     1      -0.000  -0.000  -0.000  0.00  0.00    +0.079 C 
ATOM     11  C   UNL     1      -0.000  -0.000  -0.000  0.00  0.00    +0.016 C 
ATOM     12  C   UNL     1      -0.000  -0.000  -0.000  0.00  0.00    +0.005 C 
ATOM     13  C   UNL     1      -0.000  -0.000  -0.000  0.00  0.00    +0.011 C 
ATOM     14  C   UNL     1      -0.000  -0.000   0.000  0.00  0.00    +0.008 C 
ATOM     15  C   UNL     1      -0.000  -0.000   0.000  0.00  0.00    +0.011 C 
ATOM     16  C   UNL     1      -0.000  -0.000   0.000  0.00  0.00    +0.015 C 
ATOM     17  C   UNL     1      -0.000  -0.000   0.000  0.00  0.00    +0.132 C 
ATOM     18  C   UNL     1      -0.000  -0.000  -0.000  0.00  0.00    +0.049 C 
ATOM     19  C   UNL     1      -0.000  -0.000  -0.000  0.00  0.00    +0.008 C 
ENDROOT
BRANCH  17  20
ATOM     20  O   UNL     1      -0.000  -0.000   0.000  0.00  0.00    -0.376 OA
ATOM     21  H   UNL     1       0.000   0.000   0.000  0.00  0.00    +0.211 HD
ENDBRANCH  17  20
BRANCH  17  22
ATOM     22  C   UNL     1      -0.000  -0.000  -0.000  0.00  0.00    -0.070 C 
ATOM     23  C   UNL     1      -0.000  -0.000  -0.000  0.00  0.00    +0.007 C 
ENDBRANCH  17  22
TORSDOF 2
