REMARK  Name = 
REMARK  7 active torsions:
REMARK  status: ('A' for Active; 'I' for Inactive)
REMARK    1  A    between atoms: N_1  and  S_2
REMARK    2  A    between atoms: S_2  and  C_5
REMARK    3  A    between atoms: C_9  and  N_10
REMARK    4  A    between atoms: N_10  and  C_11
REMARK    5  A    between atoms: C_11  and  C_12
REMARK    6  A    between atoms: C_17  and  C_19
REMARK    7  A    between atoms: C_19  and  O_20
REMARK                            x       y       z     vdW  Elec       q    Type
REMARK                         _______ _______ _______ _____ _____    ______ ____
ROOT
ATOM      1  C   UNL     1       3.254   0.902  -1.588  0.00  0.00    +0.124 A 
ATOM      2  C   UNL     1       3.584   0.225  -2.770  0.00  0.00    +0.046 A 
ATOM      3  C   UNL     1       3.760   0.929  -3.978  0.00  0.00    +0.082 A 
ATOM      4  C   UNL     1       3.585   2.331  -4.005  0.00  0.00    +0.043 A 
ATOM      5  C   UNL     1       3.352   2.994  -2.788  0.00  0.00    +0.045 A 
ATOM      6  C   UNL     1       3.160   2.291  -1.590  0.00  0.00    +0.069 A 
ATOM      7 CL   UNL     1       2.805   3.244  -0.193  0.00  0.00    -0.081 Cl
ENDROOT
BRANCH   1   8
ATOM      8  S   UNL     1       2.865  -0.042  -0.149  0.00  0.00    +0.057 S 
ATOM      9  O   UNL     1       1.550   0.338   0.310  0.00  0.00    -0.153 OA
ATOM     10  O   UNL     1       3.224  -1.420  -0.377  0.00  0.00    -0.153 OA
BRANCH   8  11
ATOM     11  N   UNL     1       3.964   0.506   0.995  0.00  0.00    -0.203 NA
ATOM     12  H   UNL     1       3.481   1.064   1.701  0.00  0.00    +0.144 HD
ATOM     13  H   UNL     1       4.477  -0.287   1.381  0.00  0.00    +0.144 HD
ENDBRANCH   8  11
ENDBRANCH   1   8
BRANCH   3  14
ATOM     14  C   UNL     1       4.079   0.105  -5.187  0.00  0.00    +0.339 C 
ATOM     15  O   UNL     1       4.329  -1.088  -5.116  0.00  0.00    -0.245 OA
BRANCH  14  16
ATOM     16  O   UNL     1       4.063   0.771  -6.360  0.00  0.00    -0.477 OA
ATOM     17  H   UNL     1       3.812   1.719  -6.244  0.00  0.00    +0.295 HD
ENDBRANCH  14  16
ENDBRANCH   3  14
BRANCH   4  18
ATOM     18  N   UNL     1       3.741   3.051  -5.215  0.00  0.00    -0.336 N 
ATOM     19  H   UNL     1       4.719   3.354  -5.308  0.00  0.00    +0.147 HD
BRANCH  18  20
ATOM     20  C   UNL     1       2.887   4.250  -5.378  0.00  0.00    +0.176 C 
BRANCH  20  21
ATOM     21  C   UNL     1       2.501   4.508  -6.791  0.00  0.00    +0.122 A 
ATOM     22  O   UNL     1       3.514   4.710  -7.681  0.00  0.00    -0.466 OA
ATOM     23  C   UNL     1       2.937   4.908  -8.895  0.00  0.00    +0.195 A 
ATOM     24  C   UNL     1       1.567   4.846  -8.795  0.00  0.00    +0.041 A 
ATOM     25  C   UNL     1       1.283   4.587  -7.433  0.00  0.00    +0.046 A 
ENDBRANCH  20  21
ENDBRANCH  18  20
ENDBRANCH   4  18
TORSDOF 7
