REMARK  Name = 
REMARK  5 active torsions:
REMARK  status: ('A' for Active; 'I' for Inactive)
REMARK    1  A    between atoms: C_1  and  N_2
REMARK    2  A    between atoms: N_2  and  C_3
REMARK    3  A    between atoms: N_2  and  N_4
REMARK    4  A    between atoms: N_5  and  C_6
REMARK    5  A    between atoms: C_7  and  C_11
REMARK                            x       y       z     vdW  Elec       q    Type
REMARK                         _______ _______ _______ _____ _____    ______ ____
ROOT
ATOM      1  C   UNL     1       5.101  -0.354   2.288  0.00  0.00    +0.186 A 
ATOM      2  N   UNL     1       5.420  -1.496   2.985  0.00  0.00    -0.328 N 
ATOM      3  H   UNL     1       5.160  -2.427   2.696  0.00  0.00    +0.168 HD
ATOM      4  C   UNL     1       6.120  -1.150   4.101  0.00  0.00    +0.199 A 
ATOM      5  N   UNL     1       6.292   0.149   4.175  0.00  0.00    -0.229 NA
ATOM      6  C   UNL     1       5.658   0.670   3.042  0.00  0.00    +0.171 A 
ENDROOT
BRANCH   6   7
ATOM      7  C   UNL     1       5.621   2.097   2.752  0.00  0.00    +0.264 C 
ATOM      8  O   UNL     1       5.074   2.607   1.781  0.00  0.00    -0.269 OA
ATOM      9  N   UNL     1       6.269   2.858   3.685  0.00  0.00    -0.324 N 
ATOM     10  H   UNL     1       6.303   3.859   3.572  0.00  0.00    +0.145 HD
ATOM     11  H   UNL     1       6.710   2.403   4.474  0.00  0.00    +0.145 HD
ENDBRANCH   6   7
BRANCH   1  13
ATOM     12  N   UNL     1       3.703  -1.390   0.935  0.00  0.00    -0.078 NA
ATOM     13  N   UNL     1       4.412  -0.381   1.121  0.00  0.00    -0.113 NA
BRANCH  12  15
ATOM     14  C   UNL     1       1.958  -2.361  -0.350  0.00  0.00    +0.153 C 
ATOM     15  N   UNL     1       3.015  -1.372  -0.253  0.00  0.00    -0.243 N 
ATOM     16  C   UNL     1       2.899  -0.138  -1.022  0.00  0.00    +0.153 C 
ENDBRANCH  12  15
ENDBRANCH   1  13
TORSDOF 3
