REMARK  Name = 
REMARK  8 active torsions:
REMARK  status: ('A' for Active; 'I' for Inactive)
REMARK    1  A    between atoms: C_4  and  C_5
REMARK    2  A    between atoms: C_4  and  C_6
REMARK    3  A    between atoms: CA_7  and  C_25
REMARK    4  A    between atoms: CA_12  and  N_14
REMARK    5  A    between atoms: C_15  and  C_17
REMARK    6  A    between atoms: C_17  and  O_18
REMARK    7  A    between atoms: O_18  and  C_19
REMARK    8  A    between atoms: C_25  and  O_26
REMARK                            x       y       z     vdW  Elec       q    Type
REMARK                         _______ _______ _______ _____ _____    ______ ____
ROOT
ATOM      1  C   UNL     1       2.058   0.194   0.176  0.00  0.00    +0.165 C 
ATOM      2  CA  UNL     1       2.479  -1.065   0.974  0.00  0.00    +0.190 C 
ATOM      3  C   UNL     1       3.406  -1.337  -0.247  0.00  0.00    +0.240 C 
ATOM      4  O   UNL     1       4.361  -2.037  -0.493  0.00  0.00    -0.273 OA
ATOM      5  N   UNL     1       2.851  -0.315  -0.963  0.00  0.00    -0.271 N 
ATOM      6  CA  UNL     1       3.708   0.666  -1.652  0.00  0.00    +0.201 C 
ATOM      7  C   UNL     1       4.197   1.676  -0.584  0.00  0.00    +0.042 C 
ATOM      8  C   UNL     1       5.436   1.156   0.173  0.00  0.00    +0.025 C 
ATOM      9  C   UNL     1       4.539   3.076  -1.104  0.00  0.00    +0.025 C 
ATOM     10  S   UNL     1       2.821   1.790   0.653  0.00  0.00    -0.127 S 
ENDROOT
BRANCH   2  11
ATOM     11  N   UNL     1       3.145  -0.835   2.277  0.00  0.00    -0.299 N 
ATOM     12  H   UNL     1       3.341   0.111   2.596  0.00  0.00    +0.150 HD
ATOM     13  C   UNL     1       3.589  -1.803   3.142  0.00  0.00    +0.251 C 
ATOM     14  O   UNL     1       4.150  -1.470   4.184  0.00  0.00    -0.272 OA
BRANCH  13  15
ATOM     15  C   UNL     1       3.357  -3.259   2.758  0.00  0.00    +0.324 C 
BRANCH  15  16
ATOM     16  O   UNL     1       1.999  -3.579   3.039  0.00  0.00    -0.483 OA
BRANCH  16  17
ATOM     17  C   UNL     1       1.579  -4.832   2.689  0.00  0.00    +0.121 A 
ATOM     18  C   UNL     1       0.291  -5.163   3.121  0.00  0.00    +0.045 A 
ATOM     19  C   UNL     1      -0.264  -6.406   2.812  0.00  0.00    +0.004 A 
ATOM     20  C   UNL     1       0.464  -7.325   2.060  0.00  0.00    +0.000 A 
ATOM     21  C   UNL     1       1.748  -7.001   1.625  0.00  0.00    +0.004 A 
ATOM     22  C   UNL     1       2.307  -5.759   1.941  0.00  0.00    +0.045 A 
ENDBRANCH  16  17
ENDBRANCH  15  16
ENDBRANCH  13  15
ENDBRANCH   2  11
BRANCH   6  23
ATOM     23  C   UNL     1       2.878   1.254  -2.809  0.00  0.00    +0.327 C 
ATOM     24  OXT UNL     1       3.222   2.190  -3.515  0.00  0.00    -0.249 OA
BRANCH  23  25
ATOM     25  O   UNL     1       1.729   0.571  -3.055  0.00  0.00    -0.479 OA
ATOM     26  H   UNL     1       1.672  -0.214  -2.473  0.00  0.00    +0.295 HD
ENDBRANCH  23  25
ENDBRANCH   6  23
TORSDOF 6
