REMARK  Name = 
REMARK  8 active torsions:
REMARK  status: ('A' for Active; 'I' for Inactive)
REMARK    1  A    between atoms: C_1  and  C_2
REMARK    2  A    between atoms: C_2  and  C_4
REMARK    3  A    between atoms: C_2  and  O_15
REMARK    4  A    between atoms: C_4  and  N_5
REMARK    5  A    between atoms: O_15  and  C_16
REMARK    6  A    between atoms: C_16  and  P_17
REMARK    7  A    between atoms: P_17  and  O_18
REMARK    8  A    between atoms: P_17  and  O_19
REMARK                            x       y       z     vdW  Elec       q    Type
REMARK                         _______ _______ _______ _____ _____    ______ ____
ROOT
ATOM      1  N   UNL     1       2.360   2.384  -0.957  0.00  0.00    -0.312 N 
ATOM      2  C   UNL     1       2.215   3.738  -0.784  0.00  0.00    +0.165 A 
ATOM      3  N   UNL     1       2.312   4.444   0.364  0.00  0.00    -0.216 NA
ATOM      4  C   UNL     1       2.151   5.757   0.125  0.00  0.00    +0.225 A 
ATOM      5  N   UNL     1       1.943   6.385  -1.057  0.00  0.00    -0.219 NA
ATOM      6  C   UNL     1       1.889   5.639  -2.175  0.00  0.00    +0.147 A 
ATOM      7  N   UNL     1       1.723   6.273  -3.396  0.00  0.00    -0.341 N 
ATOM      8  H   UNL     1       1.385   5.672  -4.133  0.00  0.00    +0.144 HD
ATOM      9  H   UNL     1       1.319   7.193  -3.302  0.00  0.00    +0.144 HD
ATOM     10  C   UNL     1       1.993   4.240  -2.058  0.00  0.00    +0.147 A 
ATOM     11  N   UNL     1       1.927   3.218  -2.975  0.00  0.00    -0.231 NA
ATOM     12  C   UNL     1       2.130   2.124  -2.275  0.00  0.00    +0.201 A 
ENDROOT
BRANCH   1  13
ATOM     13  C   UNL     1       2.824   1.487   0.086  0.00  0.00    +0.156 C 
BRANCH  13  15
ATOM     14  C   UNL     1       1.114  -0.377   0.024  0.00  0.00    +0.040 C 
ATOM     15  C   UNL     1       2.595  -0.027  -0.098  0.00  0.00    +0.136 C 
BRANCH  15  16
ATOM     16  O   UNL     1       3.096  -0.582  -1.338  0.00  0.00    -0.363 OA
BRANCH  16  17
ATOM     17  C   UNL     1       4.512  -0.393  -1.462  0.00  0.00    +0.286 C 
BRANCH  17  18
ATOM     18  P   UNL     1       5.154  -1.052  -3.043  0.00  0.00    +0.353 P 
ATOM     19  O   UNL     1       5.698  -1.610  -4.382  0.00  0.00    -0.256 OA
BRANCH  18  20
ATOM     20  O   UNL     1       5.310  -2.488  -2.247  0.00  0.00    -0.323 OA
ATOM     21  H   UNL     1       4.498  -3.027  -2.316  0.00  0.00    +0.220 HD
ENDBRANCH  18  20
BRANCH  18  22
ATOM     22  O   UNL     1       6.611  -0.411  -2.629  0.00  0.00    -0.323 OA
ATOM     23  H   UNL     1       7.250  -0.719  -3.306  0.00  0.00    +0.220 HD
ENDBRANCH  18  22
ENDBRANCH  17  18
ENDBRANCH  16  17
ENDBRANCH  15  16
ENDBRANCH  13  15
ENDBRANCH   1  13
TORSDOF 7
