REMARK  Name = 
REMARK  8 active torsions:
REMARK  status: ('A' for Active; 'I' for Inactive)
REMARK    1  A    between atoms: C_5  and  O_16
REMARK    2  A    between atoms: N_13  and  C_14
REMARK    3  A    between atoms: N_13  and  C_15
REMARK    4  A    between atoms: O_16  and  C_17
REMARK    5  A    between atoms: C_17  and  C_19
REMARK    6  A    between atoms: C_19  and  C_21
REMARK    7  A    between atoms: C_19  and  C_23
REMARK    8  A    between atoms: C_21  and  O_22
REMARK                            x       y       z     vdW  Elec       q    Type
REMARK                         _______ _______ _______ _____ _____    ______ ____
ROOT
ATOM      1 BR   UNL     1       0.000   0.000   0.000  0.00  0.00    +0.000 Br
ENDROOT
TORSDOF 0
REMARK  Name = 
REMARK  8 active torsions:
REMARK  status: ('A' for Active; 'I' for Inactive)
REMARK    1  A    between atoms: C_5  and  O_16
REMARK    2  A    between atoms: N_13  and  C_14
REMARK    3  A    between atoms: N_13  and  C_15
REMARK    4  A    between atoms: O_16  and  C_17
REMARK    5  A    between atoms: C_17  and  C_19
REMARK    6  A    between atoms: C_19  and  C_21
REMARK    7  A    between atoms: C_19  and  C_23
REMARK    8  A    between atoms: C_21  and  O_22
REMARK                            x       y       z     vdW  Elec       q    Type
REMARK                         _______ _______ _______ _____ _____    ______ ____
ROOT
ATOM      1  O   UNL     1      -0.000  -0.000  -0.000  0.00  0.00    -0.460 OA
ENDROOT
BRANCH   1  10
ATOM      2  C   UNL     1      -0.000  -0.000   0.000  0.00  0.00    +0.102 C 
ATOM      3  N   UNL     1      -0.000  -0.000   0.000  0.00  0.00    +0.247 N 
ATOM      4  C   UNL     1      -0.000  -0.000   0.000  0.00  0.00    +0.193 C 
ATOM      5  C   UNL     1      -0.000  -0.000  -0.000  0.00  0.00    +0.193 C 
ATOM      6  C   UNL     1      -0.000  -0.000   0.000  0.00  0.00    +0.102 C 
ATOM      7  C   UNL     1      -0.000  -0.000  -0.000  0.00  0.00    +0.201 C 
ATOM      8  O   UNL     1      -0.000  -0.000  -0.000  0.00  0.00    -0.357 OA
ATOM      9  C   UNL     1      -0.000  -0.000  -0.000  0.00  0.00    +0.102 C 
ATOM     10  C   UNL     1      -0.000  -0.000   0.000  0.00  0.00    +0.187 C 
ATOM     11  C   UNL     1      -0.000  -0.000  -0.000  0.00  0.00    +0.201 C 
ATOM     12  C   UNL     1      -0.000  -0.000  -0.000  0.00  0.00    +0.102 C 
ENDBRANCH   1  10
BRANCH   1  13
ATOM     13  C   UNL     1      -0.000  -0.000   0.000  0.00  0.00    +0.317 C 
ATOM     14  O   UNL     1      -0.000  -0.000   0.000  0.00  0.00    -0.250 OA
BRANCH  13  15
ATOM     15  C   UNL     1      -0.000  -0.000   0.000  0.00  0.00    +0.153 C 
BRANCH  15  16
ATOM     16  C   UNL     1      -0.000  -0.000   0.000  0.00  0.00    -0.032 A 
ATOM     17  C   UNL     1      -0.000  -0.000   0.000  0.00  0.00    +0.004 A 
ATOM     18  C   UNL     1      -0.000  -0.000   0.000  0.00  0.00    +0.000 A 
ATOM     19  C   UNL     1      -0.000  -0.000   0.000  0.00  0.00    +0.000 A 
ATOM     20  C   UNL     1      -0.000  -0.000   0.000  0.00  0.00    +0.000 A 
ATOM     21  C   UNL     1      -0.000  -0.000   0.000  0.00  0.00    +0.004 A 
ENDBRANCH  15  16
BRANCH  15  22
ATOM     22  C   UNL     1      -0.000  -0.000   0.000  0.00  0.00    +0.175 C 
BRANCH  22  23
ATOM     23  O   UNL     1      -0.000  -0.000   0.000  0.00  0.00    -0.394 OA
ATOM     24  H   UNL     1      -0.000  -0.000   0.000  0.00  0.00    +0.209 HD
ENDBRANCH  22  23
ENDBRANCH  15  22
ENDBRANCH  13  15
ENDBRANCH   1  13
TORSDOF 6
