REMARK  Name = 
REMARK  8 active torsions:
REMARK  status: ('A' for Active; 'I' for Inactive)
REMARK    1  A    between atoms: N_6  and  C_7
REMARK    2  A    between atoms: C_16  and  C_21
REMARK    3  A    between atoms: N_19  and  C_20
REMARK    4  A    between atoms: N_23  and  CA_24
REMARK    5  A    between atoms: CA_24  and  C_25
REMARK    6  A    between atoms: CA_24  and  C_27
REMARK    7  A    between atoms: C_25  and  C_26
REMARK    8  A    between atoms: C_27  and  O_28
REMARK                            x       y       z     vdW  Elec       q    Type
REMARK                         _______ _______ _______ _____ _____    ______ ____
ROOT
ATOM      1  C   UNL     1       2.598  -0.350   0.091  0.00  0.00    +0.091 C 
ATOM      2  N   UNL     1       3.223  -0.904   1.276  0.00  0.00    -0.297 NA
ATOM      3  C   UNL     1       4.494  -0.361   1.714  0.00  0.00    +0.105 C 
ATOM      4  C   UNL     1       2.256  -1.478   2.141  0.00  0.00    +0.101 C 
ATOM      5  C   UNL     1       0.968  -0.660   1.875  0.00  0.00    +0.112 C 
ATOM      6  C   UNL     1       1.523   0.924   1.400  0.00  0.00    -0.007 C 
ATOM      7  C   UNL     1       2.568   1.141   0.409  0.00  0.00    -0.025 C 
ATOM      8  C   UNL     1       3.777   1.295  -0.756  0.00  0.00    -0.011 A 
ATOM      9  C   UNL     1       4.541   2.456  -0.892  0.00  0.00    +0.009 A 
ATOM     10  C   UNL     1       5.924   2.381  -1.231  0.00  0.00    +0.003 A 
ATOM     11  C   UNL     1       6.645   1.172  -1.397  0.00  0.00    +0.026 A 
ATOM     12  C   UNL     1       5.901   0.004  -1.422  0.00  0.00    +0.050 A 
ATOM     13  N   UNL     1       6.235  -1.356  -1.481  0.00  0.00    -0.349 N 
ATOM     14  C   UNL     1       7.538  -1.982  -1.489  0.00  0.00    +0.149 C 
ATOM     15  C   UNL     1       5.112  -2.125  -1.393  0.00  0.00    +0.090 A 
ATOM     16  C   UNL     1       4.085  -1.238  -1.363  0.00  0.00    -0.020 A 
ATOM     17  C   UNL     1       4.518   0.103  -1.266  0.00  0.00    +0.011 A 
ATOM     18  C   UNL     1       2.729  -1.423  -1.001  0.00  0.00    +0.061 C 
ENDROOT
BRANCH   5  19
ATOM     19  C   UNL     1       0.090  -1.180   0.701  0.00  0.00    +0.221 C 
ATOM     20  N   UNL     1      -0.846  -0.195   0.314  0.00  0.00    -0.310 N 
ATOM     21  H   UNL     1      -0.661   0.752   0.606  0.00  0.00    +0.149 HD
ATOM     22  O   UNL     1       0.346  -2.207   0.077  0.00  0.00    -0.275 OA
BRANCH  20  23
ATOM     23  CA  UNL     1      -1.659  -0.253  -0.902  0.00  0.00    +0.098 C 
BRANCH  23  24
ATOM     24  C   UNL     1      -3.098  -0.243  -0.428  0.00  0.00    +0.021 C 
ATOM     25  C   UNL     1      -3.371  -1.443   0.468  0.00  0.00    +0.006 C 
ENDBRANCH  23  24
BRANCH  23  26
ATOM     26  C   UNL     1      -1.341   0.935  -1.864  0.00  0.00    +0.178 C 
BRANCH  26  27
ATOM     27  O   UNL     1      -1.588   2.203  -1.266  0.00  0.00    -0.393 OA
ATOM     28  H   UNL     1      -2.537   2.257  -1.061  0.00  0.00    +0.209 HD
ENDBRANCH  26  27
ENDBRANCH  23  26
ENDBRANCH  20  23
ENDBRANCH   5  19
TORSDOF 5
