REMARK  Name = 
REMARK  18 active torsions:
REMARK  status: ('A' for Active; 'I' for Inactive)
REMARK    1  A    between atoms: C_5  and  N_43
REMARK    2  A    between atoms: C_7  and  N_8
REMARK    3  A    between atoms: C_9  and  C_11
REMARK    4  A    between atoms: C_11  and  N_12
REMARK    5  A    between atoms: N_12  and  C_13
REMARK    6  A    between atoms: C_13  and  C_14
REMARK    7  A    between atoms: C_13  and  C_15
REMARK    8  A    between atoms: C_13  and  C_16
REMARK    9  A    between atoms: C_17  and  O_18
REMARK   10  A    between atoms: C_23  and  O_24
REMARK   11  A    between atoms: C_25  and  O_26
REMARK   12  A    between atoms: C_29  and  C_30
REMARK   13  A    between atoms: C_33  and  O_34
REMARK   14  A    between atoms: C_35  and  N_37
REMARK   15  A    between atoms: N_37  and  C_38
REMARK   16  A    between atoms: N_37  and  C_39
REMARK   17  A    between atoms: N_43  and  C_44
REMARK   18  A    between atoms: N_43  and  C_45
REMARK                            x       y       z     vdW  Elec       q    Type
REMARK                         _______ _______ _______ _____ _____    ______ ____
ROOT
ATOM      1  C   UNL     1       2.099   0.131  -0.214  0.00  0.00    +0.031 C 
ATOM      2  C   UNL     1       2.666   1.523  -0.069  0.00  0.00    +0.018 C 
ATOM      3  C   UNL     1       2.449   2.423  -1.285  0.00  0.00    +0.061 C 
ATOM      4  C   UNL     1       2.881   1.729  -2.608  0.00  0.00    +0.190 C 
ATOM      5  C   UNL     1       4.049   2.520  -3.241  0.00  0.00    +0.211 C 
ATOM      6  C   UNL     1       3.949   4.014  -3.218  0.00  0.00    +0.121 C 
ATOM      7  C   UNL     1       3.957   4.472  -1.963  0.00  0.00    +0.127 C 
ATOM      8  O   UNL     1       5.077   2.018  -3.700  0.00  0.00    -0.288 OA
ATOM      9  C   UNL     1       3.049   0.199  -2.501  0.00  0.00    +0.141 C 
ATOM     10  C   UNL     1       3.207   3.741  -0.874  0.00  0.00    +0.129 C 
ATOM     11  C   UNL     1       2.686  -0.522  -1.412  0.00  0.00    +0.044 C 
ATOM     12  C   UNL     1       2.779  -2.017  -1.370  0.00  0.00    +0.197 C 
ATOM     13  O   UNL     1       3.232  -2.608  -2.348  0.00  0.00    -0.287 OA
ATOM     14  C   UNL     1       2.382  -2.729  -0.100  0.00  0.00    +0.070 A 
ATOM     15  C   UNL     1       2.306  -2.032   1.134  0.00  0.00    -0.011 A 
ATOM     16  C   UNL     1       2.117  -2.709   2.371  0.00  0.00    +0.035 A 
ATOM     17  C   UNL     1       1.938  -4.102   2.301  0.00  0.00    +0.050 A 
ATOM     18  C   UNL     1       1.995  -4.809   1.094  0.00  0.00    +0.078 A 
ATOM     19  C   UNL     1       2.180  -4.110  -0.103  0.00  0.00    +0.149 A 
ATOM     20  C   UNL     1       2.433  -0.549   1.106  0.00  0.00    +0.046 C 
ENDROOT
BRANCH   6  21
ATOM     21  C   UNL     1       2.940   4.779  -4.008  0.00  0.00    +0.248 C 
ATOM     22  O   UNL     1       2.431   5.825  -3.623  0.00  0.00    -0.270 OA
ATOM     23  N   UNL     1       2.626   4.323  -5.245  0.00  0.00    -0.325 N 
ATOM     24  H   UNL     1       1.921   4.854  -5.739  0.00  0.00    +0.145 HD
ATOM     25  H   UNL     1       3.010   3.493  -5.671  0.00  0.00    +0.145 HD
ENDBRANCH   6  21
BRANCH  18  26
ATOM     26  N   UNL     1       1.887  -6.218   1.173  0.00  0.00    -0.281 N 
ATOM     27  H   UNL     1       1.452  -6.594   2.006  0.00  0.00    +0.155 HD
ATOM     28  C   UNL     1       2.728  -7.076   0.474  0.00  0.00    +0.231 C 
ATOM     29  O   UNL     1       3.602  -6.692  -0.303  0.00  0.00    -0.274 OA
BRANCH  28  30
ATOM     30  C   UNL     1       2.473  -8.562   0.768  0.00  0.00    +0.178 C 
BRANCH  30  31
ATOM     31  N   UNL     1       3.553  -9.138   1.586  0.00  0.00    -0.303 NA
ATOM     32  H   UNL     1       3.698  -8.584   2.429  0.00  0.00    +0.123 HD
BRANCH  31  33
ATOM     33  C   UNL     1       3.395 -10.566   1.933  0.00  0.00    +0.011 C 
ATOM     34  C   UNL     1       2.105 -10.825   2.731  0.00  0.00    +0.027 C 
ATOM     35  C   UNL     1       4.593 -10.958   2.822  0.00  0.00    +0.027 C 
ATOM     36  C   UNL     1       3.420 -11.461   0.681  0.00  0.00    +0.027 C 
ENDBRANCH  31  33
ENDBRANCH  30  31
ENDBRANCH  28  30
ENDBRANCH  18  26
BRANCH  10  37
ATOM     37  N   UNL     1       2.293   4.537  -0.023  0.00  0.00    -0.299 NA
ATOM     38  C   UNL     1       2.997   5.387   0.933  0.00  0.00    +0.105 C 
ATOM     39  C   UNL     1       1.301   5.324  -0.758  0.00  0.00    +0.105 C 
ENDBRANCH  10  37
BRANCH  16  40
ATOM     40  N   UNL     1       2.162  -2.112   3.631  0.00  0.00    -0.336 N 
ATOM     41  C   UNL     1       1.130  -2.422   4.619  0.00  0.00    +0.129 C 
ATOM     42  C   UNL     1       2.979  -0.946   3.963  0.00  0.00    +0.129 C 
ENDBRANCH  16  40
BRANCH   7  43
ATOM     43  O   UNL     1       5.101   5.126  -1.485  0.00  0.00    -0.509 OA
ATOM     44  H   UNL     1       5.702   5.309  -2.231  0.00  0.00    +0.292 HD
ENDBRANCH   7  43
BRANCH   4  45
ATOM     45  O   UNL     1       1.822   1.888  -3.584  0.00  0.00    -0.373 OA
ATOM     46  H   UNL     1       2.003   1.204  -4.263  0.00  0.00    +0.211 HD
ENDBRANCH   4  45
BRANCH   9  47
ATOM     47  O   UNL     1       3.441  -0.412  -3.688  0.00  0.00    -0.507 OA
ATOM     48  H   UNL     1       3.527  -1.384  -3.517  0.00  0.00    +0.292 HD
ENDBRANCH   9  47
BRANCH  19  49
ATOM     49  O   UNL     1       2.066  -4.775  -1.294  0.00  0.00    -0.504 OA
ATOM     50  H   UNL     1       2.775  -5.450  -1.278  0.00  0.00    +0.292 HD
ENDBRANCH  19  49
TORSDOF 11
