REMARK  Name = 
REMARK  2 active torsions:
REMARK  status: ('A' for Active; 'I' for Inactive)
REMARK    1  A    between atoms: C_4  and  N_5
REMARK    2  A    between atoms: C_6  and  C_9
REMARK                            x       y       z     vdW  Elec       q    Type
REMARK                         _______ _______ _______ _____ _____    ______ ____
ROOT
ATOM      1  N   UNL     1       1.044  -0.059   0.109  0.00  0.00    -0.326 N 
ATOM      2  H   UNL     1       0.684  -0.912  -0.297  0.00  0.00    +0.145 HD
ATOM      3  H   UNL     1       0.623   0.813  -0.175  0.00  0.00    +0.145 HD
ATOM      4  C   UNL     1       2.420   0.004   0.002  0.00  0.00    +0.234 A 
ATOM      5  N   UNL     1       3.121  -1.126  -0.170  0.00  0.00    -0.113 NA
ATOM      6  N   UNL     1       4.489  -1.074  -0.226  0.00  0.00    -0.142 NA
ATOM      7  C   UNL     1       5.130   0.099  -0.064  0.00  0.00    +0.134 A 
ATOM      8  C   UNL     1       4.331   1.246   0.058  0.00  0.00    +0.148 A 
ATOM      9  N   UNL     1       2.983   1.210   0.070  0.00  0.00    -0.197 NA
ENDROOT
BRANCH   7  10
ATOM     10  C   UNL     1       6.621   0.047  -0.016  0.00  0.00    +0.025 A 
ATOM     11  C   UNL     1       7.381   1.121  -0.539  0.00  0.00    +0.012 A 
ATOM     12  C   UNL     1       8.773   1.176  -0.453  0.00  0.00    +0.002 A 
ATOM     13  C   UNL     1       9.472   0.122   0.119  0.00  0.00    +0.021 A 
ATOM     14  C   UNL     1       8.773  -0.985   0.601  0.00  0.00    +0.060 A 
ATOM     15 CL   UNL     1       9.735  -2.271   1.257  0.00  0.00    -0.082 Cl
ATOM     16  C   UNL     1       7.361  -1.026   0.554  0.00  0.00    +0.069 A 
ATOM     17 CL   UNL     1       6.571  -2.407   1.271  0.00  0.00    -0.081 Cl
ENDBRANCH   7  10
BRANCH   8  18
ATOM     18  N   UNL     1       4.836   2.548   0.173  0.00  0.00    -0.341 N 
ATOM     19  H   UNL     1       5.448   2.635   0.978  0.00  0.00    +0.144 HD
ATOM     20  H   UNL     1       4.030   3.166   0.256  0.00  0.00    +0.144 HD
ENDBRANCH   8  18
TORSDOF 2
