REMARK  Name = 
REMARK  2 active torsions:
REMARK  status: ('A' for Active; 'I' for Inactive)
REMARK    1  A    between atoms: N_10  and  C_11
REMARK    2  A    between atoms: C_18  and  O_19
REMARK                            x       y       z     vdW  Elec       q    Type
REMARK                         _______ _______ _______ _____ _____    ______ ____
ROOT
ATOM      1  C   UNL     1      -0.000  -0.000  -0.000  0.00  0.00    +0.017 C 
ATOM      2  C   UNL     1      -0.000  -0.000   0.000  0.00  0.00    +0.065 C 
ATOM      3  C   UNL     1      -0.000  -0.000  -0.000  0.00  0.00    +0.054 C 
ATOM      4  C   UNL     1      -0.000  -0.000  -0.000  0.00  0.00    -0.042 A 
ATOM      5  C   UNL     1      -0.000  -0.000  -0.000  0.00  0.00    +0.007 A 
ATOM      6  C   UNL     1      -0.000  -0.000   0.000  0.00  0.00    +0.045 A 
ATOM      7  C   UNL     1      -0.000  -0.000  -0.000  0.00  0.00    +0.117 A 
ATOM      8  C   UNL     1      -0.000  -0.000  -0.000  0.00  0.00    +0.049 A 
ATOM      9  C   UNL     1      -0.000  -0.000   0.000  0.00  0.00    -0.034 A 
ATOM     10  N   UNL     1      -0.000  -0.000  -0.000  0.00  0.00    -0.302 NA
ATOM     11  C   UNL     1      -0.000  -0.000  -0.000  0.00  0.00    +0.105 C 
ATOM     12  C   UNL     1      -0.000  -0.000  -0.000  0.00  0.00    +0.085 C 
ATOM     13  C   UNL     1      -0.000  -0.000   0.000  0.00  0.00    +0.027 C 
ATOM     14  C   UNL     1      -0.000  -0.000  -0.000  0.00  0.00    +0.002 C 
ATOM     15  C   UNL     1      -0.000  -0.000  -0.000  0.00  0.00    +0.012 C 
ATOM     16  C   UNL     1      -0.000  -0.000  -0.000  0.00  0.00    +0.001 C 
ATOM     17  C   UNL     1      -0.000  -0.000   0.000  0.00  0.00    +0.000 C 
ATOM     18  C   UNL     1      -0.000  -0.000  -0.000  0.00  0.00    +0.006 C 
ENDROOT
BRANCH   7  19
ATOM     19  O   UNL     1      -0.000  -0.000  -0.000  0.00  0.00    -0.507 OA
ATOM     20  H   UNL     1       0.000   0.000   0.000  0.00  0.00    +0.292 HD
ENDBRANCH   7  19
TORSDOF 1
