REMARK  Name = 
REMARK  6 active torsions:
REMARK  status: ('A' for Active; 'I' for Inactive)
REMARK    1  A    between atoms: C_5  and  C_8
REMARK    2  A    between atoms: C_8  and  C_10
REMARK    3  A    between atoms: C_10  and  C_11
REMARK    4  A    between atoms: C_11  and  C_12
REMARK    5  A    between atoms: C_12  and  N_13
REMARK    6  A    between atoms: C_16  and  N_19
REMARK                            x       y       z     vdW  Elec       q    Type
REMARK                         _______ _______ _______ _____ _____    ______ ____
ROOT
ATOM      1  N   UNL     1      10.759  -2.007  -1.422  0.00  0.00    -0.298 NA
ATOM      2  C   UNL     1      11.279  -2.909  -2.426  0.00  0.00    +0.113 C 
ATOM      3  C   UNL     1      11.784  -2.266  -3.682  0.00  0.00    +0.010 C 
ATOM      4  C   UNL     1      11.953  -0.944  -3.885  0.00  0.00    +0.027 C 
ATOM      5  C   UNL     1      11.636  -0.021  -2.729  0.00  0.00    +0.069 C 
ATOM      6  C   UNL     1      11.358  -0.690  -1.370  0.00  0.00    +0.091 C 
ENDROOT
BRANCH   4   7
ATOM      7  N   UNL     1      12.420  -0.412  -5.099  0.00  0.00    -0.265 N 
ATOM      8  C   UNL     1      12.726   0.945  -5.450  0.00  0.00    +0.074 A 
ATOM      9  C   UNL     1      13.262   0.956  -6.740  0.00  0.00    +0.067 A 
ATOM     10  C   UNL     1      13.714   2.092  -7.381  0.00  0.00    +0.028 A 
ATOM     11  C   UNL     1      13.612   3.295  -6.685  0.00  0.00    +0.002 A 
ATOM     12  C   UNL     1      13.051   3.322  -5.399  0.00  0.00    +0.002 A 
ATOM     13  N   UNL     1      13.260  -0.331  -7.234  0.00  0.00    -0.306 N 
ATOM     14  H   UNL     1      13.569  -0.636  -8.143  0.00  0.00    +0.170 HD
ATOM     15  C   UNL     1      12.598   2.147  -4.778  0.00  0.00    +0.028 A 
ATOM     16  C   UNL     1      12.737  -1.203  -6.275  0.00  0.00    +0.332 A 
ATOM     17  O   UNL     1      12.603  -2.399  -6.488  0.00  0.00    -0.246 OA
ENDBRANCH   4   7
BRANCH   1  18
ATOM     18  C   UNL     1       9.374  -2.158  -1.012  0.00  0.00    +0.085 C 
BRANCH  18  19
ATOM     19  C   UNL     1       8.325  -1.349  -1.777  0.00  0.00    +0.023 C 
BRANCH  19  20
ATOM     20  C   UNL     1       8.261  -1.678  -3.263  0.00  0.00    +0.081 C 
BRANCH  20  21
ATOM     21  C   UNL     1       7.199  -0.871  -3.980  0.00  0.00    +0.163 C 
ATOM     22  O   UNL     1       6.436  -0.114  -3.386  0.00  0.00    -0.292 OA
BRANCH  21  27
ATOM     23  F   UNL     1       6.700  -1.238  -9.563  0.00  0.00    -0.205 F 
ATOM     24  C   UNL     1       6.828  -1.161  -8.233  0.00  0.00    +0.123 A 
ATOM     25  C   UNL     1       7.786  -1.938  -7.592  0.00  0.00    +0.039 A 
ATOM     26  C   UNL     1       7.924  -1.861  -6.204  0.00  0.00    +0.014 A 
ATOM     27  C   UNL     1       7.096  -1.003  -5.464  0.00  0.00    +0.018 A 
ATOM     28  C   UNL     1       6.135  -0.226  -6.128  0.00  0.00    +0.014 A 
ATOM     29  C   UNL     1       6.001  -0.306  -7.515  0.00  0.00    +0.039 A 
ENDBRANCH  21  27
ENDBRANCH  20  21
ENDBRANCH  19  20
ENDBRANCH  18  19
ENDBRANCH   1  18
TORSDOF 6
