REMARK  Name = 
REMARK  16 active torsions:
REMARK  status: ('A' for Active; 'I' for Inactive)
REMARK    1  A    between atoms: C_1  and  C_2
REMARK    2  A    between atoms: C_2  and  N_3
REMARK    3  A    between atoms: C_4  and  C_6
REMARK    4  A    between atoms: C_6  and  C_7
REMARK    5  A    between atoms: C_7  and  C_8
REMARK    6  A    between atoms: C_8  and  C_9
REMARK    7  A    between atoms: C_10  and  C_11
REMARK    8  A    between atoms: C_11  and  C_12
REMARK    9  A    between atoms: C_14  and  O_16
REMARK   10  A    between atoms: C_18  and  O_20
REMARK   11  A    between atoms: C_21  and  C_23
REMARK   12  A    between atoms: C_24  and  C_25
REMARK   13  A    between atoms: C_25  and  O_27
REMARK   14  A    between atoms: C_25  and  C_28
REMARK   15  A    between atoms: C_28  and  C_29
REMARK   16  A    between atoms: C_29  and  C_30
REMARK                            x       y       z     vdW  Elec       q    Type
REMARK                         _______ _______ _______ _____ _____    ______ ____
ROOT
ATOM      1  C   UNL     1       9.541   4.714   6.639  0.00  0.00    +0.031 C 
ATOM      2  C   UNL     1      10.735   5.381   5.907  0.00  0.00    +0.046 C 
ATOM      3  C   UNL     1      11.971   5.081   6.781  0.00  0.00    +0.124 C 
ATOM      4  C   UNL     1      11.442   4.488   8.086  0.00  0.00    +0.063 C 
ATOM      5  C   UNL     1      10.185   3.742   7.644  0.00  0.00    +0.121 C 
ENDROOT
BRANCH   2   6
ATOM      6  C   UNL     1      10.510   6.865   5.714  0.00  0.00    -0.022 C 
ATOM      7  C   UNL     1      10.473   7.448   4.505  0.00  0.00    -0.000 C 
BRANCH   7   8
ATOM      8  C   UNL     1      10.240   8.912   4.269  0.00  0.00    +0.137 C 
BRANCH   8   9
ATOM      9  O   UNL     1      11.376   9.414   3.572  0.00  0.00    -0.388 OA
ATOM     10  H   UNL     1      12.165   9.085   4.036  0.00  0.00    +0.210 HD
ENDBRANCH   8   9
BRANCH   8  11
ATOM     11  C   UNL     1       8.997   9.179   3.418  0.00  0.00    +0.040 C 
BRANCH  11  12
ATOM     12  C   UNL     1       7.707   8.694   4.085  0.00  0.00    +0.038 C 
BRANCH  12  13
ATOM     13  C   UNL     1       6.501   8.984   3.228  0.00  0.00    -0.047 A 
ATOM     14  C   UNL     1       5.837  10.214   3.329  0.00  0.00    +0.003 A 
ATOM     15  C   UNL     1       4.741  10.492   2.513  0.00  0.00    +0.000 A 
ATOM     16  C   UNL     1       4.300   9.548   1.588  0.00  0.00    +0.000 A 
ATOM     17  C   UNL     1       4.955   8.322   1.479  0.00  0.00    +0.000 A 
ATOM     18  C   UNL     1       6.051   8.041   2.295  0.00  0.00    +0.003 A 
ENDBRANCH  12  13
ENDBRANCH  11  12
ENDBRANCH   8  11
ENDBRANCH   7   8
ENDBRANCH   2   6
BRANCH   3  19
ATOM     19  O   UNL     1      12.792   4.120   6.110  0.00  0.00    -0.391 OA
ATOM     20  H   UNL     1      12.282   3.282   6.099  0.00  0.00    +0.210 HD
ENDBRANCH   3  19
BRANCH   5  21
ATOM     21  O   UNL     1      10.610   2.511   7.076  0.00  0.00    -0.391 OA
ATOM     22  H   UNL     1       9.826   1.943   6.990  0.00  0.00    +0.210 HD
ENDBRANCH   5  21
BRANCH   1  23
ATOM     23  C   UNL     1       8.478   4.136   5.687  0.00  0.00    +0.033 C 
BRANCH  23  25
ATOM     24  C   UNL     1       8.529   1.746   4.815  0.00  0.00    -0.031 C 
ATOM     25  C   UNL     1       8.947   3.021   4.791  0.00  0.00    -0.031 C 
BRANCH  24  26
ATOM     26  C   UNL     1       7.481   1.173   5.724  0.00  0.00    +0.027 C 
BRANCH  26  27
ATOM     27  C   UNL     1       6.087   1.329   5.126  0.00  0.00    +0.013 C 
BRANCH  27  28
ATOM     28  C   UNL     1       5.929   0.583   3.803  0.00  0.00    +0.096 C 
BRANCH  28  31
ATOM     29  N   UNL     1       4.400   0.198   1.980  0.00  0.00    -0.316 N 
ATOM     30  H   UNL     1       5.143  -0.385   1.613  0.00  0.00    +0.149 HD
ATOM     31  C   UNL     1       4.551   0.789   3.217  0.00  0.00    +0.213 C 
ATOM     32  O   UNL     1       3.659   1.415   3.784  0.00  0.00    -0.276 OA
BRANCH  29  34
ATOM     33  C   UNL     1       2.178  -0.802   1.754  0.00  0.00    +0.024 C 
ATOM     34  C   UNL     1       3.143   0.266   1.274  0.00  0.00    +0.101 C 
ENDBRANCH  29  34
ENDBRANCH  28  31
ENDBRANCH  27  28
ENDBRANCH  26  27
ENDBRANCH  24  26
ENDBRANCH  23  25
ENDBRANCH   1  23
TORSDOF 15
