REMARK  Name = 
REMARK  6 active torsions:
REMARK  status: ('A' for Active; 'I' for Inactive)
REMARK    1  A    between atoms: C_5  and  O_7
REMARK    2  A    between atoms: O_7  and  C_8
REMARK    3  A    between atoms: C_8  and  C_10
REMARK    4  A    between atoms: C_10  and  C_11
REMARK    5  A    between atoms: C_11  and  C_12
REMARK    6  A    between atoms: C_18  and  C_19
REMARK                            x       y       z     vdW  Elec       q    Type
REMARK                         _______ _______ _______ _____ _____    ______ ____
ROOT
ATOM      1  C   UNL     1      -0.000  -0.000   0.000  0.00  0.00    +0.002 C 
ATOM      2  C   UNL     1      -0.000  -0.000  -0.000  0.00  0.00    -0.003 C 
ATOM      3  C   UNL     1      -0.000  -0.000  -0.000  0.00  0.00    -0.000 C 
ATOM      4  C   UNL     1      -0.000  -0.000  -0.000  0.00  0.00    +0.019 C 
ATOM      5  C   UNL     1      -0.000  -0.000  -0.000  0.00  0.00    -0.063 C 
ATOM      6  C   UNL     1      -0.000  -0.000  -0.000  0.00  0.00    +0.031 C 
ATOM      7  C   UNL     1      -0.000  -0.000  -0.000  0.00  0.00    +0.045 C 
ATOM      8  C   UNL     1      -0.000  -0.000  -0.000  0.00  0.00    +0.156 C 
ATOM      9  O   UNL     1      -0.000  -0.000  -0.000  0.00  0.00    -0.293 OA
ATOM     10  C   UNL     1      -0.000  -0.000  -0.000  0.00  0.00    +0.079 C 
ATOM     11  C   UNL     1      -0.000  -0.000  -0.000  0.00  0.00    +0.016 C 
ATOM     12  C   UNL     1      -0.000  -0.000  -0.000  0.00  0.00    +0.005 C 
ATOM     13  C   UNL     1      -0.000  -0.000  -0.000  0.00  0.00    +0.011 C 
ATOM     14  C   UNL     1      -0.000  -0.000  -0.000  0.00  0.00    +0.008 C 
ATOM     15  C   UNL     1      -0.000  -0.000  -0.000  0.00  0.00    +0.008 C 
ATOM     16  C   UNL     1      -0.000  -0.000  -0.000  0.00  0.00    +0.015 C 
ATOM     17  C   UNL     1      -0.000  -0.000  -0.000  0.00  0.00    +0.183 C 
ATOM     18  C   UNL     1      -0.000  -0.000  -0.000  0.00  0.00    +0.045 C 
ATOM     19  C   UNL     1      -0.000  -0.000   0.000  0.00  0.00    +0.008 C 
ENDROOT
BRANCH  17  20
ATOM     20  O   UNL     1      -0.000  -0.000  -0.000  0.00  0.00    -0.461 OA
BRANCH  20  21
ATOM     21  C   UNL     1      -0.000  -0.000  -0.000  0.00  0.00    +0.308 C 
ATOM     22  O   UNL     1      -0.000  -0.000  -0.000  0.00  0.00    -0.251 OA
BRANCH  21  23
ATOM     23  C   UNL     1      -0.000  -0.000  -0.000  0.00  0.00    +0.125 C 
BRANCH  23  24
ATOM     24  C   UNL     1      -0.000  -0.000  -0.000  0.00  0.00    +0.046 C 
BRANCH  24  25
ATOM     25  C   UNL     1      -0.000  -0.000  -0.000  0.00  0.00    -0.047 A 
ATOM     26  C   UNL     1      -0.000  -0.000  -0.000  0.00  0.00    +0.003 A 
ATOM     27  C   UNL     1      -0.000  -0.000  -0.000  0.00  0.00    +0.000 A 
ATOM     28  C   UNL     1      -0.000  -0.000  -0.000  0.00  0.00    +0.000 A 
ATOM     29  C   UNL     1      -0.000  -0.000  -0.000  0.00  0.00    +0.000 A 
ATOM     30  C   UNL     1      -0.000  -0.000  -0.000  0.00  0.00    +0.003 A 
ENDBRANCH  24  25
ENDBRANCH  23  24
ENDBRANCH  21  23
ENDBRANCH  20  21
ENDBRANCH  17  20
TORSDOF 5
