REMARK  Name = 
REMARK  8 active torsions:
REMARK  status: ('A' for Active; 'I' for Inactive)
REMARK    1  A    between atoms: C_1  and  N_2
REMARK    2  A    between atoms: N_2  and  N_3
REMARK    3  A    between atoms: N_7  and  C_8
REMARK    4  A    between atoms: C_10  and  O_12
REMARK    5  A    between atoms: C_14  and  C_16
REMARK    6  A    between atoms: C_16  and  O_17
REMARK    7  A    between atoms: C_18  and  O_20
REMARK    8  A    between atoms: C_21  and  O_23
REMARK                            x       y       z     vdW  Elec       q    Type
REMARK                         _______ _______ _______ _____ _____    ______ ____
ROOT
ATOM      1  C   UNL     1       5.344   2.277   0.121  0.00  0.00    +0.161 C 
ATOM      2  C   UNL     1       5.528   3.405  -0.914  0.00  0.00    +0.171 C 
ATOM      3  C   UNL     1       5.567   2.819  -2.340  0.00  0.00    +0.176 C 
ATOM      4  C   UNL     1       6.447   1.539  -2.450  0.00  0.00    +0.178 C 
ATOM      5  O   UNL     1       6.401   0.669  -1.301  0.00  0.00    -0.341 OA
ATOM      6  C   UNL     1       6.564   1.342  -0.039  0.00  0.00    +0.270 C 
ENDROOT
BRANCH   1  10
ATOM      7  C   UNL     1       0.742   0.224   0.371  0.00  0.00    +0.166 C 
ATOM      8  N   UNL     1       2.121   0.318  -0.076  0.00  0.00    -0.144 N 
ATOM      9  C   UNL     1       2.917   1.391   0.367  0.00  0.00    +0.324 C 
ATOM     10  N   UNL     1       4.179   1.407  -0.171  0.00  0.00    -0.288 N 
ATOM     11  H   UNL     1       4.444   0.608  -0.738  0.00  0.00    +0.151 HD
ATOM     12  O   UNL     1       2.554   2.247   1.168  0.00  0.00    -0.251 OA
BRANCH   8  13
ATOM     13  N   UNL     1       2.640  -0.607  -0.999  0.00  0.00    +0.052 NA
ATOM     14  O   UNL     1       1.874  -1.523  -1.313  0.00  0.00    -0.126 OA
ENDBRANCH   8  13
ENDBRANCH   1  10
BRANCH   2  15
ATOM     15  O   UNL     1       6.744   4.108  -0.637  0.00  0.00    -0.387 OA
ATOM     16  H   UNL     1       6.939   4.700  -1.388  0.00  0.00    +0.210 HD
ENDBRANCH   2  15
BRANCH   3  17
ATOM     17  O   UNL     1       4.228   2.522  -2.778  0.00  0.00    -0.387 OA
ATOM     18  H   UNL     1       3.701   2.263  -2.001  0.00  0.00    +0.210 HD
ENDBRANCH   3  17
BRANCH   6  19
ATOM     19  O   UNL     1       6.570   0.351   0.985  0.00  0.00    -0.365 OA
ATOM     20  H   UNL     1       5.666   0.294   1.334  0.00  0.00    +0.213 HD
ENDBRANCH   6  19
BRANCH   4  21
ATOM     21  C   UNL     1       7.910   1.823  -2.809  0.00  0.00    +0.190 C 
BRANCH  21  22
ATOM     22  O   UNL     1       8.025   2.628  -3.974  0.00  0.00    -0.392 OA
ATOM     23  H   UNL     1       7.764   2.080  -4.736  0.00  0.00    +0.210 HD
ENDBRANCH  21  22
ENDBRANCH   4  21
TORSDOF 7
