REMARK  Name = 
REMARK  8 active torsions:
REMARK  status: ('A' for Active; 'I' for Inactive)
REMARK    1  A    between atoms: C_5  and  O_6
REMARK    2  A    between atoms: C_5  and  C_7
REMARK    3  A    between atoms: C_8  and  C_9
REMARK    4  A    between atoms: C_10  and  C_11
REMARK    5  A    between atoms: C_13  and  C_15
REMARK    6  A    between atoms: C_18  and  N_21
REMARK    7  A    between atoms: N_21  and  C_22
REMARK    8  A    between atoms: N_21  and  C_23
REMARK                            x       y       z     vdW  Elec       q    Type
REMARK                         _______ _______ _______ _____ _____    ______ ____
ROOT
ATOM      1  C   UNL     1      -0.000  -0.000   0.000  0.00  0.00    +0.006 C 
ATOM      2  C   UNL     1      -0.000  -0.000   0.000  0.00  0.00    +0.020 C 
ATOM      3  C   UNL     1      -0.000  -0.000  -0.000  0.00  0.00    -0.055 C 
ATOM      4  C   UNL     1      -0.000  -0.000  -0.000  0.00  0.00    -0.044 C 
ATOM      5  C   UNL     1      -0.000  -0.000   0.000  0.00  0.00    -0.041 C 
ATOM      6  C   UNL     1      -0.000  -0.000  -0.000  0.00  0.00    +0.036 C 
ATOM      7  C   UNL     1      -0.000  -0.000  -0.000  0.00  0.00    +0.050 C 
ATOM      8  C   UNL     1      -0.000   0.000  -0.000  0.00  0.00    +0.157 C 
ATOM      9  O   UNL     1      -0.000  -0.000  -0.000  0.00  0.00    -0.293 OA
ATOM     10  C   UNL     1      -0.000  -0.000  -0.000  0.00  0.00    +0.083 C 
ATOM     11  C   UNL     1      -0.000  -0.000  -0.000  0.00  0.00    +0.043 C 
ATOM     12  C   UNL     1      -0.000  -0.000  -0.000  0.00  0.00    +0.046 C 
ATOM     13  C   UNL     1      -0.000  -0.000  -0.000  0.00  0.00    +0.023 C 
ATOM     14  C   UNL     1      -0.000  -0.000  -0.000  0.00  0.00    +0.013 C 
ATOM     15  C   UNL     1      -0.000  -0.000   0.000  0.00  0.00    +0.012 C 
ATOM     16  C   UNL     1      -0.000  -0.000  -0.000  0.00  0.00    +0.015 C 
ATOM     17  C   UNL     1      -0.000  -0.000  -0.000  0.00  0.00    +0.132 C 
ATOM     18  C   UNL     1      -0.000  -0.000  -0.000  0.00  0.00    +0.049 C 
ATOM     19  C   UNL     1      -0.000  -0.000  -0.000  0.00  0.00    +0.008 C 
ENDROOT
BRANCH  12  20
ATOM     20  C   UNL     1      -0.000  -0.000  -0.000  0.00  0.00    -0.040 A 
ATOM     21  C   UNL     1      -0.000  -0.000   0.000  0.00  0.00    +0.006 A 
ATOM     22  C   UNL     1      -0.000  -0.000  -0.000  0.00  0.00    +0.023 A 
ATOM     23  C   UNL     1      -0.000  -0.000  -0.000  0.00  0.00    +0.029 A 
ATOM     24  C   UNL     1      -0.000  -0.000  -0.000  0.00  0.00    +0.023 A 
ATOM     25  C   UNL     1      -0.000  -0.000   0.000  0.00  0.00    +0.006 A 
BRANCH  23  26
ATOM     26  N   UNL     1      -0.000  -0.000  -0.000  0.00  0.00    -0.336 N 
ATOM     27  C   UNL     1       0.000  -0.000   0.000  0.00  0.00    +0.129 C 
ATOM     28  C   UNL     1      -0.000  -0.000  -0.000  0.00  0.00    +0.129 C 
ENDBRANCH  23  26
ENDBRANCH  12  20
BRANCH  17  29
ATOM     29  C   UNL     1      -0.000  -0.000  -0.000  0.00  0.00    -0.067 C 
ATOM     30  C   UNL     1      -0.000  -0.000  -0.000  0.00  0.00    -0.103 C 
ATOM     31  C   UNL     1      -0.000  -0.000  -0.000  0.00  0.00    +0.106 C 
ENDBRANCH  17  29
BRANCH  17  32
ATOM     32  O   UNL     1      -0.000  -0.000   0.000  0.00  0.00    -0.376 OA
ATOM     33  H   UNL     1       0.000   0.000   0.000  0.00  0.00    +0.211 HD
ENDBRANCH  17  32
TORSDOF 4
