REMARK  Name = 
REMARK  38 active torsions:
REMARK  status: ('A' for Active; 'I' for Inactive)
REMARK    1  A    between atoms: S_2  and  C_5
REMARK    2  A    between atoms: S_12  and  C_15
REMARK    3  A    between atoms: C_21  and  O_22
REMARK    4  A    between atoms: O_22  and  C_23
REMARK    5  A    between atoms: C_28  and  O_29
REMARK    6  A    between atoms: O_29  and  C_30
REMARK    7  A    between atoms: C_31  and  C_32
REMARK    8  A    between atoms: C_32  and  C_33
REMARK    9  A    between atoms: C_35  and  O_36
REMARK   10  A    between atoms: O_36  and  C_37
REMARK   11  A    between atoms: C_38  and  O_39
REMARK   12  A    between atoms: O_39  and  C_40
REMARK   13  A    between atoms: N_43  and  C_44
REMARK   14  A    between atoms: N_43  and  C_45
REMARK   15  A    between atoms: C_45  and  C_46
REMARK   16  A    between atoms: C_46  and  C_47
REMARK   17  A    between atoms: C_47  and  O_49
REMARK   18  A    between atoms: O_49  and  C_50
REMARK   19  A    between atoms: C_50  and  C_51
REMARK   20  A    between atoms: C_51  and  C_52
REMARK   21  A    between atoms: C_52  and  C_53
REMARK   22  A    between atoms: C_53  and  C_54
REMARK   23  A    between atoms: C_54  and  O_55
REMARK   24  A    between atoms: O_55  and  C_56
REMARK   25  A    between atoms: C_56  and  C_58
REMARK   26  A    between atoms: C_58  and  C_59
REMARK   27  A    between atoms: C_59  and  N_60
REMARK   28  A    between atoms: N_60  and  C_61
REMARK   29  A    between atoms: C_67  and  O_68
REMARK   30  A    between atoms: O_68  and  C_69
REMARK   31  A    between atoms: C_70  and  O_71
REMARK   32  A    between atoms: O_71  and  C_72
REMARK   33  A    between atoms: C_74  and  C_75
REMARK   34  A    between atoms: C_75  and  C_76
REMARK   35  A    between atoms: C_78  and  O_79
REMARK   36  A    between atoms: O_79  and  C_80
REMARK   37  A    between atoms: C_81  and  O_82
REMARK   38  A    between atoms: O_82  and  C_83
REMARK                            x       y       z     vdW  Elec       q    Type
REMARK                         _______ _______ _______ _____ _____    ______ ____
ROOT
ATOM      1  C   UNL     1       3.012  -2.910   0.952  0.00  0.00    +0.077 A 
ATOM      2  C   UNL     1       3.111  -2.632   2.319  0.00  0.00    +0.026 A 
ATOM      3  C   UNL     1       4.251  -3.034   3.027  0.00  0.00    +0.002 A 
ATOM      4  C   UNL     1       5.267  -3.736   2.380  0.00  0.00    +0.000 A 
ATOM      5  C   UNL     1       5.137  -4.068   1.031  0.00  0.00    +0.002 A 
ATOM      6  C   UNL     1       4.011  -3.653   0.315  0.00  0.00    +0.026 A 
ENDROOT
BRANCH   1   8
ATOM      7  O   UNL     1       0.477  -2.985   0.541  0.00  0.00    -0.720 OA
ATOM      8  S   UNL     1       1.614  -2.246   0.002  0.00  0.00    -0.051 S 
ATOM      9  O   UNL     1       1.604  -0.823   0.250  0.00  0.00    -0.180 OA
ATOM     10  O   UNL     1       1.945  -2.615  -1.386  0.00  0.00    -0.180 OA
ENDBRANCH   1   8
TORSDOF 1
REMARK  Name = 
REMARK  38 active torsions:
REMARK  status: ('A' for Active; 'I' for Inactive)
REMARK    1  A    between atoms: S_2  and  C_5
REMARK    2  A    between atoms: S_12  and  C_15
REMARK    3  A    between atoms: C_21  and  O_22
REMARK    4  A    between atoms: O_22  and  C_23
REMARK    5  A    between atoms: C_28  and  O_29
REMARK    6  A    between atoms: O_29  and  C_30
REMARK    7  A    between atoms: C_31  and  C_32
REMARK    8  A    between atoms: C_32  and  C_33
REMARK    9  A    between atoms: C_35  and  O_36
REMARK   10  A    between atoms: O_36  and  C_37
REMARK   11  A    between atoms: C_38  and  O_39
REMARK   12  A    between atoms: O_39  and  C_40
REMARK   13  A    between atoms: N_43  and  C_44
REMARK   14  A    between atoms: N_43  and  C_45
REMARK   15  A    between atoms: C_45  and  C_46
REMARK   16  A    between atoms: C_46  and  C_47
REMARK   17  A    between atoms: C_47  and  O_49
REMARK   18  A    between atoms: O_49  and  C_50
REMARK   19  A    between atoms: C_50  and  C_51
REMARK   20  A    between atoms: C_51  and  C_52
REMARK   21  A    between atoms: C_52  and  C_53
REMARK   22  A    between atoms: C_53  and  C_54
REMARK   23  A    between atoms: C_54  and  O_55
REMARK   24  A    between atoms: O_55  and  C_56
REMARK   25  A    between atoms: C_56  and  C_58
REMARK   26  A    between atoms: C_58  and  C_59
REMARK   27  A    between atoms: C_59  and  N_60
REMARK   28  A    between atoms: N_60  and  C_61
REMARK   29  A    between atoms: C_67  and  O_68
REMARK   30  A    between atoms: O_68  and  C_69
REMARK   31  A    between atoms: C_70  and  O_71
REMARK   32  A    between atoms: O_71  and  C_72
REMARK   33  A    between atoms: C_74  and  C_75
REMARK   34  A    between atoms: C_75  and  C_76
REMARK   35  A    between atoms: C_78  and  O_79
REMARK   36  A    between atoms: O_79  and  C_80
REMARK   37  A    between atoms: C_81  and  O_82
REMARK   38  A    between atoms: O_82  and  C_83
REMARK                            x       y       z     vdW  Elec       q    Type
REMARK                         _______ _______ _______ _____ _____    ______ ____
ROOT
ATOM      1  C   UNL     1       3.947   2.248   1.806  0.00  0.00    +0.077 A 
ATOM      2  C   UNL     1       2.685   2.501   1.264  0.00  0.00    +0.026 A 
ATOM      3  C   UNL     1       2.510   3.631   0.462  0.00  0.00    +0.002 A 
ATOM      4  C   UNL     1       3.589   4.486   0.212  0.00  0.00    +0.000 A 
ATOM      5  C   UNL     1       4.838   4.237   0.784  0.00  0.00    +0.002 A 
ATOM      6  C   UNL     1       5.018   3.118   1.588  0.00  0.00    +0.026 A 
ENDROOT
BRANCH   1   8
ATOM      7  O   UNL     1       2.989   0.417   3.341  0.00  0.00    -0.720 OA
ATOM      8  S   UNL     1       4.273   0.738   2.739  0.00  0.00    -0.051 S 
ATOM      9  O   UNL     1       4.796  -0.123   1.685  0.00  0.00    -0.180 OA
ATOM     10  O   UNL     1       5.277   1.180   3.709  0.00  0.00    -0.180 OA
ENDBRANCH   1   8
TORSDOF 1
REMARK  Name = 
REMARK  38 active torsions:
REMARK  status: ('A' for Active; 'I' for Inactive)
REMARK    1  A    between atoms: S_2  and  C_5
REMARK    2  A    between atoms: S_12  and  C_15
REMARK    3  A    between atoms: C_21  and  O_22
REMARK    4  A    between atoms: O_22  and  C_23
REMARK    5  A    between atoms: C_28  and  O_29
REMARK    6  A    between atoms: O_29  and  C_30
REMARK    7  A    between atoms: C_31  and  C_32
REMARK    8  A    between atoms: C_32  and  C_33
REMARK    9  A    between atoms: C_35  and  O_36
REMARK   10  A    between atoms: O_36  and  C_37
REMARK   11  A    between atoms: C_38  and  O_39
REMARK   12  A    between atoms: O_39  and  C_40
REMARK   13  A    between atoms: N_43  and  C_44
REMARK   14  A    between atoms: N_43  and  C_45
REMARK   15  A    between atoms: C_45  and  C_46
REMARK   16  A    between atoms: C_46  and  C_47
REMARK   17  A    between atoms: C_47  and  O_49
REMARK   18  A    between atoms: O_49  and  C_50
REMARK   19  A    between atoms: C_50  and  C_51
REMARK   20  A    between atoms: C_51  and  C_52
REMARK   21  A    between atoms: C_52  and  C_53
REMARK   22  A    between atoms: C_53  and  C_54
REMARK   23  A    between atoms: C_54  and  O_55
REMARK   24  A    between atoms: O_55  and  C_56
REMARK   25  A    between atoms: C_56  and  C_58
REMARK   26  A    between atoms: C_58  and  C_59
REMARK   27  A    between atoms: C_59  and  N_60
REMARK   28  A    between atoms: N_60  and  C_61
REMARK   29  A    between atoms: C_67  and  O_68
REMARK   30  A    between atoms: O_68  and  C_69
REMARK   31  A    between atoms: C_70  and  O_71
REMARK   32  A    between atoms: O_71  and  C_72
REMARK   33  A    between atoms: C_74  and  C_75
REMARK   34  A    between atoms: C_75  and  C_76
REMARK   35  A    between atoms: C_78  and  O_79
REMARK   36  A    between atoms: O_79  and  C_80
REMARK   37  A    between atoms: C_81  and  O_82
REMARK   38  A    between atoms: O_82  and  C_83
REMARK                            x       y       z     vdW  Elec       q    Type
REMARK                         _______ _______ _______ _____ _____    ______ ____
ROOT
ATOM      1  C   UNL     1      -0.069   9.367 -11.419  0.00  0.00    +0.007 C 
ENDROOT
BRANCH   1   2
ATOM      2  C   UNL     1      -1.413   9.521 -12.137  0.00  0.00    +0.041 C 
BRANCH   2   3
ATOM      3  C   UNL     1      -1.543   8.693 -13.416  0.00  0.00    +0.232 C 
BRANCH   3   4
ATOM      4  O   UNL     1      -2.891   8.832 -13.923  0.00  0.00    -0.464 OA
BRANCH   4   5
ATOM      5  C   UNL     1      -3.731   7.785 -13.708  0.00  0.00    +0.312 C 
ATOM      6  O   UNL     1      -3.419   6.694 -13.259  0.00  0.00    -0.251 OA
BRANCH   5   7
ATOM      7  C   UNL     1      -5.152   8.168 -14.025  0.00  0.00    +0.171 C 
BRANCH   7   8
ATOM      8  C   UNL     1      -5.475   8.077 -15.516  0.00  0.00    +0.145 C 
BRANCH   8   9
ATOM      9  N   UNL     1      -6.899   8.636 -15.870  0.00  0.00    +0.247 N 
ATOM     10  C   UNL     1      -7.188   8.552 -17.448  0.00  0.00    +0.102 C 
ATOM     11  C   UNL     1      -8.528   9.198 -17.746  0.00  0.00    +0.008 A 
ATOM     12  C   UNL     1      -8.686   9.877 -18.960  0.00  0.00    +0.058 A 
ATOM     13  C   UNL     1      -9.895  10.482 -19.300  0.00  0.00    +0.162 A 
ATOM     14  C   UNL     1     -10.958  10.463 -18.379  0.00  0.00    +0.162 A 
ATOM     15  C   UNL     1     -10.796   9.797 -17.154  0.00  0.00    +0.053 A 
ATOM     16  C   UNL     1      -9.592   9.147 -16.832  0.00  0.00    -0.030 A 
ATOM     17  C   UNL     1      -9.420   8.538 -15.458  0.00  0.00    +0.086 C 
ATOM     18  C   UNL     1      -8.052   7.882 -15.179  0.00  0.00    +0.138 C 
ATOM     19  C   UNL     1      -6.913  10.129 -15.419  0.00  0.00    +0.193 C 
BRANCH  13  20
ATOM     20  O   UNL     1     -10.072  11.150 -20.485  0.00  0.00    -0.491 OA
ATOM     21  C   UNL     1      -9.273  10.710 -21.585  0.00  0.00    +0.277 C 
ENDBRANCH  13  20
BRANCH  14  22
ATOM     22  O   UNL     1     -12.100  11.120 -18.756  0.00  0.00    -0.491 OA
ATOM     23  C   UNL     1     -13.201  11.120 -17.856  0.00  0.00    +0.277 C 
ENDBRANCH  14  22
BRANCH  10  24
ATOM     24  C   UNL     1      -7.172   7.088 -18.050  0.00  0.00    +0.094 C 
BRANCH  24  25
ATOM     25  C   UNL     1      -7.276   6.996 -19.580  0.00  0.00    -0.038 A 
ATOM     26  C   UNL     1      -8.516   6.841 -20.239  0.00  0.00    +0.007 A 
ATOM     27  C   UNL     1      -8.617   6.875 -21.650  0.00  0.00    +0.049 A 
ATOM     28  C   UNL     1      -7.473   7.061 -22.421  0.00  0.00    +0.161 A 
ATOM     29  C   UNL     1      -6.224   7.142 -21.777  0.00  0.00    +0.162 A 
ATOM     30  C   UNL     1      -6.125   7.092 -20.377  0.00  0.00    +0.053 A 
BRANCH  29  31
ATOM     31  O   UNL     1      -5.169   7.288 -22.640  0.00  0.00    -0.491 OA
ATOM     32  C   UNL     1      -3.875   7.524 -22.136  0.00  0.00    +0.277 C 
ENDBRANCH  29  31
BRANCH  28  33
ATOM     33  O   UNL     1      -7.396   7.142 -23.782  0.00  0.00    -0.491 OA
ATOM     34  C   UNL     1      -8.513   7.446 -24.593  0.00  0.00    +0.277 C 
ENDBRANCH  28  33
ENDBRANCH  24  25
ENDBRANCH  10  24
ENDBRANCH   8   9
ENDBRANCH   7   8
ENDBRANCH   5   7
ENDBRANCH   4   5
ENDBRANCH   3   4
ENDBRANCH   2   3
ENDBRANCH   1   2
BRANCH   1  35
ATOM     35  C   UNL     1       1.138   9.791 -12.265  0.00  0.00    +0.041 C 
BRANCH  35  36
ATOM     36  C   UNL     1       2.467   9.611 -11.532  0.00  0.00    +0.232 C 
BRANCH  36  37
ATOM     37  O   UNL     1       2.485  10.455 -10.374  0.00  0.00    -0.464 OA
BRANCH  37  38
ATOM     38  C   UNL     1       2.464   9.821  -9.182  0.00  0.00    +0.312 C 
ATOM     39  O   UNL     1       2.520   8.617  -8.988  0.00  0.00    -0.251 OA
BRANCH  38  40
ATOM     40  C   UNL     1       2.329  10.820  -8.077  0.00  0.00    +0.171 C 
BRANCH  40  41
ATOM     41  C   UNL     1       3.628  10.827  -7.281  0.00  0.00    +0.145 C 
BRANCH  41  47
ATOM     42  C   UNL     1       3.905  14.085  -1.726  0.00  0.00    +0.162 A 
ATOM     43  C   UNL     1       4.974  13.193  -1.639  0.00  0.00    +0.162 A 
ATOM     44  C   UNL     1       5.390  12.534  -2.804  0.00  0.00    +0.058 A 
ATOM     45  C   UNL     1       4.752  12.765  -4.031  0.00  0.00    +0.008 A 
ATOM     46  C   UNL     1       4.881  11.735  -5.163  0.00  0.00    +0.102 C 
ATOM     47  N   UNL     1       3.575  11.791  -6.072  0.00  0.00    +0.247 N 
ATOM     48  C   UNL     1       3.433  13.244  -6.545  0.00  0.00    +0.138 C 
ATOM     49  C   UNL     1       3.113  14.177  -5.392  0.00  0.00    +0.086 C 
ATOM     50  C   UNL     1       2.386  11.317  -5.181  0.00  0.00    +0.193 C 
ATOM     51  C   UNL     1       3.868  13.856  -4.134  0.00  0.00    -0.030 A 
ATOM     52  C   UNL     1       3.480  14.533  -2.977  0.00  0.00    +0.053 A 
BRANCH  42  54
ATOM     53  C   UNL     1       1.776  14.298  -0.785  0.00  0.00    +0.277 C 
ATOM     54  O   UNL     1       3.195  14.449  -0.611  0.00  0.00    -0.491 OA
ENDBRANCH  42  54
BRANCH  43  55
ATOM     55  O   UNL     1       5.640  12.770  -0.526  0.00  0.00    -0.491 OA
ATOM     56  C   UNL     1       5.505  13.511   0.680  0.00  0.00    +0.277 C 
ENDBRANCH  43  55
BRANCH  46  57
ATOM     57  C   UNL     1       6.232  11.960  -5.894  0.00  0.00    +0.094 C 
BRANCH  57  58
ATOM     58  C   UNL     1       6.710  10.976  -6.936  0.00  0.00    -0.038 A 
ATOM     59  C   UNL     1       7.142  11.448  -8.182  0.00  0.00    +0.007 A 
ATOM     60  C   UNL     1       7.783  10.596  -9.080  0.00  0.00    +0.049 A 
ATOM     61  C   UNL     1       8.052   9.274  -8.722  0.00  0.00    +0.161 A 
ATOM     62  C   UNL     1       7.567   8.765  -7.503  0.00  0.00    +0.162 A 
ATOM     63  C   UNL     1       6.870   9.615  -6.634  0.00  0.00    +0.053 A 
BRANCH  62  64
ATOM     64  O   UNL     1       7.864   7.456  -7.223  0.00  0.00    -0.491 OA
ATOM     65  C   UNL     1       7.603   6.974  -5.908  0.00  0.00    +0.277 C 
ENDBRANCH  62  64
BRANCH  61  66
ATOM     66  O   UNL     1       8.778   8.433  -9.531  0.00  0.00    -0.491 OA
ATOM     67  C   UNL     1       9.860   9.059 -10.223  0.00  0.00    +0.277 C 
ENDBRANCH  61  66
ENDBRANCH  57  58
ENDBRANCH  46  57
ENDBRANCH  41  47
ENDBRANCH  40  41
ENDBRANCH  38  40
ENDBRANCH  37  38
ENDBRANCH  36  37
ENDBRANCH  35  36
ENDBRANCH   1  35
TORSDOF 26
