REMARK  Name = 
REMARK  10 active torsions:
REMARK  status: ('A' for Active; 'I' for Inactive)
REMARK    1  A    between atoms: C_7  and  O_8
REMARK    2  A    between atoms: C_9  and  O_10
REMARK    3  A    between atoms: C_13  and  C_14
REMARK    4  A    between atoms: C_17  and  O_18
REMARK    5  A    between atoms: C_19  and  N_21
REMARK    6  A    between atoms: N_21  and  C_22
REMARK    7  A    between atoms: N_21  and  C_23
REMARK    8  A    between atoms: C_27  and  O_28
REMARK    9  A    between atoms: C_33  and  C_34
REMARK   10  A    between atoms: C_33  and  O_35
REMARK                            x       y       z     vdW  Elec       q    Type
REMARK                         _______ _______ _______ _____ _____    ______ ____
ROOT
ATOM      1  C   UNL     1      -0.000  -0.000  -0.000  0.00  0.00    +0.061 C 
ATOM      2  C   UNL     1      -0.000  -0.000  -0.000  0.00  0.00    +0.129 C 
ATOM      3  C   UNL     1      -0.000  -0.000  -0.000  0.00  0.00    +0.127 C 
ATOM      4  C   UNL     1      -0.000  -0.000  -0.000  0.00  0.00    +0.121 C 
ATOM      5  C   UNL     1      -0.000  -0.000   0.000  0.00  0.00    +0.211 C 
ATOM      6  O   UNL     1      -0.000  -0.000  -0.000  0.00  0.00    -0.288 OA
ATOM      7  C   UNL     1      -0.000  -0.000  -0.000  0.00  0.00    +0.190 C 
ATOM      8  C   UNL     1      -0.000  -0.000  -0.000  0.00  0.00    +0.141 C 
ATOM      9  C   UNL     1      -0.000  -0.000  -0.000  0.00  0.00    +0.047 C 
ATOM     10  C   UNL     1      -0.000  -0.000  -0.000  0.00  0.00    +0.197 C 
ATOM     11  O   UNL     1      -0.000  -0.000  -0.000  0.00  0.00    -0.287 OA
ATOM     12  C   UNL     1      -0.000  -0.000  -0.000  0.00  0.00    +0.069 A 
ATOM     13  C   UNL     1      -0.000  -0.000  -0.000  0.00  0.00    -0.001 A 
ATOM     14  C   UNL     1      -0.000  -0.000  -0.000  0.00  0.00    +0.096 C 
ATOM     15  C   UNL     1      -0.000  -0.000  -0.000  0.00  0.00    +0.047 C 
ATOM     16  C   UNL     1      -0.000  -0.000  -0.000  0.00  0.00    +0.007 A 
ATOM     17  C   UNL     1      -0.000  -0.000  -0.000  0.00  0.00    +0.004 A 
ATOM     18  C   UNL     1      -0.000  -0.000  -0.000  0.00  0.00    +0.046 A 
ATOM     19  C   UNL     1      -0.000  -0.000  -0.000  0.00  0.00    +0.128 A 
ATOM     20  C   UNL     1      -0.000  -0.000  -0.000  0.00  0.00    +0.062 C 
ATOM     21  C   UNL     1      -0.000  -0.000  -0.000  0.00  0.00    +0.020 C 
ENDROOT
BRANCH   4  22
ATOM     22  C   UNL     1      -0.000  -0.000  -0.000  0.00  0.00    +0.248 C 
ATOM     23  O   UNL     1      -0.000  -0.000  -0.000  0.00  0.00    -0.270 OA
ATOM     24  N   UNL     1      -0.000  -0.000   0.000  0.00  0.00    -0.325 N 
ATOM     25  H   UNL     1      -0.000  -0.000  -0.000  0.00  0.00    +0.145 HD
ATOM     26  H   UNL     1      -0.000  -0.000  -0.000  0.00  0.00    +0.145 HD
ENDBRANCH   4  22
BRANCH   2  27
ATOM     27  N   UNL     1      -0.000  -0.000  -0.000  0.00  0.00    -0.299 NA
ATOM     28  C   UNL     1      -0.000  -0.000  -0.000  0.00  0.00    +0.105 C 
ATOM     29  C   UNL     1      -0.000  -0.000  -0.000  0.00  0.00    +0.105 C 
ENDBRANCH   2  27
BRANCH   3  30
ATOM     30  O   UNL     1      -0.000  -0.000  -0.000  0.00  0.00    -0.509 OA
ATOM     31  H   UNL     1       0.000   0.000   0.000  0.00  0.00    +0.292 HD
ENDBRANCH   3  30
BRANCH   7  32
ATOM     32  O   UNL     1      -0.000  -0.000  -0.000  0.00  0.00    -0.373 OA
ATOM     33  H   UNL     1       0.000   0.000   0.000  0.00  0.00    +0.211 HD
ENDBRANCH   7  32
BRANCH   8  34
ATOM     34  O   UNL     1      -0.000  -0.000   0.000  0.00  0.00    -0.507 OA
ATOM     35  H   UNL     1       0.000   0.000   0.000  0.00  0.00    +0.292 HD
ENDBRANCH   8  34
BRANCH  14  36
ATOM     36  O   UNL     1      -0.000  -0.000   0.000  0.00  0.00    -0.384 OA
ATOM     37  H   UNL     1       0.000   0.000   0.000  0.00  0.00    +0.211 HD
ENDBRANCH  14  36
BRANCH  19  38
ATOM     38  O   UNL     1      -0.000  -0.000  -0.000  0.00  0.00    -0.506 OA
ATOM     39  H   UNL     1       0.000   0.000   0.000  0.00  0.00    +0.292 HD
ENDBRANCH  19  38
TORSDOF 7
