REMARK  Name = 
REMARK  3 active torsions:
REMARK  status: ('A' for Active; 'I' for Inactive)
REMARK    1  A    between atoms: C_6  and  O_7
REMARK    2  A    between atoms: C_8  and  O_9
REMARK    3  A    between atoms: N_19  and  C_20
REMARK                            x       y       z     vdW  Elec       q    Type
REMARK                         _______ _______ _______ _____ _____    ______ ____
ROOT
ATOM      1  C   UNL     1       1.969   0.042  -0.008  0.00  0.00    +0.092 C 
ATOM      2  C   UNL     1       2.332  -1.278   0.649  0.00  0.00    -0.019 A 
ATOM      3  C   UNL     1       3.071  -1.355   1.852  0.00  0.00    -0.009 A 
ATOM      4  C   UNL     1       3.407  -2.660   2.272  0.00  0.00    +0.009 A 
ATOM      5  C   UNL     1       2.965  -3.814   1.609  0.00  0.00    +0.001 A 
ATOM      6  C   UNL     1       2.216  -3.713   0.450  0.00  0.00    +0.004 A 
ATOM      7  C   UNL     1       3.493  -0.109   2.575  0.00  0.00    +0.031 A 
ATOM      8  C   UNL     1       4.216  -0.052   3.789  0.00  0.00    +0.166 A 
ATOM      9  C   UNL     1       4.612   1.161   4.378  0.00  0.00    +0.159 A 
ATOM     10  C   UNL     1       4.266   2.374   3.831  0.00  0.00    +0.049 A 
ATOM     11  C   UNL     1       3.532   2.369   2.661  0.00  0.00    +0.008 A 
ATOM     12  C   UNL     1       3.167   1.154   2.031  0.00  0.00    -0.034 A 
ATOM     13  C   UNL     1       1.930  -2.452  -0.060  0.00  0.00    -0.041 A 
ATOM     14  C   UNL     1       1.287  -2.348  -1.436  0.00  0.00    +0.051 C 
ATOM     15  C   UNL     1       1.316  -0.945  -2.078  0.00  0.00    +0.089 C 
ATOM     16  N   UNL     1       2.326  -0.095  -1.440  0.00  0.00    -0.298 NA
ATOM     17  C   UNL     1       2.655   1.089  -2.201  0.00  0.00    +0.105 C 
ATOM     18  C   UNL     1       2.426   1.309   0.731  0.00  0.00    +0.059 C 
ENDROOT
BRANCH   8  19
ATOM     19  O   UNL     1       4.548  -1.149   4.547  0.00  0.00    -0.503 OA
ATOM     20  H   UNL     1       3.698  -1.609   4.683  0.00  0.00    +0.292 HD
ENDBRANCH   8  19
BRANCH   9  21
ATOM     21  O   UNL     1       5.342   1.150   5.535  0.00  0.00    -0.503 OA
ATOM     22  H   UNL     1       5.542   0.206   5.685  0.00  0.00    +0.292 HD
ENDBRANCH   9  21
TORSDOF 2
