REMARK  Name = 
REMARK  20 active torsions:
REMARK  status: ('A' for Active; 'I' for Inactive)
REMARK    1  A    between atoms: C_2  and  C_4
REMARK    2  A    between atoms: C_4  and  C_5
REMARK    3  A    between atoms: C_5  and  C_6
REMARK    4  A    between atoms: C_11  and  C_13
REMARK    5  A    between atoms: C_13  and  C_14
REMARK    6  A    between atoms: C_23  and  C_25
REMARK    7  A    between atoms: C_25  and  C_26
REMARK    8  A    between atoms: C_29  and  O_30
REMARK    9  A    between atoms: C_41  and  C_55
REMARK   10  A    between atoms: C_46  and  C_48
REMARK   11  A    between atoms: C_48  and  C_49
REMARK   12  A    between atoms: C_61  and  C_63
REMARK   13  A    between atoms: N_65  and  C_66
REMARK   14  A    between atoms: C_66  and  C_68
REMARK   15  A    between atoms: C_66  and  C_75
REMARK   16  A    between atoms: C_68  and  C_69
REMARK   17  A    between atoms: C_69  and  C_70
REMARK   18  A    between atoms: C_70  and  N_71
REMARK   19  A    between atoms: N_77  and  C_78
REMARK   20  A    between atoms: C_78  and  C_79
REMARK                            x       y       z     vdW  Elec       q    Type
REMARK                         _______ _______ _______ _____ _____    ______ ____
ROOT
ATOM      1  C   UNL     1       9.686  -3.368  -3.845  0.00  0.00    +0.159 C 
ATOM      2  C   UNL     1      11.248  -4.331  -4.874  0.00  0.00    +0.234 C 
ATOM      3  O   UNL     1      10.788  -4.990  -5.861  0.00  0.00    -0.274 OA
ATOM      4  N   UNL     1      13.073  -4.890  -5.053  0.00  0.00    -0.302 N 
ATOM      5  H   UNL     1      12.708  -5.479  -5.822  0.00  0.00    +0.150 HD
ATOM      6  C   UNL     1      14.875  -5.804  -5.567  0.00  0.00    +0.168 C 
ATOM      7  C   UNL     1      16.336  -7.224  -5.268  0.00  0.00    +0.234 C 
ATOM      8  O   UNL     1      15.951  -8.404  -4.912  0.00  0.00    -0.274 OA
ATOM      9  N   UNL     1      18.116  -7.248  -5.488  0.00  0.00    -0.302 N 
ATOM     10  H   UNL     1      18.301  -7.092  -6.481  0.00  0.00    +0.150 HD
ATOM     11  C   UNL     1      19.801  -8.058  -5.053  0.00  0.00    +0.170 C 
ATOM     12  C   UNL     1      20.744  -7.166  -4.054  0.00  0.00    +0.112 C 
ATOM     13  S   UNL     1      20.056  -6.937  -2.402  0.00  0.00    -0.091 S 
ATOM     14  S   UNL     1      18.988  -5.229  -2.648  0.00  0.00    -0.093 S 
ATOM     15  C   UNL     1      17.365  -5.908  -2.985  0.00  0.00    +0.090 C 
ATOM     16  C   UNL     1      16.328  -4.998  -2.448  0.00  0.00    +0.107 C 
ATOM     17  C   UNL     1      14.986  -5.630  -2.538  0.00  0.00    +0.214 C 
ATOM     18  O   UNL     1      14.697  -6.666  -3.107  0.00  0.00    -0.276 OA
ATOM     19  N   UNL     1      14.107  -4.812  -1.927  0.00  0.00    -0.304 N 
ATOM     20  H   UNL     1      14.394  -3.835  -1.861  0.00  0.00    +0.149 HD
ATOM     21  C   UNL     1      12.713  -4.960  -2.108  0.00  0.00    +0.163 C 
ATOM     22  C   UNL     1      12.257  -3.655  -1.493  0.00  0.00    +0.234 C 
ATOM     23  O   UNL     1      12.935  -2.638  -1.401  0.00  0.00    -0.274 OA
ATOM     24  N   UNL     1      10.966  -3.671  -1.245  0.00  0.00    -0.302 N 
ATOM     25  H   UNL     1      10.485  -4.499  -1.620  0.00  0.00    +0.150 HD
ATOM     26  C   UNL     1      10.146  -2.604  -0.717  0.00  0.00    +0.163 C 
ATOM     27  C   UNL     1       8.993  -3.513  -1.064  0.00  0.00    +0.234 C 
ATOM     28  O   UNL     1       8.461  -4.353  -0.351  0.00  0.00    -0.274 OA
ATOM     29  N   UNL     1       8.876  -3.593  -2.414  0.00  0.00    -0.302 N 
ATOM     30  H   UNL     1       8.504  -2.647  -2.335  0.00  0.00    +0.150 HD
ENDROOT
BRANCH  11  31
ATOM     31  C   UNL     1      20.716  -9.653  -4.692  0.00  0.00    +0.237 C 
ATOM     32  N   UNL     1      21.873 -10.264  -5.349  0.00  0.00    -0.288 N 
ATOM     33  C   UNL     1      22.193 -11.778  -5.204  0.00  0.00    +0.162 C 
ATOM     34  C   UNL     1      22.375 -12.253  -6.678  0.00  0.00    +0.033 C 
ATOM     35  C   UNL     1      22.413 -10.964  -7.503  0.00  0.00    +0.021 C 
ATOM     36  C   UNL     1      22.698  -9.859  -6.489  0.00  0.00    +0.109 C 
ATOM     37  O   UNL     1      20.477 -10.198  -3.593  0.00  0.00    -0.274 OA
BRANCH  33  38
ATOM     38  C   UNL     1      23.455 -12.299  -4.382  0.00  0.00    +0.234 C 
ATOM     39  N   UNL     1      23.418 -12.002  -3.046  0.00  0.00    -0.302 N 
ATOM     40  H   UNL     1      22.593 -11.525  -2.691  0.00  0.00    +0.150 HD
ATOM     41  O   UNL     1      24.349 -13.000  -4.848  0.00  0.00    -0.274 OA
BRANCH  39  42
ATOM     42  C   UNL     1      24.437 -12.420  -2.068  0.00  0.00    +0.159 C 
BRANCH  42  43
ATOM     43  C   UNL     1      23.761 -12.561  -0.677  0.00  0.00    +0.234 C 
ATOM     44  N   UNL     1      24.589 -12.891   0.372  0.00  0.00    -0.305 N 
ATOM     45  H   UNL     1      25.548 -13.168   0.204  0.00  0.00    +0.149 HD
ATOM     46  O   UNL     1      22.553 -12.391  -0.515  0.00  0.00    -0.274 OA
BRANCH  44  47
ATOM     47  C   UNL     1      24.102 -12.967   1.744  0.00  0.00    +0.199 C 
BRANCH  47  48
ATOM     48  C   UNL     1      23.626 -14.367   2.135  0.00  0.00    +0.228 C 
ATOM     49  O   UNL     1      24.079 -14.981   3.097  0.00  0.00    -0.274 OA
ATOM     50  N   UNL     1      22.605 -14.881   1.391  0.00  0.00    -0.328 N 
ATOM     51  H   UNL     1      22.204 -15.765   1.678  0.00  0.00    +0.145 HD
ATOM     52  H   UNL     1      22.129 -14.327   0.686  0.00  0.00    +0.145 HD
ENDBRANCH  47  48
ENDBRANCH  44  47
ENDBRANCH  42  43
BRANCH  42  53
ATOM     53  C   UNL     1      25.591 -11.404  -2.047  0.00  0.00    +0.035 C 
BRANCH  53  54
ATOM     54  C   UNL     1      25.102  -9.998  -1.678  0.00  0.00    +0.039 C 
BRANCH  54  55
ATOM     55  C   UNL     1      26.233  -8.980  -1.701  0.00  0.00    +0.196 C 
BRANCH  55  56
ATOM     56  N   UNL     1      25.726  -7.657  -1.407  0.00  0.00    -0.276 N 
ATOM     57  H   UNL     1      24.746  -7.581  -1.170  0.00  0.00    +0.258 HD
ATOM     58  C   UNL     1      26.485  -6.548  -1.299  0.00  0.00    +0.376 C 
ATOM     59  N   UNL     1      27.755  -6.469  -1.459  0.00  0.00    -0.130 NA
ATOM     60  H   UNL     1      28.123  -7.391  -1.687  0.00  0.00    +0.306 HD
ATOM     61  N   UNL     1      25.794  -5.434  -1.032  0.00  0.00    -0.289 N 
ATOM     62  H   UNL     1      26.350  -4.605  -0.865  0.00  0.00    +0.255 HD
ATOM     63  H   UNL     1      24.827  -5.421  -0.758  0.00  0.00    +0.255 HD
ENDBRANCH  55  56
ENDBRANCH  54  55
ENDBRANCH  53  54
ENDBRANCH  42  53
ENDBRANCH  39  42
ENDBRANCH  33  38
ENDBRANCH  11  31
BRANCH  26  64
ATOM     64  C   UNL     1      10.197  -1.214  -1.482  0.00  0.00    +0.067 C 
BRANCH  64  65
ATOM     65  C   UNL     1       9.152  -0.173  -1.088  0.00  0.00    -0.045 A 
ATOM     66  C   UNL     1       8.659   0.805  -1.986  0.00  0.00    +0.004 A 
ATOM     67  C   UNL     1       7.698   1.746  -1.575  0.00  0.00    +0.000 A 
ATOM     68  C   UNL     1       7.190   1.702  -0.281  0.00  0.00    +0.000 A 
ATOM     69  C   UNL     1       7.670   0.749   0.610  0.00  0.00    +0.000 A 
ATOM     70  C   UNL     1       8.665  -0.149   0.220  0.00  0.00    +0.004 A 
ENDBRANCH  64  65
ENDBRANCH  26  64
BRANCH  21  71
ATOM     71  C   UNL     1      12.022  -6.305  -1.840  0.00  0.00    +0.067 C 
BRANCH  71  72
ATOM     72  C   UNL     1      11.877  -6.640  -0.393  0.00  0.00    -0.045 A 
ATOM     73  C   UNL     1      13.014  -6.734   0.412  0.00  0.00    +0.007 A 
ATOM     74  C   UNL     1      12.891  -7.047   1.756  0.00  0.00    +0.045 A 
ATOM     75  C   UNL     1      11.628  -7.247   2.295  0.00  0.00    +0.117 A 
ATOM     76  C   UNL     1      10.485  -7.175   1.505  0.00  0.00    +0.045 A 
ATOM     77  C   UNL     1      10.611  -6.882   0.153  0.00  0.00    +0.007 A 
BRANCH  75  78
ATOM     78  O   UNL     1      11.547  -7.510   3.629  0.00  0.00    -0.507 OA
ATOM     79  H   UNL     1      10.608  -7.500   3.874  0.00  0.00    +0.292 HD
ENDBRANCH  75  78
ENDBRANCH  71  72
ENDBRANCH  21  71
BRANCH   6  80
ATOM     80  C   UNL     1      15.850  -5.473  -7.119  0.00  0.00    +0.127 C 
BRANCH  80  81
ATOM     81  C   UNL     1      17.234  -4.945  -7.819  0.00  0.00    +0.213 C 
ATOM     82  O   UNL     1      18.126  -5.692  -8.255  0.00  0.00    -0.276 OA
ATOM     83  N   UNL     1      17.502  -3.624  -7.703  0.00  0.00    -0.329 N 
ATOM     84  H   UNL     1      18.251  -3.419  -7.044  0.00  0.00    +0.145 HD
ATOM     85  H   UNL     1      16.695  -3.041  -7.583  0.00  0.00    +0.145 HD
ENDBRANCH  80  81
ENDBRANCH   6  80
BRANCH   1  86
ATOM     86  C   UNL     1       7.910  -2.298  -3.952  0.00  0.00    +0.041 C 
BRANCH  86  87
ATOM     87  C   UNL     1       6.392  -1.855  -2.683  0.00  0.00    +0.098 C 
BRANCH  87  91
ATOM     88  N   UNL     1       3.985  -0.484  -1.415  0.00  0.00    -0.329 N 
ATOM     89  H   UNL     1       3.652  -1.023  -0.609  0.00  0.00    +0.145 HD
ATOM     90  H   UNL     1       3.354   0.345  -1.455  0.00  0.00    +0.145 HD
ATOM     91  C   UNL     1       5.053  -0.527  -2.403  0.00  0.00    +0.211 C 
ATOM     92  O   UNL     1       4.998   0.501  -3.098  0.00  0.00    -0.276 OA
ENDBRANCH  87  91
ENDBRANCH  86  87
ENDBRANCH   1  86
TORSDOF 20
