REMARK  Name = 
REMARK  8 active torsions:
REMARK  status: ('A' for Active; 'I' for Inactive)
REMARK    1  A    between atoms: C_1  and  N_2
REMARK    2  A    between atoms: N_2  and  C_3
REMARK    3  A    between atoms: N_2  and  C_4
REMARK    4  A    between atoms: C_4  and  C_5
REMARK    5  A    between atoms: C_5  and  C_6
REMARK    6  A    between atoms: C_19  and  C_20
REMARK    7  A    between atoms: C_20  and  C_21
REMARK    8  A    between atoms: C_21  and  O_22
REMARK                            x       y       z     vdW  Elec       q    Type
REMARK                         _______ _______ _______ _____ _____    ______ ____
ROOT
ATOM      1  C   UNL     1       5.098  -2.497   1.445  0.00  0.00    -0.017 C 
ATOM      2  C   UNL     1       6.423  -2.723   1.622  0.00  0.00    -0.011 C 
ATOM      3  C   UNL     1       7.450  -1.788   1.085  0.00  0.00    +0.024 A 
ATOM      4  C   UNL     1       7.428  -1.501  -0.300  0.00  0.00    +0.016 A 
ATOM      5  C   UNL     1       8.313  -0.582  -0.884  0.00  0.00    -0.036 A 
ATOM      6  C   UNL     1       9.287   0.002  -0.072  0.00  0.00    +0.008 A 
ATOM      7  C   UNL     1       9.378  -0.339   1.279  0.00  0.00    +0.046 A 
ATOM      8  C   UNL     1       8.469  -1.227   1.871  0.00  0.00    +0.129 A 
ATOM      9  O   UNL     1       8.750  -1.471   3.191  0.00  0.00    -0.487 OA
ATOM     10  C   UNL     1       7.752  -2.071   4.017  0.00  0.00    +0.265 C 
ATOM     11  C   UNL     1       7.511  -3.522   3.686  0.00  0.00    -0.003 A 
ATOM     12  C   UNL     1       7.971  -4.554   4.516  0.00  0.00    +0.007 A 
ATOM     13  C   UNL     1       7.737  -5.886   4.174  0.00  0.00    +0.000 A 
ATOM     14  C   UNL     1       7.043  -6.197   3.005  0.00  0.00    +0.001 A 
ATOM     15  C   UNL     1       6.583  -5.177   2.170  0.00  0.00    +0.009 A 
ATOM     16  C   UNL     1       6.817  -3.840   2.506  0.00  0.00    -0.011 A 
ENDROOT
BRANCH   1  17
ATOM     17  C   UNL     1       4.491  -1.314   0.725  0.00  0.00    +0.043 C 
BRANCH  17  18
ATOM     18  C   UNL     1       3.150  -0.822   1.298  0.00  0.00    +0.088 C 
BRANCH  18  20
ATOM     19  C   UNL     1       1.283   0.691   1.069  0.00  0.00    +0.104 C 
ATOM     20  N   UNL     1       2.609   0.338   0.559  0.00  0.00    -0.308 NA
ATOM     21  C   UNL     1       3.480   1.515   0.621  0.00  0.00    +0.104 C 
ENDBRANCH  18  20
ENDBRANCH  17  18
ENDBRANCH   1  17
BRANCH   5  22
ATOM     22  C   UNL     1       8.273  -0.290  -2.368  0.00  0.00    +0.155 C 
BRANCH  22  23
ATOM     23  C   UNL     1       7.013   0.316  -2.958  0.00  0.00    +0.309 C 
ATOM     24  O   UNL     1       6.875   0.462  -4.169  0.00  0.00    -0.251 OA
BRANCH  23  25
ATOM     25  O   UNL     1       6.060   0.721  -2.100  0.00  0.00    -0.480 OA
ATOM     26  H   UNL     1       6.263   0.576  -1.157  0.00  0.00    +0.295 HD
ENDBRANCH  23  25
ENDBRANCH  22  23
ENDBRANCH   5  22
TORSDOF 6
