REMARK  Name = 
REMARK  14 active torsions:
REMARK  status: ('A' for Active; 'I' for Inactive)
REMARK    1  A    between atoms: C_1  and  O_2
REMARK    2  A    between atoms: O_2  and  C_3
REMARK    3  A    between atoms: C_3  and  C_5
REMARK    4  A    between atoms: C_5  and  C_6
REMARK    5  A    between atoms: C_6  and  C_7
REMARK    6  A    between atoms: C_10  and  O_11
REMARK    7  A    between atoms: O_11  and  C_12
REMARK    8  A    between atoms: C_12  and  C_13
REMARK    9  A    between atoms: C_13  and  O_14
REMARK   10  A    between atoms: C_13  and  C_15
REMARK   11  A    between atoms: C_15  and  N_16
REMARK   12  A    between atoms: N_16  and  C_17
REMARK   13  A    between atoms: C_17  and  C_18
REMARK   14  A    between atoms: C_17  and  C_19
REMARK                            x       y       z     vdW  Elec       q    Type
REMARK                         _______ _______ _______ _____ _____    ______ ____
ROOT
ATOM      1  C   UNL     1       6.683   2.194  -1.489  0.00  0.00    -0.047 A 
ATOM      2  C   UNL     1       7.458   1.636  -2.517  0.00  0.00    +0.007 A 
ATOM      3  C   UNL     1       8.858   1.752  -2.506  0.00  0.00    +0.046 A 
ATOM      4  C   UNL     1       9.499   2.420  -1.460  0.00  0.00    +0.121 A 
ATOM      5  C   UNL     1       8.730   2.927  -0.415  0.00  0.00    +0.046 A 
ATOM      6  C   UNL     1       7.345   2.806  -0.424  0.00  0.00    +0.007 A 
ENDROOT
BRANCH   1   7
ATOM      7  C   UNL     1       5.173   2.100  -1.510  0.00  0.00    +0.046 C 
BRANCH   7   8
ATOM      8  C   UNL     1       4.488   3.323  -0.892  0.00  0.00    +0.125 C 
BRANCH   8   9
ATOM      9  C   UNL     1       2.990   3.230  -0.953  0.00  0.00    +0.307 C 
ATOM     10  O   UNL     1       2.353   2.316  -1.454  0.00  0.00    -0.251 OA
BRANCH   9  12
ATOM     11  C   UNL     1       1.028   4.312  -0.284  0.00  0.00    +0.280 C 
ATOM     12  O   UNL     1       2.453   4.321  -0.334  0.00  0.00    -0.468 OA
ENDBRANCH   9  12
ENDBRANCH   8   9
ENDBRANCH   7   8
ENDBRANCH   1   7
BRANCH   4  13
ATOM     13  O   UNL     1      10.871   2.531  -1.532  0.00  0.00    -0.489 OA
BRANCH  13  14
ATOM     14  C   UNL     1      11.444   3.339  -0.488  0.00  0.00    +0.261 C 
BRANCH  14  15
ATOM     15  C   UNL     1      12.941   3.565  -0.709  0.00  0.00    +0.166 C 
BRANCH  15  16
ATOM     16  O   UNL     1      13.621   2.305  -0.720  0.00  0.00    -0.387 OA
ATOM     17  H   UNL     1      13.087   1.716  -1.287  0.00  0.00    +0.210 HD
ENDBRANCH  15  16
BRANCH  15  18
ATOM     18  C   UNL     1      13.245   4.329  -2.009  0.00  0.00    +0.115 C 
BRANCH  18  19
ATOM     19  N   UNL     1      12.582   5.637  -2.049  0.00  0.00    -0.311 NA
ATOM     20  H   UNL     1      12.906   6.204  -1.264  0.00  0.00    +0.122 HD
BRANCH  19  21
ATOM     21  C   UNL     1      12.811   6.377  -3.297  0.00  0.00    +0.048 C 
ATOM     22  C   UNL     1      12.104   7.730  -3.177  0.00  0.00    +0.023 C 
ATOM     23  C   UNL     1      12.285   5.639  -4.530  0.00  0.00    +0.023 C 
ENDBRANCH  19  21
ENDBRANCH  18  19
ENDBRANCH  15  18
ENDBRANCH  14  15
ENDBRANCH  13  14
ENDBRANCH   4  13
TORSDOF 11
