REMARK  Name = 
REMARK  8 active torsions:
REMARK  status: ('A' for Active; 'I' for Inactive)
REMARK    1  A    between atoms: C_1  and  N_2
REMARK    2  A    between atoms: N_9  and  C_10
REMARK    3  A    between atoms: C_10  and  C_11
REMARK    4  A    between atoms: C_11  and  C_12
REMARK    5  A    between atoms: C_12  and  C_13
REMARK    6  A    between atoms: C_13  and  C_14
REMARK    7  A    between atoms: C_14  and  C_15
REMARK    8  A    between atoms: N_19  and  C_20
REMARK                            x       y       z     vdW  Elec       q    Type
REMARK                         _______ _______ _______ _____ _____    ______ ____
ROOT
ATOM      1  C   UNL     1       1.041  -0.077   0.089  0.00  0.00    +0.150 C 
ATOM      2  N   UNL     1       2.482  -0.063   0.108  0.00  0.00    -0.328 N 
ATOM      3  C   UNL     1       3.314  -1.146   0.118  0.00  0.00    +0.151 A 
ATOM      4  C   UNL     1       3.054  -2.545   0.127  0.00  0.00    +0.282 A 
ATOM      5  N   UNL     1       4.221  -3.322   0.105  0.00  0.00    -0.259 N 
ATOM      6  C   UNL     1       5.535  -2.806   0.026  0.00  0.00    +0.333 A 
ATOM      7  N   UNL     1       5.685  -1.420   0.079  0.00  0.00    -0.280 N 
ATOM      8  C   UNL     1       7.006  -0.818   0.064  0.00  0.00    +0.155 C 
ATOM      9  O   UNL     1       6.511  -3.553  -0.085  0.00  0.00    -0.246 OA
ATOM     10  O   UNL     1       1.915  -3.002   0.142  0.00  0.00    -0.265 OA
ATOM     11  C   UNL     1       4.569  -0.621   0.106  0.00  0.00    +0.168 A 
ATOM     12  N   UNL     1       4.555   0.741   0.109  0.00  0.00    -0.218 NA
ATOM     13  C   UNL     1       3.275   1.054   0.105  0.00  0.00    +0.202 A 
ENDROOT
BRANCH   5  14
ATOM     14  C   UNL     1       4.068  -4.779   0.067  0.00  0.00    +0.130 C 
BRANCH  14  15
ATOM     15  C   UNL     1       4.624  -5.471   1.320  0.00  0.00    +0.022 C 
BRANCH  15  16
ATOM     16  C   UNL     1       4.399  -6.986   1.295  0.00  0.00    +0.009 C 
BRANCH  16  17
ATOM     17  C   UNL     1       5.031  -7.643   2.522  0.00  0.00    +0.074 C 
BRANCH  17  18
ATOM     18  C   UNL     1       4.838  -9.148   2.563  0.00  0.00    +0.130 C 
ATOM     19  O   UNL     1       4.229  -9.766   1.691  0.00  0.00    -0.298 OA
ATOM     20  C   UNL     1       5.438  -9.872   3.744  0.00  0.00    +0.086 C 
ENDBRANCH  17  18
ENDBRANCH  16  17
ENDBRANCH  15  16
ENDBRANCH  14  15
ENDBRANCH   5  14
TORSDOF 5
