REMARK  Name = 
REMARK  13 active torsions:
REMARK  status: ('A' for Active; 'I' for Inactive)
REMARK    1  A    between atoms: CA_4  and  C_34
REMARK    2  A    between atoms: C_7  and  CA_9
REMARK    3  A    between atoms: CA_9  and  CB_11
REMARK    4  A    between atoms: CA_9  and  N_12
REMARK    5  A    between atoms: N_12  and  C_13
REMARK    6  A    between atoms: C_13  and  C_15
REMARK    7  A    between atoms: C_13  and  C_23
REMARK    8  A    between atoms: C_15  and  C_16
REMARK    9  A    between atoms: C_16  and  C_17
REMARK   10  A    between atoms: C_23  and  O_25
REMARK   11  A    between atoms: O_25  and  C_26
REMARK   12  A    between atoms: C_26  and  C_27
REMARK   13  A    between atoms: C_34  and  O_35
REMARK                            x       y       z     vdW  Elec       q    Type
REMARK                         _______ _______ _______ _____ _____    ______ ____
ROOT
ATOM      1  CA  UNL     1       2.568  -1.693   4.329  0.00  0.00    +0.138 C 
ATOM      2  CB  UNL     1       1.289  -0.875   4.121  0.00  0.00    +0.034 C 
ENDROOT
BRANCH   1  10
ATOM      3  C   UNL     1       5.515   1.206   1.819  0.00  0.00    +0.012 C 
ATOM      4  C   UNL     1       6.156   2.562   1.594  0.00  0.00    +0.005 C 
ATOM      5  C   UNL     1       7.461   2.652   2.391  0.00  0.00    +0.000 C 
ATOM      6  C   UNL     1       7.298   2.241   3.861  0.00  0.00    +0.002 C 
ATOM      7  C   UNL     1       6.559   0.901   4.050  0.00  0.00    +0.023 C 
ATOM      8  C   UNL     1       5.227   0.957   3.302  0.00  0.00    +0.080 C 
ATOM      9  N   UNL     1       4.335  -0.207   3.266  0.00  0.00    -0.283 N 
ATOM     10  C   UNL     1       3.805  -0.741   4.450  0.00  0.00    +0.233 C 
ATOM     11  O   UNL     1       4.282  -0.449   5.548  0.00  0.00    -0.274 OA
ATOM     12  CA  UNL     1       3.652  -0.262   1.945  0.00  0.00    +0.185 C 
ATOM     13  C   UNL     1       4.149   0.981   1.191  0.00  0.00    +0.039 C 
BRANCH  12  14
ATOM     14  C   UNL     1       3.969  -1.525   1.145  0.00  0.00    +0.325 C 
ATOM     15  OXT UNL     1       3.333  -1.874   0.160  0.00  0.00    -0.249 OA
BRANCH  14  16
ATOM     16  O   UNL     1       5.063  -2.185   1.585  0.00  0.00    -0.479 OA
ATOM     17  H   UNL     1       5.447  -1.748   2.376  0.00  0.00    +0.295 HD
ENDBRANCH  14  16
ENDBRANCH  12  14
ENDBRANCH   1  10
BRANCH   1  18
ATOM     18  N   UNL     1       2.477  -2.563   5.522  0.00  0.00    -0.294 NA
ATOM     19  H   UNL     1       2.351  -1.970   6.347  0.00  0.00    +0.123 HD
BRANCH  18  20
ATOM     20  C   UNL     1       1.418  -3.599   5.477  0.00  0.00    +0.164 C 
BRANCH  20  21
ATOM     21  C   UNL     1       1.376  -4.329   6.833  0.00  0.00    +0.324 C 
ATOM     22  O   UNL     1       2.040  -5.316   7.127  0.00  0.00    -0.249 OA
BRANCH  21  23
ATOM     23  O   UNL     1       0.416  -3.771   7.636  0.00  0.00    -0.464 OA
BRANCH  23  24
ATOM     24  C   UNL     1      -0.001  -4.590   8.739  0.00  0.00    +0.229 C 
ATOM     25  C   UNL     1      -1.172  -5.438   8.273  0.00  0.00    +0.048 C 
ENDBRANCH  23  24
ENDBRANCH  21  23
ENDBRANCH  20  21
BRANCH  20  26
ATOM     26  C   UNL     1       1.656  -4.636   4.357  0.00  0.00    +0.035 C 
BRANCH  26  27
ATOM     27  C   UNL     1       0.589  -5.740   4.308  0.00  0.00    +0.037 C 
BRANCH  27  28
ATOM     28  C   UNL     1       0.889  -6.743   3.222  0.00  0.00    -0.047 A 
ATOM     29  C   UNL     1       0.450  -6.521   1.907  0.00  0.00    +0.003 A 
ATOM     30  C   UNL     1       0.753  -7.440   0.898  0.00  0.00    +0.000 A 
ATOM     31  C   UNL     1       1.493  -8.579   1.188  0.00  0.00    +0.000 A 
ATOM     32  C   UNL     1       1.940  -8.806   2.491  0.00  0.00    +0.000 A 
ATOM     33  C   UNL     1       1.646  -7.887   3.499  0.00  0.00    +0.003 A 
ENDBRANCH  27  28
ENDBRANCH  26  27
ENDBRANCH  20  26
ENDBRANCH  18  20
ENDBRANCH   1  18
TORSDOF 11
