REMARK  Name = 
REMARK  3 active torsions:
REMARK  status: ('A' for Active; 'I' for Inactive)
REMARK    1  A    between atoms: O_1  and  C_2
REMARK    2  A    between atoms: C_2  and  C_4
REMARK    3  A    between atoms: C_9  and  O_10
REMARK                            x       y       z     vdW  Elec       q    Type
REMARK                         _______ _______ _______ _____ _____    ______ ____
ROOT
ATOM      1  C   UNL     1       3.080  -1.047   0.910  0.00  0.00    +0.100 A 
ATOM      2  C   UNL     1       2.668  -2.386   0.855  0.00  0.00    +0.131 A 
ATOM      3  C   UNL     1       3.346  -3.372   1.576  0.00  0.00    +0.046 A 
ATOM      4  C   UNL     1       4.451  -3.027   2.354  0.00  0.00    +0.004 A 
ATOM      5  C   UNL     1       4.879  -1.702   2.412  0.00  0.00    +0.001 A 
ATOM      6  C   UNL     1       4.196  -0.717   1.695  0.00  0.00    +0.018 A 
ENDROOT
BRANCH   1   7
ATOM      7  C   UNL     1       2.406   0.069   0.181  0.00  0.00    +0.340 C 
ATOM      8  O   UNL     1       2.812   1.220   0.223  0.00  0.00    -0.245 OA
BRANCH   7   9
ATOM      9  O   UNL     1       1.309  -0.281  -0.523  0.00  0.00    -0.477 OA
ATOM     10  H   UNL     1       1.120  -1.243  -0.461  0.00  0.00    +0.295 HD
ENDBRANCH   7   9
ENDBRANCH   1   7
BRANCH   2  11
ATOM     11  O   UNL     1       1.589  -2.744   0.086  0.00  0.00    -0.506 OA
ATOM     12  H   UNL     1       1.503  -3.716   0.108  0.00  0.00    +0.292 HD
ENDBRANCH   2  11
TORSDOF 3
