REMARK  Name = 
REMARK  16 active torsions:
REMARK  status: ('A' for Active; 'I' for Inactive)
REMARK    1  A    between atoms: C_1  and  C_2
REMARK    2  A    between atoms: C_2  and  C_3
REMARK    3  A    between atoms: C_3  and  C_4
REMARK    4  A    between atoms: C_4  and  S_5
REMARK    5  A    between atoms: S_5  and  N_8
REMARK    6  A    between atoms: N_8  and  C_9
REMARK    7  A    between atoms: C_9  and  C_11
REMARK    8  A    between atoms: C_9  and  C_29
REMARK    9  A    between atoms: C_11  and  C_12
REMARK   10  A    between atoms: C_15  and  O_16
REMARK   11  A    between atoms: O_16  and  C_17
REMARK   12  A    between atoms: C_17  and  C_18
REMARK   13  A    between atoms: C_18  and  C_19
REMARK   14  A    between atoms: C_19  and  C_20
REMARK   15  A    between atoms: C_20  and  C_21
REMARK   16  A    between atoms: C_29  and  O_30
REMARK                            x       y       z     vdW  Elec       q    Type
REMARK                         _______ _______ _______ _____ _____    ______ ____
ROOT
ATOM      1  C   UNL     1       5.583   5.932  -0.219  0.00  0.00    -0.045 A 
ATOM      2  C   UNL     1       4.870   7.047  -0.678  0.00  0.00    +0.007 A 
ATOM      3  C   UNL     1       3.466   7.017  -0.742  0.00  0.00    +0.046 A 
ATOM      4  C   UNL     1       2.769   5.883  -0.313  0.00  0.00    +0.121 A 
ATOM      5  C   UNL     1       3.482   4.861   0.321  0.00  0.00    +0.046 A 
ATOM      6  C   UNL     1       4.861   4.890   0.369  0.00  0.00    +0.007 A 
ENDROOT
BRANCH   1   7
ATOM      7  C   UNL     1       7.077   5.735  -0.311  0.00  0.00    +0.067 C 
BRANCH   7   8
ATOM      8  C   UNL     1       7.807   6.127  -1.605  0.00  0.00    +0.188 C 
BRANCH   8   9
ATOM      9  N   UNL     1       8.075   7.642  -1.814  0.00  0.00    -0.180 NA
ATOM     10  H   UNL     1       8.671   7.710  -2.651  0.00  0.00    +0.149 HD
BRANCH   9  11
ATOM     11  S   UNL     1       8.971   8.267  -0.507  0.00  0.00    +0.030 S 
ATOM     12  O   UNL     1       8.078   8.332   0.623  0.00  0.00    -0.158 OA
ATOM     13  O   UNL     1      10.181   7.475  -0.480  0.00  0.00    -0.158 OA
BRANCH  11  14
ATOM     14  C   UNL     1       9.420   9.972  -0.922  0.00  0.00    +0.185 C 
BRANCH  14  15
ATOM     15  C   UNL     1      10.227  10.475   0.283  0.00  0.00    +0.024 C 
BRANCH  15  17
ATOM     16  C   UNL     1      11.486  12.208   1.534  0.00  0.00    +0.004 C 
ATOM     17  C   UNL     1      10.710  11.917   0.248  0.00  0.00    -0.002 C 
ENDBRANCH  15  17
ENDBRANCH  14  15
ENDBRANCH  11  14
ENDBRANCH   9  11
ENDBRANCH   8   9
BRANCH   8  18
ATOM     18  C   UNL     1       7.099   5.545  -2.821  0.00  0.00    +0.324 C 
ATOM     19  O   UNL     1       7.094   4.364  -3.135  0.00  0.00    -0.249 OA
BRANCH  18  20
ATOM     20  O   UNL     1       6.468   6.501  -3.556  0.00  0.00    -0.479 OA
ATOM     21  H   UNL     1       6.516   7.354  -3.071  0.00  0.00    +0.295 HD
ENDBRANCH  18  20
ENDBRANCH   8  18
ENDBRANCH   7   8
ENDBRANCH   1   7
BRANCH   4  22
ATOM     22  O   UNL     1       1.409   5.822  -0.553  0.00  0.00    -0.492 OA
BRANCH  22  23
ATOM     23  C   UNL     1       0.870   4.510  -0.340  0.00  0.00    +0.229 C 
BRANCH  23  24
ATOM     24  C   UNL     1      -0.581   4.360  -0.769  0.00  0.00    +0.041 C 
BRANCH  24  25
ATOM     25  C   UNL     1      -1.070   2.945  -0.396  0.00  0.00    +0.004 C 
BRANCH  25  26
ATOM     26  C   UNL     1      -2.518   2.740  -0.821  0.00  0.00    +0.004 C 
BRANCH  26  27
ATOM     27  C   UNL     1      -3.191   1.441  -0.324  0.00  0.00    -0.009 C 
ATOM     28  C   UNL     1      -2.535   0.117  -0.760  0.00  0.00    +0.018 C 
ATOM     29  C   UNL     1      -2.871  -0.324  -2.188  0.00  0.00    +0.081 C 
ATOM     30  N   UNL     1      -4.302  -0.256  -2.478  0.00  0.00    -0.316 NA
ATOM     31  H   UNL     1      -4.463  -0.513  -3.452  0.00  0.00    +0.122 HD
ATOM     32  C   UNL     1      -4.827   1.085  -2.237  0.00  0.00    +0.081 C 
ATOM     33  C   UNL     1      -4.667   1.451  -0.763  0.00  0.00    +0.018 C 
ENDBRANCH  26  27
ENDBRANCH  25  26
ENDBRANCH  24  25
ENDBRANCH  23  24
ENDBRANCH  22  23
ENDBRANCH   4  22
TORSDOF 15
