REMARK  Name = 
REMARK  4 active torsions:
REMARK  status: ('A' for Active; 'I' for Inactive)
REMARK    1  A    between atoms: N_1  and  C_2
REMARK    2  A    between atoms: C_4  and  C_5
REMARK    3  A    between atoms: C_5  and  O_6
REMARK    4  A    between atoms: C_8  and  O_9
REMARK                            x       y       z     vdW  Elec       q    Type
REMARK                         _______ _______ _______ _____ _____    ______ ____
ROOT
ATOM      1  C   UNL     1       2.440   0.106  -0.006  0.00  0.00    +0.026 A 
ATOM      2  C   UNL     1       3.203  -1.064   0.025  0.00  0.00    +0.026 A 
ATOM      3  C   UNL     1       4.589  -1.021  -0.136  0.00  0.00    +0.048 A 
ATOM      4  C   UNL     1       5.221   0.211  -0.267  0.00  0.00    +0.131 A 
ATOM      5  C   UNL     1       4.489   1.398  -0.230  0.00  0.00    +0.102 A 
ATOM      6  C   UNL     1       3.097   1.336  -0.086  0.00  0.00    +0.041 A 
ENDROOT
BRANCH   1   7
ATOM      7  N   UNL     1       1.072   0.062   0.283  0.00  0.00    -0.358 N 
ATOM      8  H   UNL     1       0.612  -0.802   0.013  0.00  0.00    +0.142 HD
ATOM      9  H   UNL     1       0.555   0.881  -0.027  0.00  0.00    +0.142 HD
ENDBRANCH   1   7
BRANCH   4  10
ATOM     10  O   UNL     1       6.581   0.238  -0.410  0.00  0.00    -0.506 OA
ATOM     11  H   UNL     1       6.758   0.022  -1.349  0.00  0.00    +0.292 HD
ENDBRANCH   4  10
BRANCH   5  12
ATOM     12  C   UNL     1       5.118   2.738  -0.350  0.00  0.00    +0.340 C 
ATOM     13  O   UNL     1       4.517   3.708  -0.783  0.00  0.00    -0.245 OA
BRANCH  12  14
ATOM     14  O   UNL     1       6.394   2.796   0.089  0.00  0.00    -0.477 OA
ATOM     15  H   UNL     1       6.736   1.921   0.377  0.00  0.00    +0.295 HD
ENDBRANCH  12  14
ENDBRANCH   5  12
TORSDOF 4
