REMARK  Name = 
REMARK  38 active torsions:
REMARK  status: ('A' for Active; 'I' for Inactive)
REMARK    1  A    between atoms: S_2  and  C_5
REMARK    2  A    between atoms: S_12  and  C_15
REMARK    3  A    between atoms: C_21  and  O_22
REMARK    4  A    between atoms: O_22  and  C_23
REMARK    5  A    between atoms: C_24  and  O_25
REMARK    6  A    between atoms: O_25  and  C_26
REMARK    7  A    between atoms: C_28  and  C_29
REMARK    8  A    between atoms: C_29  and  C_30
REMARK    9  A    between atoms: C_34  and  O_35
REMARK   10  A    between atoms: O_35  and  C_36
REMARK   11  A    between atoms: C_37  and  O_38
REMARK   12  A    between atoms: O_38  and  C_39
REMARK   13  A    between atoms: N_44  and  C_45
REMARK   14  A    between atoms: N_44  and  C_46
REMARK   15  A    between atoms: C_46  and  C_47
REMARK   16  A    between atoms: C_47  and  C_48
REMARK   17  A    between atoms: C_48  and  O_50
REMARK   18  A    between atoms: O_50  and  C_51
REMARK   19  A    between atoms: C_51  and  C_52
REMARK   20  A    between atoms: C_52  and  C_53
REMARK   21  A    between atoms: C_53  and  C_54
REMARK   22  A    between atoms: C_54  and  C_55
REMARK   23  A    between atoms: C_55  and  O_56
REMARK   24  A    between atoms: O_56  and  C_57
REMARK   25  A    between atoms: C_57  and  C_59
REMARK   26  A    between atoms: C_59  and  C_60
REMARK   27  A    between atoms: C_60  and  N_61
REMARK   28  A    between atoms: N_61  and  C_62
REMARK   29  A    between atoms: C_67  and  O_68
REMARK   30  A    between atoms: O_68  and  C_69
REMARK   31  A    between atoms: C_70  and  O_71
REMARK   32  A    between atoms: O_71  and  C_72
REMARK   33  A    between atoms: C_75  and  C_77
REMARK   34  A    between atoms: C_77  and  C_78
REMARK   35  A    between atoms: C_80  and  O_81
REMARK   36  A    between atoms: O_81  and  C_82
REMARK   37  A    between atoms: C_83  and  O_84
REMARK   38  A    between atoms: O_84  and  C_85
REMARK                            x       y       z     vdW  Elec       q    Type
REMARK                         _______ _______ _______ _____ _____    ______ ____
ROOT
ATOM      1  C   UNL     1       2.426   0.551  -2.199  0.00  0.00    +0.077 A 
ATOM      2  C   UNL     1       1.818  -0.491  -2.908  0.00  0.00    +0.026 A 
ATOM      3  C   UNL     1       2.537  -1.181  -3.891  0.00  0.00    +0.002 A 
ATOM      4  C   UNL     1       3.852  -0.811  -4.186  0.00  0.00    +0.000 A 
ATOM      5  C   UNL     1       4.455   0.239  -3.493  0.00  0.00    +0.002 A 
ATOM      6  C   UNL     1       3.740   0.926  -2.503  0.00  0.00    +0.026 A 
ENDROOT
BRANCH   1   8
ATOM      7  O   UNL     1       0.084   1.388  -1.473  0.00  0.00    -0.720 OA
ATOM      8  S   UNL     1       1.462   1.523  -0.987  0.00  0.00    -0.051 S 
ATOM      9  O   UNL     1       1.721   0.915   0.313  0.00  0.00    -0.180 OA
ATOM     10  O   UNL     1       2.008   2.875  -1.152  0.00  0.00    -0.180 OA
ENDBRANCH   1   8
TORSDOF 1
REMARK  Name = 
REMARK  38 active torsions:
REMARK  status: ('A' for Active; 'I' for Inactive)
REMARK    1  A    between atoms: S_2  and  C_5
REMARK    2  A    between atoms: S_12  and  C_15
REMARK    3  A    between atoms: C_21  and  O_22
REMARK    4  A    between atoms: O_22  and  C_23
REMARK    5  A    between atoms: C_24  and  O_25
REMARK    6  A    between atoms: O_25  and  C_26
REMARK    7  A    between atoms: C_28  and  C_29
REMARK    8  A    between atoms: C_29  and  C_30
REMARK    9  A    between atoms: C_34  and  O_35
REMARK   10  A    between atoms: O_35  and  C_36
REMARK   11  A    between atoms: C_37  and  O_38
REMARK   12  A    between atoms: O_38  and  C_39
REMARK   13  A    between atoms: N_44  and  C_45
REMARK   14  A    between atoms: N_44  and  C_46
REMARK   15  A    between atoms: C_46  and  C_47
REMARK   16  A    between atoms: C_47  and  C_48
REMARK   17  A    between atoms: C_48  and  O_50
REMARK   18  A    between atoms: O_50  and  C_51
REMARK   19  A    between atoms: C_51  and  C_52
REMARK   20  A    between atoms: C_52  and  C_53
REMARK   21  A    between atoms: C_53  and  C_54
REMARK   22  A    between atoms: C_54  and  C_55
REMARK   23  A    between atoms: C_55  and  O_56
REMARK   24  A    between atoms: O_56  and  C_57
REMARK   25  A    between atoms: C_57  and  C_59
REMARK   26  A    between atoms: C_59  and  C_60
REMARK   27  A    between atoms: C_60  and  N_61
REMARK   28  A    between atoms: N_61  and  C_62
REMARK   29  A    between atoms: C_67  and  O_68
REMARK   30  A    between atoms: O_68  and  C_69
REMARK   31  A    between atoms: C_70  and  O_71
REMARK   32  A    between atoms: O_71  and  C_72
REMARK   33  A    between atoms: C_75  and  C_77
REMARK   34  A    between atoms: C_77  and  C_78
REMARK   35  A    between atoms: C_80  and  O_81
REMARK   36  A    between atoms: O_81  and  C_82
REMARK   37  A    between atoms: C_83  and  O_84
REMARK   38  A    between atoms: O_84  and  C_85
REMARK                            x       y       z     vdW  Elec       q    Type
REMARK                         _______ _______ _______ _____ _____    ______ ____
ROOT
ATOM      1  C   UNL     1       3.420  -1.873   1.838  0.00  0.00    +0.077 A 
ATOM      2  C   UNL     1       3.410  -0.688   2.572  0.00  0.00    +0.026 A 
ATOM      3  C   UNL     1       2.655  -0.632   3.743  0.00  0.00    +0.002 A 
ATOM      4  C   UNL     1       1.943  -1.757   4.173  0.00  0.00    +0.000 A 
ATOM      5  C   UNL     1       2.032  -2.963   3.474  0.00  0.00    +0.002 A 
ATOM      6  C   UNL     1       2.784  -3.026   2.308  0.00  0.00    +0.026 A 
ENDROOT
BRANCH   1   8
ATOM      7  O   UNL     1       2.853  -2.180  -0.622  0.00  0.00    -0.720 OA
ATOM      8  S   UNL     1       4.065  -1.934   0.153  0.00  0.00    -0.051 S 
ATOM      9  O   UNL     1       4.753  -0.657  -0.020  0.00  0.00    -0.180 OA
ATOM     10  O   UNL     1       4.967  -3.087   0.221  0.00  0.00    -0.180 OA
ENDBRANCH   1   8
TORSDOF 1
REMARK  Name = 
REMARK  38 active torsions:
REMARK  status: ('A' for Active; 'I' for Inactive)
REMARK    1  A    between atoms: S_2  and  C_5
REMARK    2  A    between atoms: S_12  and  C_15
REMARK    3  A    between atoms: C_21  and  O_22
REMARK    4  A    between atoms: O_22  and  C_23
REMARK    5  A    between atoms: C_24  and  O_25
REMARK    6  A    between atoms: O_25  and  C_26
REMARK    7  A    between atoms: C_28  and  C_29
REMARK    8  A    between atoms: C_29  and  C_30
REMARK    9  A    between atoms: C_34  and  O_35
REMARK   10  A    between atoms: O_35  and  C_36
REMARK   11  A    between atoms: C_37  and  O_38
REMARK   12  A    between atoms: O_38  and  C_39
REMARK   13  A    between atoms: N_44  and  C_45
REMARK   14  A    between atoms: N_44  and  C_46
REMARK   15  A    between atoms: C_46  and  C_47
REMARK   16  A    between atoms: C_47  and  C_48
REMARK   17  A    between atoms: C_48  and  O_50
REMARK   18  A    between atoms: O_50  and  C_51
REMARK   19  A    between atoms: C_51  and  C_52
REMARK   20  A    between atoms: C_52  and  C_53
REMARK   21  A    between atoms: C_53  and  C_54
REMARK   22  A    between atoms: C_54  and  C_55
REMARK   23  A    between atoms: C_55  and  O_56
REMARK   24  A    between atoms: O_56  and  C_57
REMARK   25  A    between atoms: C_57  and  C_59
REMARK   26  A    between atoms: C_59  and  C_60
REMARK   27  A    between atoms: C_60  and  N_61
REMARK   28  A    between atoms: N_61  and  C_62
REMARK   29  A    between atoms: C_67  and  O_68
REMARK   30  A    between atoms: O_68  and  C_69
REMARK   31  A    between atoms: C_70  and  O_71
REMARK   32  A    between atoms: O_71  and  C_72
REMARK   33  A    between atoms: C_75  and  C_77
REMARK   34  A    between atoms: C_77  and  C_78
REMARK   35  A    between atoms: C_80  and  O_81
REMARK   36  A    between atoms: O_81  and  C_82
REMARK   37  A    between atoms: C_83  and  O_84
REMARK   38  A    between atoms: O_84  and  C_85
REMARK                            x       y       z     vdW  Elec       q    Type
REMARK                         _______ _______ _______ _____ _____    ______ ____
ROOT
ATOM      1  C   UNL     1       1.413  18.514 -14.541  0.00  0.00    +0.007 C 
ENDROOT
BRANCH   1   2
ATOM      2  C   UNL     1       1.372  19.798 -15.356  0.00  0.00    +0.041 C 
BRANCH   2   3
ATOM      3  C   UNL     1       0.541  20.901 -14.700  0.00  0.00    +0.232 C 
BRANCH   3   4
ATOM      4  O   UNL     1       0.508  21.999 -15.613  0.00  0.00    -0.464 OA
BRANCH   4   5
ATOM      5  C   UNL     1       1.630  22.762 -15.596  0.00  0.00    +0.312 C 
ATOM      6  O   UNL     1       2.440  22.835 -14.688  0.00  0.00    -0.251 OA
BRANCH   5   7
ATOM      7  C   UNL     1       1.817  23.384 -16.943  0.00  0.00    +0.171 C 
BRANCH   7   8
ATOM      8  C   UNL     1       0.606  24.238 -17.259  0.00  0.00    +0.145 C 
BRANCH   8   9
ATOM      9  N   UNL     1       0.697  24.943 -18.634  0.00  0.00    +0.247 N 
ATOM     10  C   UNL     1       1.981  25.775 -18.711  0.00  0.00    +0.193 C 
ATOM     11  C   UNL     1      -0.617  25.853 -18.872  0.00  0.00    +0.102 C 
ATOM     12  C   UNL     1      -1.856  24.960 -19.089  0.00  0.00    +0.008 A 
ATOM     13  C   UNL     1      -1.749  23.637 -19.547  0.00  0.00    -0.030 A 
ATOM     14  C   UNL     1      -2.897  22.837 -19.692  0.00  0.00    +0.053 A 
ATOM     15  C   UNL     1      -4.180  23.323 -19.425  0.00  0.00    +0.162 A 
ATOM     16  C   UNL     1      -4.316  24.640 -19.015  0.00  0.00    +0.162 A 
ATOM     17  C   UNL     1      -0.424  22.994 -19.845  0.00  0.00    +0.086 C 
ATOM     18  C   UNL     1      -3.161  25.427 -18.900  0.00  0.00    +0.058 A 
ATOM     19  C   UNL     1       0.749  23.959 -19.828  0.00  0.00    +0.138 C 
BRANCH  15  20
ATOM     20  O   UNL     1      -5.251  22.483 -19.476  0.00  0.00    -0.491 OA
ATOM     21  C   UNL     1      -5.437  21.869 -20.752  0.00  0.00    +0.277 C 
ENDBRANCH  15  20
BRANCH  16  22
ATOM     22  O   UNL     1      -5.446  25.340 -18.698  0.00  0.00    -0.491 OA
ATOM     23  C   UNL     1      -6.679  24.643 -18.633  0.00  0.00    +0.277 C 
ENDBRANCH  16  22
BRANCH  11  24
ATOM     24  C   UNL     1      -0.709  26.982 -17.759  0.00  0.00    +0.094 C 
BRANCH  24  25
ATOM     25  C   UNL     1      -1.723  28.083 -18.027  0.00  0.00    -0.038 A 
ATOM     26  C   UNL     1      -1.675  28.815 -19.218  0.00  0.00    +0.007 A 
ATOM     27  C   UNL     1      -2.774  29.579 -19.618  0.00  0.00    +0.049 A 
ATOM     28  C   UNL     1      -3.933  29.621 -18.838  0.00  0.00    +0.161 A 
ATOM     29  C   UNL     1      -3.951  28.977 -17.585  0.00  0.00    +0.162 A 
ATOM     30  C   UNL     1      -2.823  28.262 -17.159  0.00  0.00    +0.053 A 
BRANCH  29  31
ATOM     31  O   UNL     1      -5.132  29.060 -16.892  0.00  0.00    -0.491 OA
ATOM     32  C   UNL     1      -5.338  28.194 -15.787  0.00  0.00    +0.277 C 
ENDBRANCH  29  31
BRANCH  28  33
ATOM     33  O   UNL     1      -5.102  30.230 -19.218  0.00  0.00    -0.491 OA
ATOM     34  C   UNL     1      -5.164  30.797 -20.519  0.00  0.00    +0.277 C 
ENDBRANCH  28  33
ENDBRANCH  24  25
ENDBRANCH  11  24
ENDBRANCH   8   9
ENDBRANCH   7   8
ENDBRANCH   5   7
ENDBRANCH   4   5
ENDBRANCH   3   4
ENDBRANCH   2   3
ENDBRANCH   1   2
BRANCH   1  35
ATOM     35  C   UNL     1       0.035  17.917 -14.280  0.00  0.00    +0.041 C 
BRANCH  35  36
ATOM     36  C   UNL     1      -0.714  17.552 -15.560  0.00  0.00    +0.232 C 
BRANCH  36  37
ATOM     37  O   UNL     1      -2.032  17.148 -15.163  0.00  0.00    -0.464 OA
BRANCH  37  38
ATOM     38  C   UNL     1      -3.065  17.850 -15.692  0.00  0.00    +0.312 C 
ATOM     39  O   UNL     1      -3.002  18.646 -16.615  0.00  0.00    -0.251 OA
BRANCH  38  40
ATOM     40  C   UNL     1      -4.288  17.630 -14.845  0.00  0.00    +0.171 C 
BRANCH  40  41
ATOM     41  C   UNL     1      -5.565  17.660 -15.678  0.00  0.00    +0.145 C 
BRANCH  41  43
ATOM     42  C   UNL     1      -8.213  17.615 -15.727  0.00  0.00    +0.102 C 
ATOM     43  N   UNL     1      -6.874  17.592 -14.837  0.00  0.00    +0.247 N 
ATOM     44  C   UNL     1      -6.892  16.332 -13.959  0.00  0.00    +0.193 C 
ATOM     45  C   UNL     1      -6.992  18.812 -13.880  0.00  0.00    +0.138 C 
ATOM     46  C   UNL     1      -7.024  20.149 -14.622  0.00  0.00    +0.086 C 
ATOM     47  C   UNL     1      -7.927  20.153 -15.824  0.00  0.00    -0.030 A 
ATOM     48  C   UNL     1      -8.112  21.345 -16.540  0.00  0.00    +0.053 A 
ATOM     49  C   UNL     1      -8.944  21.407 -17.669  0.00  0.00    +0.162 A 
ATOM     50  C   UNL     1      -9.656  20.271 -18.064  0.00  0.00    +0.162 A 
ATOM     51  C   UNL     1      -9.513  19.105 -17.309  0.00  0.00    +0.058 A 
ATOM     52  C   UNL     1      -8.565  18.993 -16.273  0.00  0.00    +0.008 A 
BRANCH  50  53
ATOM     53  O   UNL     1     -10.419  20.323 -19.197  0.00  0.00    -0.491 OA
ATOM     54  C   UNL     1     -10.979  19.111 -19.695  0.00  0.00    +0.277 C 
ENDBRANCH  50  53
BRANCH  49  55
ATOM     55  O   UNL     1      -8.912  22.624 -18.293  0.00  0.00    -0.491 OA
ATOM     56  C   UNL     1     -10.041  22.993 -19.075  0.00  0.00    +0.277 C 
ENDBRANCH  49  55
BRANCH  42  57
ATOM     57  C   UNL     1      -8.325  16.446 -16.796  0.00  0.00    +0.094 C 
BRANCH  57  61
ATOM     58  C   UNL     1      -6.672  16.614 -20.845  0.00  0.00    +0.161 A 
ATOM     59  C   UNL     1      -7.585  15.631 -20.469  0.00  0.00    +0.049 A 
ATOM     60  C   UNL     1      -8.113  15.585 -19.165  0.00  0.00    +0.007 A 
ATOM     61  C   UNL     1      -7.767  16.545 -18.209  0.00  0.00    -0.038 A 
ATOM     62  C   UNL     1      -6.919  17.561 -18.621  0.00  0.00    +0.053 A 
ATOM     63  C   UNL     1      -6.311  17.578 -19.893  0.00  0.00    +0.162 A 
BRANCH  63  64
ATOM     64  O   UNL     1      -5.359  18.519 -20.231  0.00  0.00    -0.491 OA
ATOM     65  C   UNL     1      -4.837  19.261 -19.128  0.00  0.00    +0.277 C 
ENDBRANCH  63  64
BRANCH  58  67
ATOM     66  C   UNL     1      -6.784  16.134 -23.170  0.00  0.00    +0.277 C 
ATOM     67  O   UNL     1      -6.050  16.670 -22.072  0.00  0.00    -0.491 OA
ENDBRANCH  58  67
ENDBRANCH  57  61
ENDBRANCH  42  57
ENDBRANCH  41  43
ENDBRANCH  40  41
ENDBRANCH  38  40
ENDBRANCH  37  38
ENDBRANCH  36  37
ENDBRANCH  35  36
ENDBRANCH   1  35
TORSDOF 26
