REMARK  Name = 
REMARK  14 active torsions:
REMARK  status: ('A' for Active; 'I' for Inactive)
REMARK    1  A    between atoms: C_1  and  C_2
REMARK    2  A    between atoms: C_2  and  C_3
REMARK    3  A    between atoms: C_3  and  C_4
REMARK    4  A    between atoms: C_4  and  C_5
REMARK    5  A    between atoms: N_7  and  C_8
REMARK    6  A    between atoms: N_7  and  C_26
REMARK    7  A    between atoms: C_8  and  C_9
REMARK    8  A    between atoms: C_12  and  C_15
REMARK    9  A    between atoms: C_20  and  C_21
REMARK   10  A    between atoms: C_26  and  C_28
REMARK   11  A    between atoms: C_26  and  C_31
REMARK   12  A    between atoms: C_28  and  C_29
REMARK   13  A    between atoms: C_28  and  C_30
REMARK   14  A    between atoms: C_31  and  O_32
REMARK                            x       y       z     vdW  Elec       q    Type
REMARK                         _______ _______ _______ _____ _____    ______ ____
ROOT
ATOM      1  C   UNL     1       8.549   0.167  -2.016  0.00  0.00    -0.030 A 
ATOM      2  C   UNL     1       9.814  -0.335  -2.328  0.00  0.00    +0.006 A 
ATOM      3  C   UNL     1      10.828   0.525  -2.762  0.00  0.00    +0.009 A 
ATOM      4  C   UNL     1      10.582   1.891  -2.977  0.00  0.00    -0.017 A 
ATOM      5  C   UNL     1       9.374   2.399  -2.464  0.00  0.00    +0.009 A 
ATOM      6  C   UNL     1       8.372   1.551  -1.986  0.00  0.00    +0.006 A 
ENDROOT
BRANCH   4   7
ATOM      7  C   UNL     1      11.489   2.745  -3.803  0.00  0.00    -0.007 A 
ATOM      8  C   UNL     1      12.150   2.298  -4.983  0.00  0.00    +0.030 A 
ATOM      9  C   UNL     1      12.970   3.189  -5.713  0.00  0.00    +0.012 A 
ATOM     10  C   UNL     1      13.097   4.525  -5.350  0.00  0.00    +0.001 A 
ATOM     11  C   UNL     1      12.423   4.989  -4.233  0.00  0.00    +0.001 A 
ATOM     12  C   UNL     1      11.654   4.109  -3.461  0.00  0.00    +0.009 A 
BRANCH   8  13
ATOM     13  C   UNL     1      11.985   0.968  -5.572  0.00  0.00    +0.205 A 
ATOM     14  N   UNL     1      10.788   0.292  -5.624  0.00  0.00    -0.108 NA
ATOM     15  N   UNL     1      11.015  -0.850  -6.254  0.00  0.00    -0.049 NA
ATOM     16  N   UNL     1      12.299  -0.788  -6.608  0.00  0.00    -0.176 N 
ATOM     17  H   UNL     1      12.733  -1.520  -7.164  0.00  0.00    +0.214 HD
ATOM     18  N   UNL     1      12.973   0.294  -6.197  0.00  0.00    -0.133 NA
ENDBRANCH   8  13
ENDBRANCH   4   7
BRANCH   1  19
ATOM     19  C   UNL     1       7.392  -0.753  -1.736  0.00  0.00    +0.143 C 
BRANCH  19  21
ATOM     20  C   UNL     1       5.153  -1.435  -2.548  0.00  0.00    +0.217 C 
ATOM     21  N   UNL     1       6.455  -1.022  -2.858  0.00  0.00    -0.283 N 
ATOM     22  O   UNL     1       4.391  -1.857  -3.411  0.00  0.00    -0.276 OA
BRANCH  20  23
ATOM     23  C   UNL     1       4.683  -1.310  -1.107  0.00  0.00    +0.096 C 
BRANCH  23  24
ATOM     24  C   UNL     1       3.402  -2.088  -0.806  0.00  0.00    +0.009 C 
BRANCH  24  26
ATOM     25  C   UNL     1       1.877  -2.784   1.096  0.00  0.00    +0.004 C 
ATOM     26  C   UNL     1       3.054  -1.926   0.677  0.00  0.00    -0.003 C 
ENDBRANCH  24  26
ENDBRANCH  23  24
ENDBRANCH  20  23
BRANCH  21  27
ATOM     27  C   UNL     1       7.057  -1.453  -4.176  0.00  0.00    +0.187 C 
BRANCH  27  28
ATOM     28  C   UNL     1       7.581  -2.927  -4.120  0.00  0.00    +0.014 C 
ATOM     29  C   UNL     1       8.287  -3.385  -5.399  0.00  0.00    +0.009 C 
ATOM     30  C   UNL     1       6.529  -3.969  -3.737  0.00  0.00    +0.009 C 
ENDBRANCH  27  28
BRANCH  27  31
ATOM     31  C   UNL     1       6.384  -1.099  -5.548  0.00  0.00    +0.326 C 
ATOM     32  O   UNL     1       7.035  -0.925  -6.573  0.00  0.00    -0.249 OA
BRANCH  31  33
ATOM     33  O   UNL     1       5.040  -1.098  -5.616  0.00  0.00    -0.479 OA
ATOM     34  H   UNL     1       4.611  -1.404  -4.785  0.00  0.00    +0.295 HD
ENDBRANCH  31  33
ENDBRANCH  27  31
ENDBRANCH  21  27
ENDBRANCH  19  21
ENDBRANCH   1  19
TORSDOF 11
