REMARK  Name = 
REMARK  15 active torsions:
REMARK  status: ('A' for Active; 'I' for Inactive)
REMARK    1  A    between atoms: C_9  and  C_33
REMARK    2  A    between atoms: C_10  and  O_11
REMARK    3  A    between atoms: O_11  and  C_12
REMARK    4  A    between atoms: N_15  and  C_16
REMARK    5  A    between atoms: C_19  and  O_20
REMARK    6  A    between atoms: C_19  and  C_30
REMARK    7  A    between atoms: C_21  and  O_23
REMARK    8  A    between atoms: C_24  and  C_25
REMARK    9  A    between atoms: C_25  and  C_26
REMARK   10  A    between atoms: C_33  and  C_56
REMARK   11  A    between atoms: C_40  and  O_41
REMARK   12  A    between atoms: C_40  and  C_42
REMARK   13  A    between atoms: C_42  and  C_43
REMARK   14  A    between atoms: C_56  and  O_58
REMARK   15  A    between atoms: O_58  and  C_59
REMARK                            x       y       z     vdW  Elec       q    Type
REMARK                         _______ _______ _______ _____ _____    ______ ____
ROOT
ATOM      1  C   UNL     1       3.915   2.957  -0.898  0.00  0.00    +0.082 C 
ATOM      2  C   UNL     1       2.258   3.564  -0.561  0.00  0.00    +0.034 C 
ATOM      3  C   UNL     1       2.384   4.151  -1.982  0.00  0.00    -0.019 C 
ATOM      4  C   UNL     1       2.216   3.258  -2.993  0.00  0.00    -0.015 C 
ATOM      5  C   UNL     1       3.450   2.425  -3.165  0.00  0.00    +0.111 C 
ATOM      6  C   UNL     1       2.436   3.725   0.987  0.00  0.00    +0.168 C 
ATOM      7  C   UNL     1       3.887   3.841   1.704  0.00  0.00    +0.187 C 
ATOM      8  C   UNL     1       5.091   2.719   1.305  0.00  0.00    +0.128 C 
ATOM      9  N   UNL     1       6.626   2.898   1.113  0.00  0.00    -0.325 N 
ATOM     10  C   UNL     1       7.465   3.792   1.888  0.00  0.00    +0.129 C 
ATOM     11  C   UNL     1       7.174   1.797   0.351  0.00  0.00    +0.037 A 
ATOM     12  C   UNL     1       6.240   1.162  -0.440  0.00  0.00    -0.016 A 
ATOM     13  C   UNL     1       6.699  -0.136  -1.303  0.00  0.00    +0.014 A 
ATOM     14  C   UNL     1       8.126  -0.829  -1.440  0.00  0.00    +0.017 A 
ATOM     15  C   UNL     1       8.957  -0.116  -0.525  0.00  0.00    +0.126 A 
ATOM     16  C   UNL     1       8.485   1.162   0.298  0.00  0.00    +0.069 A 
ATOM     17  C   UNL     1       4.742   1.930   0.023  0.00  0.00    +0.037 C 
ATOM     18  C   UNL     1       3.759   0.807   0.215  0.00  0.00    +0.030 C 
ATOM     19  C   UNL     1       3.077   0.827  -1.166  0.00  0.00    +0.086 C 
ATOM     20  N   UNL     1       3.821   1.881  -1.881  0.00  0.00    -0.294 NA
ENDROOT
BRANCH  14  21
ATOM     21  C   UNL     1       8.490  -2.592  -2.013  0.00  0.00    +0.136 C 
ATOM     22  C   UNL     1       9.867  -3.563  -2.918  0.00  0.00    +0.042 A 
ATOM     23  N   UNL     1      11.328  -3.840  -2.672  0.00  0.00    -0.357 N 
ATOM     24  H   UNL     1      11.894  -3.317  -2.012  0.00  0.00    +0.166 HD
ATOM     25  C   UNL     1      11.900  -5.024  -3.396  0.00  0.00    +0.047 A 
ATOM     26  C   UNL     1      10.940  -5.421  -4.274  0.00  0.00    +0.003 A 
ATOM     27  C   UNL     1      11.123  -6.603  -5.082  0.00  0.00    +0.010 A 
ATOM     28  C   UNL     1      12.279  -7.393  -5.051  0.00  0.00    +0.001 A 
ATOM     29  C   UNL     1      13.318  -6.938  -4.270  0.00  0.00    +0.002 A 
ATOM     30  C   UNL     1      13.175  -5.745  -3.459  0.00  0.00    +0.026 A 
ATOM     31  C   UNL     1       9.754  -4.631  -3.933  0.00  0.00    -0.016 A 
ATOM     32  C   UNL     1       8.623  -5.335  -4.560  0.00  0.00    +0.053 C 
ATOM     33  C   UNL     1       8.384  -6.656  -3.807  0.00  0.00    +0.089 C 
ATOM     34  N   UNL     1       7.025  -6.664  -3.320  0.00  0.00    -0.299 NA
ATOM     35  C   UNL     1       6.106  -6.706  -4.459  0.00  0.00    +0.119 C 
ATOM     36  C   UNL     1       5.271  -5.449  -4.818  0.00  0.00    +0.079 C 
ATOM     37  C   UNL     1       5.076  -4.530  -3.591  0.00  0.00    +0.041 C 
ATOM     38  C   UNL     1       6.287  -4.247  -2.668  0.00  0.00    +0.008 C 
ATOM     39  C   UNL     1       6.869  -5.628  -2.292  0.00  0.00    +0.088 C 
ATOM     40  C   UNL     1       7.224  -2.985  -2.999  0.00  0.00    +0.034 C 
BRANCH  21  41
ATOM     41  C   UNL     1       8.170  -3.293  -0.610  0.00  0.00    +0.323 C 
ATOM     42  O   UNL     1       7.174  -3.068   0.013  0.00  0.00    -0.249 OA
BRANCH  41  43
ATOM     43  O   UNL     1       9.111  -4.202  -0.216  0.00  0.00    -0.467 OA
ATOM     44  C   UNL     1       8.670  -4.951   0.935  0.00  0.00    +0.280 C 
ENDBRANCH  41  43
ENDBRANCH  21  41
BRANCH  36  45
ATOM     45  O   UNL     1       3.963  -5.961  -5.178  0.00  0.00    -0.387 OA
ATOM     46  H   UNL     1       3.616  -6.452  -4.414  0.00  0.00    +0.210 HD
ENDBRANCH  36  45
BRANCH  36  47
ATOM     47  C   UNL     1       5.737  -4.708  -6.103  0.00  0.00    +0.032 C 
ATOM     48  C   UNL     1       4.764  -3.620  -6.546  0.00  0.00    +0.007 C 
ENDBRANCH  36  47
ENDBRANCH  14  21
BRANCH   7  49
ATOM     49  C   UNL     1       4.032   5.397   1.657  0.00  0.00    +0.247 C 
ATOM     50  O   UNL     1       4.193   6.026   0.614  0.00  0.00    -0.273 OA
ATOM     51  N   UNL     1       3.587   6.073   2.800  0.00  0.00    -0.327 N 
ATOM     52  H   UNL     1       2.910   5.534   3.342  0.00  0.00    +0.145 HD
ATOM     53  H   UNL     1       4.331   6.196   3.477  0.00  0.00    +0.145 HD
ENDBRANCH   7  49
BRANCH   2  54
ATOM     54  C   UNL     1       0.892   4.670  -0.650  0.00  0.00    +0.012 C 
ATOM     55  C   UNL     1       0.012   5.156  -1.874  0.00  0.00    +0.005 C 
ENDBRANCH   2  54
BRANCH   6  56
ATOM     56  O   UNL     1       1.645   2.663   1.615  0.00  0.00    -0.387 OA
ATOM     57  H   UNL     1       0.780   2.599   1.154  0.00  0.00    +0.210 HD
ENDBRANCH   6  56
BRANCH   7  58
ATOM     58  O   UNL     1       3.541   3.598   3.139  0.00  0.00    -0.375 OA
ATOM     59  H   UNL     1       2.619   3.247   3.130  0.00  0.00    +0.211 HD
ENDBRANCH   7  58
BRANCH  15  60
ATOM     60  O   UNL     1      10.197  -0.703  -0.331  0.00  0.00    -0.495 OA
ATOM     61  C   UNL     1      11.118  -0.085   0.561  0.00  0.00    +0.277 C 
ENDBRANCH  15  60
TORSDOF 10
