REMARK  Name = 
REMARK  18 active torsions:
REMARK  status: ('A' for Active; 'I' for Inactive)
REMARK    1  A    between atoms: C_9  and  C_38
REMARK    2  A    between atoms: C_10  and  O_11
REMARK    3  A    between atoms: O_11  and  C_12
REMARK    4  A    between atoms: C_20  and  O_21
REMARK    5  A    between atoms: C_20  and  C_34
REMARK    6  A    between atoms: C_22  and  O_24
REMARK    7  A    between atoms: O_24  and  C_25
REMARK    8  A    between atoms: C_25  and  C_26
REMARK    9  A    between atoms: C_28  and  C_29
REMARK   10  A    between atoms: C_29  and  C_30
REMARK   11  A    between atoms: C_34  and  O_36
REMARK   12  A    between atoms: O_36  and  C_37
REMARK   13  A    between atoms: C_38  and  C_61
REMARK   14  A    between atoms: C_45  and  O_46
REMARK   15  A    between atoms: C_45  and  C_47
REMARK   16  A    between atoms: C_47  and  C_48
REMARK   17  A    between atoms: C_61  and  O_63
REMARK   18  A    between atoms: O_63  and  C_64
REMARK                            x       y       z     vdW  Elec       q    Type
REMARK                         _______ _______ _______ _____ _____    ______ ____
ROOT
ATOM      1  C   UNL     1       3.823   3.165  -0.817  0.00  0.00    +0.083 C 
ATOM      2  C   UNL     1       2.177   3.768  -0.500  0.00  0.00    +0.045 C 
ATOM      3  C   UNL     1       1.360   3.264  -1.758  0.00  0.00    -0.018 C 
ATOM      4  C   UNL     1       1.759   2.465  -2.763  0.00  0.00    -0.015 C 
ATOM      5  C   UNL     1       3.217   2.347  -2.980  0.00  0.00    +0.111 C 
ATOM      6  C   UNL     1       2.074   3.470   1.058  0.00  0.00    +0.232 C 
ATOM      7  C   UNL     1       3.538   3.818   1.838  0.00  0.00    +0.220 C 
ATOM      8  C   UNL     1       4.946   2.851   1.435  0.00  0.00    +0.140 C 
ATOM      9  N   UNL     1       6.503   3.056   1.311  0.00  0.00    -0.266 N 
ATOM     10  C   UNL     1       7.200   3.876   2.129  0.00  0.00    +0.333 C 
ATOM     11  O   UNL     1       6.704   4.702   2.895  0.00  0.00    -0.279 OA
ATOM     12  C   UNL     1       7.138   1.940   0.463  0.00  0.00    +0.044 A 
ATOM     13  C   UNL     1       6.226   1.348  -0.314  0.00  0.00    -0.016 A 
ATOM     14  C   UNL     1       6.680  -0.032  -1.175  0.00  0.00    +0.014 A 
ATOM     15  C   UNL     1       8.108  -0.738  -1.316  0.00  0.00    +0.017 A 
ATOM     16  C   UNL     1       8.934   0.021  -0.421  0.00  0.00    +0.126 A 
ATOM     17  C   UNL     1       8.452   1.313   0.407  0.00  0.00    +0.069 A 
ATOM     18  C   UNL     1       4.696   2.100   0.139  0.00  0.00    +0.037 C 
ATOM     19  C   UNL     1       3.813   0.914   0.388  0.00  0.00    +0.030 C 
ATOM     20  C   UNL     1       3.122   0.896  -0.946  0.00  0.00    +0.086 C 
ATOM     21  N   UNL     1       3.777   2.005  -1.710  0.00  0.00    -0.294 NA
ENDROOT
BRANCH  15  22
ATOM     22  C   UNL     1       8.468  -2.542  -1.803  0.00  0.00    +0.136 C 
ATOM     23  C   UNL     1       9.853  -3.562  -2.664  0.00  0.00    +0.042 A 
ATOM     24  N   UNL     1      11.339  -3.819  -2.435  0.00  0.00    -0.357 N 
ATOM     25  H   UNL     1      11.918  -3.276  -1.821  0.00  0.00    +0.166 HD
ATOM     26  C   UNL     1      11.920  -4.999  -3.140  0.00  0.00    +0.047 A 
ATOM     27  C   UNL     1      10.943  -5.445  -3.981  0.00  0.00    +0.003 A 
ATOM     28  C   UNL     1      11.124  -6.679  -4.781  0.00  0.00    +0.010 A 
ATOM     29  C   UNL     1      12.245  -7.495  -4.718  0.00  0.00    +0.001 A 
ATOM     30  C   UNL     1      13.261  -7.041  -3.940  0.00  0.00    +0.002 A 
ATOM     31  C   UNL     1      13.148  -5.792  -3.174  0.00  0.00    +0.026 A 
ATOM     32  C   UNL     1       9.750  -4.665  -3.654  0.00  0.00    -0.016 A 
ATOM     33  C   UNL     1       8.631  -5.435  -4.222  0.00  0.00    +0.053 C 
ATOM     34  C   UNL     1       8.491  -6.715  -3.372  0.00  0.00    +0.089 C 
ATOM     35  N   UNL     1       7.147  -6.767  -2.859  0.00  0.00    -0.299 NA
ATOM     36  C   UNL     1       6.215  -6.938  -3.978  0.00  0.00    +0.119 C 
ATOM     37  C   UNL     1       5.336  -5.744  -4.425  0.00  0.00    +0.079 C 
ATOM     38  C   UNL     1       5.090  -4.776  -3.238  0.00  0.00    +0.041 C 
ATOM     39  C   UNL     1       6.299  -4.352  -2.355  0.00  0.00    +0.008 C 
ATOM     40  C   UNL     1       6.957  -5.676  -1.897  0.00  0.00    +0.088 C 
ATOM     41  C   UNL     1       7.179  -3.044  -2.758  0.00  0.00    +0.034 C 
BRANCH  22  42
ATOM     42  C   UNL     1       8.100  -3.129  -0.404  0.00  0.00    +0.323 C 
ATOM     43  O   UNL     1       7.023  -2.813   0.118  0.00  0.00    -0.249 OA
BRANCH  42  44
ATOM     44  O   UNL     1       8.960  -3.978   0.201  0.00  0.00    -0.467 OA
ATOM     45  C   UNL     1       8.406  -4.552   1.406  0.00  0.00    +0.280 C 
ENDBRANCH  42  44
ENDBRANCH  22  42
BRANCH  37  46
ATOM     46  O   UNL     1       4.055  -6.322  -4.779  0.00  0.00    -0.387 OA
ATOM     47  H   UNL     1       3.707  -6.777  -3.992  0.00  0.00    +0.210 HD
ENDBRANCH  37  46
BRANCH  37  48
ATOM     48  C   UNL     1       5.729  -4.951  -5.702  0.00  0.00    +0.032 C 
ATOM     49  C   UNL     1       6.104  -5.767  -6.938  0.00  0.00    +0.007 C 
ENDBRANCH  37  48
ENDBRANCH  15  22
BRANCH   2  50
ATOM     50  C   UNL     1       1.181   5.212  -0.485  0.00  0.00    +0.013 C 
ATOM     51  C   UNL     1       0.431   5.934  -1.677  0.00  0.00    +0.005 C 
ENDBRANCH   2  50
BRANCH   7  52
ATOM     52  C   UNL     1       3.521   5.381   1.882  0.00  0.00    +0.345 C 
ATOM     53  O   UNL     1       2.787   5.984   2.677  0.00  0.00    -0.247 OA
BRANCH  52  54
ATOM     54  O   UNL     1       4.127   6.013   0.846  0.00  0.00    -0.466 OA
ATOM     55  C   UNL     1       3.931   7.445   0.869  0.00  0.00    +0.280 C 
ENDBRANCH  52  54
ENDBRANCH   7  52
BRANCH   7  56
ATOM     56  O   UNL     1       3.192   3.508   3.249  0.00  0.00    -0.373 OA
ATOM     57  H   UNL     1       2.435   4.098   3.492  0.00  0.00    +0.211 HD
ENDBRANCH   7  56
BRANCH  16  58
ATOM     58  O   UNL     1      10.156  -0.583  -0.164  0.00  0.00    -0.495 OA
ATOM     59  C   UNL     1      11.255   0.208   0.277  0.00  0.00    +0.277 C 
ENDBRANCH  16  58
BRANCH   6  60
ATOM     60  O   UNL     1       1.416   2.207   1.312  0.00  0.00    -0.457 OA
BRANCH  60  61
ATOM     61  C   UNL     1       0.342   2.133   2.184  0.00  0.00    +0.304 C 
ATOM     62  O   UNL     1      -0.059   3.023   2.903  0.00  0.00    -0.251 OA
ATOM     63  C   UNL     1      -0.322   0.780   2.074  0.00  0.00    +0.136 C 
ENDBRANCH  60  61
ENDBRANCH   6  60
TORSDOF 12
