REMARK  Name = 
REMARK  4 active torsions:
REMARK  status: ('A' for Active; 'I' for Inactive)
REMARK    1  A    between atoms: N_9  and  C_12
REMARK    2  A    between atoms: C_15  and  O_17
REMARK    3  A    between atoms: C_18  and  C_20
REMARK    4  A    between atoms: C_20  and  O_21
REMARK                            x       y       z     vdW  Elec       q    Type
REMARK                         _______ _______ _______ _____ _____    ______ ____
ROOT
ATOM      1  N   UNL     1       9.939   2.295   1.246  0.00  0.00    -0.329 N 
ATOM      2  H   UNL     1       9.762   3.014   1.936  0.00  0.00    +0.145 HD
ATOM      3  H   UNL     1      10.690   1.677   1.545  0.00  0.00    +0.145 HD
ATOM      4  C   UNL     1       8.845   1.573   0.896  0.00  0.00    +0.195 A 
ATOM      5  N   UNL     1       7.732   2.350   0.702  0.00  0.00    -0.312 N 
ATOM      6  H   UNL     1       7.832   3.361   0.681  0.00  0.00    +0.170 HD
ATOM      7  C   UNL     1       6.622   1.710   0.310  0.00  0.00    +0.147 A 
ATOM      8  N   UNL     1       5.395   2.198  -0.008  0.00  0.00    -0.309 N 
ATOM      9  C   UNL     1       4.637   1.102  -0.360  0.00  0.00    +0.202 A 
ATOM     10  N   UNL     1       5.315  -0.026  -0.271  0.00  0.00    -0.229 NA
ATOM     11  C   UNL     1       6.573   0.349   0.149  0.00  0.00    +0.172 A 
ATOM     12  C   UNL     1       7.777  -0.455   0.407  0.00  0.00    +0.302 A 
ATOM     13  O   UNL     1       7.790  -1.679   0.307  0.00  0.00    -0.263 OA
ATOM     14  N   UNL     1       8.916   0.279   0.779  0.00  0.00    -0.176 NA
ENDROOT
BRANCH   8  15
ATOM     15  C   UNL     1       4.904   3.561   0.034  0.00  0.00    +0.118 C 
ATOM     16  C   UNL     1       5.602   4.558  -0.871  0.00  0.00    -0.046 C 
ATOM     17  C   UNL     1       6.225   4.293  -2.031  0.00  0.00    +0.010 C 
ATOM     18  C   UNL     1       5.527   5.942  -0.225  0.00  0.00    +0.070 C 
ATOM     19  C   UNL     1       4.786   5.689   1.106  0.00  0.00    +0.126 C 
ATOM     20  C   UNL     1       5.007   4.215   1.416  0.00  0.00    +0.061 C 
BRANCH  19  21
ATOM     21  O   UNL     1       3.385   5.911   0.919  0.00  0.00    -0.391 OA
ATOM     22  H   UNL     1       2.953   5.810   1.786  0.00  0.00    +0.210 HD
ENDBRANCH  19  21
BRANCH  18  23
ATOM     23  C   UNL     1       6.905   6.575   0.004  0.00  0.00    +0.166 C 
BRANCH  23  24
ATOM     24  O   UNL     1       7.746   5.715   0.775  0.00  0.00    -0.394 OA
ATOM     25  H   UNL     1       8.652   5.867   0.450  0.00  0.00    +0.209 HD
ENDBRANCH  23  24
ENDBRANCH  18  23
ENDBRANCH   8  15
TORSDOF 4
