REMARK  Name = 
REMARK  4 active torsions:
REMARK  status: ('A' for Active; 'I' for Inactive)
REMARK    1  A    between atoms: C_1  and  C_2
REMARK    2  A    between atoms: N_4  and  C_5
REMARK    3  A    between atoms: C_8  and  C_10
REMARK    4  A    between atoms: C_10  and  O_11
REMARK                            x       y       z     vdW  Elec       q    Type
REMARK                         _______ _______ _______ _____ _____    ______ ____
ROOT
ATOM      1  C   UNL     1       0.957   0.085   0.006  0.00  0.00    +0.051 C 
ATOM      2  C   UNL     1       2.442   0.060  -0.163  0.00  0.00    +0.030 A 
ATOM      3  C   UNL     1       3.097  -1.257  -0.309  0.00  0.00    +0.257 A 
ATOM      4  O   UNL     1       2.459  -2.304  -0.296  0.00  0.00    -0.267 OA
ATOM      5  N   UNL     1       4.454  -1.232  -0.441  0.00  0.00    -0.275 N 
ATOM      6  H   UNL     1       4.919  -2.122  -0.510  0.00  0.00    +0.173 HD
ATOM      7  C   UNL     1       5.253  -0.117  -0.484  0.00  0.00    +0.332 A 
ATOM      8  O   UNL     1       6.467  -0.247  -0.603  0.00  0.00    -0.246 OA
ATOM      9  N   UNL     1       4.591   1.102  -0.388  0.00  0.00    -0.270 N 
ATOM     10  C   UNL     1       3.220   1.147  -0.180  0.00  0.00    +0.102 A 
ENDROOT
BRANCH   9  11
ATOM     11  C   UNL     1       5.413   2.313  -0.306  0.00  0.00    +0.248 C 
ATOM     12  C   UNL     1       6.230   2.567  -1.526  0.00  0.00    +0.025 C 
ATOM     13  C   UNL     1       5.811   3.666  -2.152  0.00  0.00    +0.007 C 
ATOM     14  C   UNL     1       4.600   4.190  -1.465  0.00  0.00    +0.169 C 
ATOM     15  O   UNL     1       4.584   3.495  -0.195  0.00  0.00    -0.343 OA
BRANCH  14  16
ATOM     16  C   UNL     1       3.330   3.860  -2.265  0.00  0.00    +0.191 C 
BRANCH  16  17
ATOM     17  O   UNL     1       3.248   4.633  -3.457  0.00  0.00    -0.392 OA
ATOM     18  H   UNL     1       2.570   4.212  -4.014  0.00  0.00    +0.210 HD
ENDBRANCH  16  17
ENDBRANCH  14  16
ENDBRANCH   9  11
TORSDOF 3
