REMARK  Name = 
REMARK  29 active torsions:
REMARK  status: ('A' for Active; 'I' for Inactive)
REMARK    1  A    between atoms: C_1  and  N_2
REMARK    2  A    between atoms: N_2  and  CA_3
REMARK    3  A    between atoms: CA_3  and  CB_5
REMARK    4  A    between atoms: CA_3  and  C_9
REMARK    5  A    between atoms: CB_5  and  CG_6
REMARK    6  A    between atoms: CG_6  and  CD1_7
REMARK    7  A    between atoms: CG_6  and  CD2_8
REMARK    8  A    between atoms: N_11  and  C_12
REMARK    9  A    between atoms: C_14  and  O_16
REMARK   10  A    between atoms: C_23  and  O_24
REMARK   11  A    between atoms: O_24  and  C_25
REMARK   12  A    between atoms: C_28  and  C_30
REMARK   13  A    between atoms: C_30  and  O_31
REMARK   14  A    between atoms: C_32  and  O_34
REMARK   15  A    between atoms: C_35  and  O_37
REMARK   16  A    between atoms: C_38  and  O_40
REMARK   17  A    between atoms: O_40  and  C_41
REMARK   18  A    between atoms: C_44  and  C_45
REMARK   19  A    between atoms: C_44  and  N_46
REMARK   20  A    between atoms: C_47  and  O_49
REMARK   21  A    between atoms: C_50  and  C_52
REMARK   22  A    between atoms: CA_63  and  CB_65
REMARK   23  A    between atoms: CB_65  and  CG_66
REMARK   24  A    between atoms: C_80  and  O_81
REMARK   25  A    between atoms: C_85  and  O_86
REMARK   26  A    between atoms: C_88  and  O_89
REMARK   27  A    between atoms: C_92  and  C_113
REMARK   28  A    between atoms: C_102  and  O_104
REMARK   29  A    between atoms: C_113  and  O_114
REMARK                            x       y       z     vdW  Elec       q    Type
REMARK                         _______ _______ _______ _____ _____    ______ ____
ROOT
ATOM      1  C   UNK A   2      13.868  -0.187   1.854  0.00  0.00    +0.192 C 
ATOM      2  C   UNK A   2      13.765  -1.401   3.546  0.00  0.00    +0.237 C 
ATOM      3  O   UNK A   2      13.171  -0.767   4.482  0.00  0.00    -0.274 OA
ATOM      4  N   ASN A   3      14.130  -3.030   4.363  0.00  0.00    -0.302 N 
ATOM      5  H   ASN A   3      13.989  -2.485   5.216  0.00  0.00    +0.150 HD
ATOM      6  CA  ASN A   3      14.050  -4.614   5.649  0.00  0.00    +0.168 C 
ATOM      7  C   ASN A   3      14.861  -6.367   6.119  0.00  0.00    +0.235 C 
ATOM      8  O   ASN A   3      15.367  -6.501   7.243  0.00  0.00    -0.274 OA
ATOM      9  N   UNK A   4      14.783  -7.853   5.015  0.00  0.00    -0.299 N 
ATOM     10  H   UNK A   4      14.821  -8.676   5.619  0.00  0.00    +0.150 HD
ATOM     11  C   UNK A   4      16.090  -8.422   3.695  0.00  0.00    +0.190 C 
ATOM     12  C   UNK A   4      16.530  -9.530   2.614  0.00  0.00    +0.239 C 
ATOM     13  N   UNK A   5      17.704 -10.256   3.056  0.00  0.00    -0.299 N 
ATOM     14  H   UNK A   5      18.457  -9.608   3.306  0.00  0.00    +0.150 HD
ATOM     15  C   UNK A   5      18.243 -11.485   2.408  0.00  0.00    +0.190 C 
ATOM     16  C   UNK A   5      19.662 -12.794   2.675  0.00  0.00    +0.239 C 
ATOM     17  O   UNK A   5      19.970 -11.525   1.977  0.00  0.00    -0.273 OA
ATOM     18  N   UNK A   6      20.334 -13.981   3.945  0.00  0.00    -0.300 N 
ATOM     19  H   UNK A   6      20.453 -14.779   3.334  0.00  0.00    +0.150 HD
ATOM     20  C   UNK A   6      21.545 -14.707   5.302  0.00  0.00    +0.192 C 
ATOM     21  C   UNK A   6      21.942 -14.807   7.091  0.00  0.00    +0.174 C 
ATOM     22  C   UNK A   6      20.759 -13.995   7.704  0.00  0.00    -0.015 A 
ATOM     23  C   UNK A   6      19.594 -13.891   6.976  0.00  0.00    +0.010 A 
ATOM     24  C   UNK A   6      18.500 -12.486   6.696  0.00  0.00    +0.048 A 
ATOM     25  C   UNK A   6      18.147 -10.783   7.138  0.00  0.00    +0.147 A 
ATOM     26  O   UNK A   6      17.802  -9.299   6.037  0.00  0.00    -0.451 OA
ATOM     27  C   UNK A   6      16.920  -7.686   5.588  0.00  0.00    +0.174 A 
ATOM     28  C   UNK A   6      18.046  -7.259   5.116  0.00  0.00    +0.056 A 
ATOM     29  C   UNK A   6      16.004  -6.221   4.418  0.00  0.00    +0.208 A 
ATOM     30  C   UNK A   6      16.077  -5.451   2.996  0.00  0.00    +0.174 A 
ATOM     31  C   UNK A   6      16.958  -6.289   2.434  0.00  0.00    +0.056 A 
ATOM     32  O   UNK A   6      14.752  -5.247   1.895  0.00  0.00    -0.451 OA
ATOM     33  C   UNK A   6      14.519  -4.169   0.824  0.00  0.00    +0.147 A 
ATOM     34  C   UNK A   6      13.473  -4.059  -0.280  0.00  0.00    +0.083 A 
ATOM     35  C   UNK A   2      12.978  -2.797  -0.796  0.00  0.00    +0.030 A 
ATOM     36  C   UNK A   2      13.728  -1.732  -0.404  0.00  0.00    -0.015 A 
ATOM     37  C   UNK A   2      15.014  -1.954   0.060  0.00  0.00    +0.010 A 
ATOM     38 CL   UNK A   6      13.096  -5.296  -1.449  0.00  0.00    -0.080 Cl
ATOM     39  C   UNK A   6      15.136  -2.964   1.010  0.00  0.00    +0.048 A 
ATOM     40  C   UNK A   6      19.484 -11.371   8.182  0.00  0.00    +0.083 A 
ATOM     41 CL   UNK A   6      18.531 -12.478   9.714  0.00  0.00    -0.080 Cl
ATOM     42  C   UNK A   6      20.700 -12.754   8.403  0.00  0.00    +0.030 A 
ATOM     43  C   UNK A   6      23.113 -14.929   5.215  0.00  0.00    +0.237 C 
ATOM     44  O   UNK A   6      24.095 -14.770   5.938  0.00  0.00    -0.274 OA
ATOM     45  N   UNK A   7      23.385 -14.841   3.952  0.00  0.00    -0.297 N 
ATOM     46  H   UNK A   7      22.693 -15.387   3.426  0.00  0.00    +0.150 HD
ATOM     47  C   UNK A   7      23.381 -13.370   3.961  0.00  0.00    +0.213 C 
ATOM     48  C   UNK A   7      22.752 -12.242   5.115  0.00  0.00    -0.002 A 
ATOM     49  C   UNK A   7      21.717 -11.335   4.786  0.00  0.00    +0.033 A 
ATOM     50  C   UNK A   7      21.226 -10.277   5.610  0.00  0.00    +0.128 A 
ATOM     51  C   UNK A   7      21.652 -10.129   6.899  0.00  0.00    +0.091 A 
ATOM     52  C   UNK A   7      22.634 -11.012   7.305  0.00  0.00    +0.121 A 
ATOM     53  C   UNK A   7      20.888 -11.740   3.738  0.00  0.00    +0.028 A 
ATOM     54  C   UNK A   7      21.577 -12.451   2.147  0.00  0.00    +0.125 A 
ATOM     55  C   UNK A   7      20.519 -13.296   0.927  0.00  0.00    +0.046 A 
ATOM     56  C   UNK A   7      18.730 -13.452   1.173  0.00  0.00    +0.009 A 
ATOM     57  C   UNK A   7      19.107 -11.978   4.191  0.00  0.00    +0.018 A 
ATOM     58  C   UNK A   7      23.201 -12.009   6.435  0.00  0.00    +0.052 A 
ATOM     59  C   UNK A   7      18.123 -12.842   2.849  0.00  0.00    -0.018 A 
ATOM     60  O   UNK A   4      15.981  -9.656   1.536  0.00  0.00    -0.273 OA
ATOM     61  C   UNK A   4      17.548  -7.353   3.445  0.00  0.00    -0.011 A 
ATOM     62  C   UNK A   2      13.279  -0.433   0.141  0.00  0.00    +0.174 C 
ENDROOT
BRANCH   1  64
ATOM     63  C   LEU A   1      14.020   2.653  -0.135  0.00  0.00    +0.231 C 
ATOM     64  N   UNK A   2      13.874   1.662   1.217  0.00  0.00    -0.300 N 
ATOM     65  H   UNK A   2      12.842   1.701   1.109  0.00  0.00    +0.150 HD
ATOM     66  O   LEU A   1      12.877   3.091  -0.463  0.00  0.00    -0.274 OA
BRANCH  63  67
ATOM     67  CA  LEU A   1      15.345   3.680  -1.044  0.00  0.00    +0.140 C 
BRANCH  67  69
ATOM     68  C   ACE A   0      14.937   4.999  -3.514  0.00  0.00    +0.101 C 
ATOM     69  N   LEU A   1      14.743   4.827  -2.043  0.00  0.00    -0.309 NA
ATOM     70  H   LEU A   1      14.114   5.512  -1.636  0.00  0.00    +0.122 HD
ENDBRANCH  67  69
BRANCH  67  71
ATOM     71  CB  LEU A   1      16.601   3.299  -1.929  0.00  0.00    +0.031 C 
BRANCH  71  72
ATOM     72  CG  LEU A   1      17.784   2.642  -1.243  0.00  0.00    -0.015 C 
ATOM     73  CD2 LEU A   1      18.953   2.360  -2.207  0.00  0.00    +0.007 C 
ATOM     74  CD1 LEU A   1      17.275   1.362  -0.635  0.00  0.00    +0.007 C 
ENDBRANCH  71  72
ENDBRANCH  67  71
ENDBRANCH  63  67
ENDBRANCH   1  64
BRANCH  21  75
ATOM     75  O   UNK A   6      22.633 -16.261   7.349  0.00  0.00    -0.385 OA
ATOM     76  H   UNK A   6      23.659 -16.197   7.358  0.00  0.00    +0.210 HD
ENDBRANCH  21  75
BRANCH  62  77
ATOM     77  O   UNK A   2      12.073   0.213  -0.321  0.00  0.00    -0.385 OA
ATOM     78  H   UNK A   2      11.935   0.155  -1.291  0.00  0.00    +0.210 HD
ENDBRANCH  62  77
BRANCH  47  79
ATOM     79  C   UNK A   7      24.789 -13.021   3.603  0.00  0.00    +0.330 C 
ATOM     80  O   UNK A   7      25.129 -11.872   3.376  0.00  0.00    -0.249 OA
BRANCH  79  81
ATOM     81  O   UNK A   7      25.624 -14.096   3.571  0.00  0.00    -0.479 OA
ATOM     82  H   UNK A   7      25.118 -14.883   3.901  0.00  0.00    +0.295 HD
ENDBRANCH  79  81
ENDBRANCH  47  79
BRANCH  52  83
ATOM     83  O   UNK A   7      23.019 -11.004   8.623  0.00  0.00    -0.507 OA
ATOM     84  H   UNK A   7      22.512 -10.321   9.101  0.00  0.00    +0.292 HD
ENDBRANCH  52  83
BRANCH  50  85
ATOM     85  O   UNK A   7      20.316  -9.357   5.159  0.00  0.00    -0.506 OA
ATOM     86  H   UNK A   7      19.428  -9.749   5.168  0.00  0.00    +0.292 HD
ENDBRANCH  50  85
BRANCH  54  87
ATOM     87  O   UNK A   7      22.832 -12.127   1.700  0.00  0.00    -0.506 OA
ATOM     88  H   UNK A   7      23.227 -11.524   2.361  0.00  0.00    +0.292 HD
ENDBRANCH  54  87
BRANCH  29  89
ATOM     89  O   UNK A   6      14.185  -5.737   4.021  0.00  0.00    -0.453 OA
BRANCH  89  90
ATOM     90  C   UNK A   6      12.650  -4.507   3.693  0.00  0.00    +0.340 C 
ATOM     91  C   UNK A   6      10.971  -4.392   4.583  0.00  0.00    +0.220 C 
ATOM     92  C   UNK A   6       9.582  -3.415   4.773  0.00  0.00    +0.180 C 
ATOM     93  C   UNK A   6       9.630  -2.016   4.373  0.00  0.00    +0.177 C 
ATOM     94  C   UNK A   6      10.520  -2.001   3.070  0.00  0.00    +0.179 C 
ATOM     95  O   UNK A   6      12.091  -2.840   3.032  0.00  0.00    -0.331 OA
BRANCH  92  96
ATOM     96  O   UNK A   6       8.777  -3.682   5.948  0.00  0.00    -0.386 OA
ATOM     97  H   UNK A   6       7.851  -3.828   5.617  0.00  0.00    +0.210 HD
ENDBRANCH  92  96
BRANCH  93  98
ATOM     98  O   UNK A   6       8.197  -1.550   4.197  0.00  0.00    -0.386 OA
ATOM     99  H   UNK A   6       7.629  -2.091   3.610  0.00  0.00    +0.210 HD
ENDBRANCH  93  98
BRANCH  94 100
ATOM    100  C   UNK A   6      10.002  -0.340   2.763  0.00  0.00    +0.190 C 
BRANCH 100 101
ATOM    101  O   UNK A   6      10.455   0.429   1.676  0.00  0.00    -0.392 OA
ATOM    102  H   UNK A   6      10.499   1.362   1.979  0.00  0.00    +0.210 HD
ENDBRANCH 100 101
ENDBRANCH  94 100
BRANCH  91 103
ATOM    103  O   UNK A   6      10.184  -5.481   4.173  0.00  0.00    -0.339 OA
BRANCH 103 104
ATOM    104  C   UNK A   6       9.403  -5.214   2.990  0.00  0.00    +0.253 C 
ATOM    105  O   UNK A   6       8.172  -5.877   3.096  0.00  0.00    -0.346 OA
ATOM    106  C   UNK A   6       8.345  -7.275   2.909  0.00  0.00    +0.148 C 
ATOM    107  C   UNK A   6       6.949  -7.854   3.041  0.00  0.00    +0.041 C 
ATOM    108  C   UNK A   6       9.121  -7.497   1.567  0.00  0.00    +0.163 C 
ATOM    109  C   UNK A   6      10.510  -6.762   1.604  0.00  0.00    +0.047 C 
ATOM    110  C   UNK A   6      11.379  -7.334   2.741  0.00  0.00    +0.030 C 
ATOM    111  C   UNK A   6      10.169  -5.311   1.734  0.00  0.00    +0.085 C 
BRANCH 109 112
ATOM    112  N   UNK A   6      11.298  -6.748   0.372  0.00  0.00    -0.323 NA
ATOM    113  H   UNK A   6      10.849  -6.171  -0.345  0.00  0.00    +0.119 HD
ATOM    114  H   UNK A   6      12.149  -6.191   0.554  0.00  0.00    +0.119 HD
ENDBRANCH 109 112
BRANCH 108 115
ATOM    115  O   UNK A   6       8.356  -6.942   0.479  0.00  0.00    -0.387 OA
ATOM    116  H   UNK A   6       8.965  -6.922  -0.280  0.00  0.00    +0.210 HD
ENDBRANCH 108 115
ENDBRANCH 103 104
ENDBRANCH  91 103
ENDBRANCH  89  90
ENDBRANCH  29  89
BRANCH   6 117
ATOM    117  CB  ASN A   3      12.814  -6.050   5.892  0.00  0.00    +0.127 C 
BRANCH 117 118
ATOM    118  CG  ASN A   3      11.505  -6.434   6.497  0.00  0.00    +0.213 C 
ATOM    119  OD1 ASN A   3      10.927  -7.486   6.262  0.00  0.00    -0.276 OA
ATOM    120  ND2 ASN A   3      11.229  -5.626   7.536  0.00  0.00    -0.329 N 
ATOM    121 HD21 ASN A   3      10.333  -5.746   7.964  0.00  0.00    +0.145 HD
ATOM    122 HD22 ASN A   3      11.753  -4.771   7.606  0.00  0.00    +0.145 HD
ENDBRANCH 117 118
ENDBRANCH   6 117
TORSDOF 24
