REMARK  Name = 
REMARK  8 active torsions:
REMARK  status: ('A' for Active; 'I' for Inactive)
REMARK    1  A    between atoms: C_1  and  C_2
REMARK    2  A    between atoms: C_2  and  C_3
REMARK    3  A    between atoms: C_15  and  O_16
REMARK    4  A    between atoms: C_15  and  C_17
REMARK    5  A    between atoms: C_17  and  C_18
REMARK    6  A    between atoms: C_26  and  O_27
REMARK    7  A    between atoms: O_27  and  C_28
REMARK    8  A    between atoms: C_33  and  N_36
REMARK                            x       y       z     vdW  Elec       q    Type
REMARK                         _______ _______ _______ _____ _____    ______ ____
ROOT
ATOM      1  C   UNL     1       3.057   0.942  -1.026  0.00  0.00    -0.031 A 
ATOM      2  C   UNL     1       2.788   2.293  -0.718  0.00  0.00    +0.007 A 
ATOM      3  C   UNL     1       2.236   2.667   0.521  0.00  0.00    +0.056 A 
ATOM      4  C   UNL     1       1.805   3.967   0.766  0.00  0.00    +0.134 A 
ATOM      5  C   UNL     1       2.046   4.950  -0.185  0.00  0.00    +0.048 A 
ATOM      6  C   UNL     1       2.682   4.605  -1.394  0.00  0.00    +0.032 A 
ATOM      7  C   UNL     1       3.062   3.297  -1.698  0.00  0.00    +0.072 A 
ATOM      8  N   UNL     1       3.655   3.024  -2.886  0.00  0.00    -0.245 NA
ATOM      9  C   UNL     1       3.961   1.735  -3.111  0.00  0.00    +0.093 A 
ATOM     10  C   UNL     1       4.679   1.158  -4.261  0.00  0.00    +0.071 A 
ATOM     11  C   UNL     1       5.179   1.696  -5.381  0.00  0.00    +0.035 A 
ATOM     12  C   UNL     1       5.948   0.850  -6.308  0.00  0.00    +0.008 A 
ATOM     13  C   UNL     1       6.629   1.458  -7.510  0.00  0.00    +0.188 C 
ATOM     14  C   UNL     1       7.535   0.478  -8.321  0.00  0.00    +0.344 C 
ATOM     15  O   UNL     1       8.193   0.856  -9.290  0.00  0.00    -0.247 OA
ATOM     16  O   UNL     1       7.555  -0.828  -7.991  0.00  0.00    -0.457 OA
ATOM     17  C   UNL     1       6.799  -1.426  -6.927  0.00  0.00    +0.273 C 
ATOM     18  C   UNL     1       6.051  -0.471  -6.077  0.00  0.00    +0.061 A 
ATOM     19  C   UNL     1       5.413  -1.088  -4.881  0.00  0.00    +0.259 A 
ATOM     20  O   UNL     1       5.468  -2.294  -4.680  0.00  0.00    -0.267 OA
ATOM     21  N   UNL     1       4.804  -0.201  -4.035  0.00  0.00    -0.302 N 
ATOM     22  C   UNL     1       4.179  -0.604  -2.785  0.00  0.00    +0.163 C 
ATOM     23  C   UNL     1       3.690   0.688  -2.232  0.00  0.00    +0.003 A 
ENDROOT
BRANCH   1  25
ATOM     24  C   UNL     1       3.735  -0.609   0.851  0.00  0.00    +0.009 C 
ATOM     25  C   UNL     1       2.653  -0.214  -0.140  0.00  0.00    +0.033 C 
ENDBRANCH   1  25
BRANCH  13  26
ATOM     26  O   UNL     1       5.577   1.929  -8.373  0.00  0.00    -0.373 OA
ATOM     27  H   UNL     1       5.435   1.258  -9.064  0.00  0.00    +0.211 HD
ENDBRANCH  13  26
BRANCH  13  28
ATOM     28  C   UNL     1       7.497   2.699  -7.171  0.00  0.00    +0.048 C 
ATOM     29  C   UNL     1       8.674   2.438  -6.238  0.00  0.00    +0.007 C 
ENDBRANCH  13  28
BRANCH   4  30
ATOM     30  O   UNL     1       1.152   4.325   1.971  0.00  0.00    -0.411 OA
BRANCH  30  31
ATOM     31  C   UNL     1       0.242   3.413   2.541  0.00  0.00    +0.408 C 
ATOM     32  N   UNL     1      -0.288   3.815   3.774  0.00  0.00    -0.267 N 
ATOM     33  C   UNL     1      -0.930   2.758   4.553  0.00  0.00    +0.112 C 
ATOM     34  C   UNL     1      -1.822   3.282   5.673  0.00  0.00    +0.038 C 
ATOM     35  C   UNL     1      -1.052   4.241   6.608  0.00  0.00    +0.060 C 
ATOM     36  C   UNL     1      -0.595   5.399   5.686  0.00  0.00    +0.038 C 
ATOM     37  C   UNL     1       0.269   4.947   4.507  0.00  0.00    +0.112 C 
ATOM     38  O   UNL     1      -0.066   2.341   2.023  0.00  0.00    -0.226 OA
BRANCH  35  39
ATOM     39  N   UNL     1       0.029   3.535   7.342  0.00  0.00    -0.299 NA
ATOM     40  C   UNL     1      -0.455   2.529   8.312  0.00  0.00    +0.084 C 
ATOM     41  C   UNL     1      -1.047   3.117   9.597  0.00  0.00    +0.015 C 
ATOM     42  C   UNL     1      -0.098   4.099  10.274  0.00  0.00    +0.002 C 
ATOM     43  C   UNL     1       0.533   5.073   9.285  0.00  0.00    +0.015 C 
ATOM     44  C   UNL     1       1.025   4.385   8.010  0.00  0.00    +0.084 C 
ENDBRANCH  35  39
ENDBRANCH  30  31
ENDBRANCH   4  30
TORSDOF 6
