REMARK  Name = 
REMARK  5 active torsions:
REMARK  status: ('A' for Active; 'I' for Inactive)
REMARK    1  A    between atoms: N9_10  and  C1*_11
REMARK    2  A    between atoms: C4*_14  and  C5*_16
REMARK    3  A    between atoms: C5*_16  and  O5*_17
REMARK    4  A    between atoms: C3*_18  and  O3*_20
REMARK    5  A    between atoms: C2*_21  and  O2*_23
REMARK                            x       y       z     vdW  Elec       q    Type
REMARK                         _______ _______ _______ _____ _____    ______ ____
ROOT
ATOM      1  N6    A A   1       8.289  -3.230  -5.816  0.00  0.00    -0.341 N 
ATOM      2  H61   A A   1       8.403  -2.223  -5.787  0.00  0.00    +0.144 HD
ATOM      3  H62   A A   1       8.947  -3.763  -6.371  0.00  0.00    +0.144 HD
ATOM      4  C6    A A   1       8.050  -3.803  -4.576  0.00  0.00    +0.147 A 
ATOM      5  C5    A A   1       7.560  -3.075  -3.480  0.00  0.00    +0.147 A 
ATOM      6  N7    A A   1       7.242  -1.744  -3.332  0.00  0.00    -0.231 NA
ATOM      7  C8    A A   1       6.834  -1.638  -2.089  0.00  0.00    +0.203 A 
ATOM      8  N9    A A   1       6.867  -2.844  -1.421  0.00  0.00    -0.286 N 
ATOM      9  C4    A A   1       7.359  -3.771  -2.295  0.00  0.00    +0.167 A 
ATOM     10  N3    A A   1       7.611  -5.076  -2.078  0.00  0.00    -0.216 NA
ATOM     11  C2    A A   1       8.083  -5.669  -3.200  0.00  0.00    +0.225 A 
ATOM     12  N1    A A   1       8.318  -5.116  -4.408  0.00  0.00    -0.219 NA
ENDROOT
BRANCH   8  13
ATOM     13  C1*   A A   1       6.478  -2.961  -0.034  0.00  0.00    +0.253 C 
ATOM     14  C2*   A A   1       6.474  -4.289   0.725  0.00  0.00    +0.195 C 
ATOM     15  C3*   A A   1       7.890  -4.413   1.278  0.00  0.00    +0.178 C 
ATOM     16  C4*   A A   1       8.419  -2.975   1.281  0.00  0.00    +0.177 C 
ATOM     17  O4*   A A   1       7.385  -2.125   0.721  0.00  0.00    -0.346 OA
BRANCH  14  18
ATOM     18  O2*   A A   1       6.000  -5.432   0.033  0.00  0.00    -0.385 OA
ATOM     19  H2*   A A   1       6.630  -5.633  -0.691  0.00  0.00    +0.210 HD
ENDBRANCH  14  18
BRANCH  15  20
ATOM     20  O3*   A A   1       7.875  -4.948   2.608  0.00  0.00    -0.386 OA
ATOM     21  H3*   A A   1       7.280  -4.418   3.167  0.00  0.00    +0.210 HD
ENDBRANCH  15  20
BRANCH  16  22
ATOM     22  C5*   A A   1       9.696  -2.841   0.441  0.00  0.00    +0.190 C 
BRANCH  22  23
ATOM     23  O5*   A A   1      10.124  -1.482   0.406  0.00  0.00    -0.392 OA
ATOM     24  H5*   A A   1       9.378  -0.963   0.052  0.00  0.00    +0.210 HD
ENDBRANCH  22  23
ENDBRANCH  16  22
ENDBRANCH   8  13
TORSDOF 5
