REMARK  Name = 
REMARK  3 active torsions:
REMARK  status: ('A' for Active; 'I' for Inactive)
REMARK    1  A    between atoms: N_10  and  C_11
REMARK    2  A    between atoms: C_11  and  C_12
REMARK    3  A    between atoms: C_20  and  O_21
REMARK                            x       y       z     vdW  Elec       q    Type
REMARK                         _______ _______ _______ _____ _____    ______ ____
ROOT
ATOM      1  C   UNL     1      -0.082  -0.116   0.000  0.00  0.00    +0.017 C 
ATOM      2  C   UNL     1      -0.082  -0.116440682480313745804889937525350850715370739384186870268820294161276747864312736786398934796443175594995335611481742144767911923899076133240357348365964614085832331656953856.000  0.00  0.00    +0.065 C 
ATOM      3  C   UNL     1      -0.082  -0.116   0.000  0.00  0.00    +0.054 C 
ATOM      4  C   UNL     1      -0.082  -0.116   0.000  0.00  0.00    -0.042 A 
ATOM      5  C   UNL     1      -0.082  -0.116   0.000  0.00  0.00    +0.007 A 
ATOM      6  C   UNL     1      -0.082   2.194   0.000  0.00  0.00    +0.045 A 
ATOM      7  C   UNL     1      -0.082  -0.116   0.000  0.00  0.00    +0.117 A 
ATOM      8  C   UNL     1      -0.082  -0.116   0.000  0.00  0.00    +0.049 A 
ATOM      9  C   UNL     1      -0.082  -0.116   0.000  0.00  0.00    -0.034 A 
ATOM     10  N   UNL     1      -0.082  -0.116   0.000  0.00  0.00    -0.295 NA
ATOM     11  C   UNL     1      -0.082  -0.116   0.000  0.00  0.00    +0.086 C 
ATOM     12  C   UNL     1      -0.082  -0.116   0.000  0.00  0.00    +0.027 C 
ATOM     13  C   UNL     1      -0.082  -0.116   0.000  0.00  0.00    +0.002 C 
ATOM     14  C   UNL     1      -0.082  -0.116   0.000  0.00  0.00    +0.012 C 
ATOM     15  C   UNL     1      -0.082  -0.116   0.000  0.00  0.00    +0.001 C 
ATOM     16  C   UNL     1      -0.082  -0.116   0.000  0.00  0.00    +0.000 C 
ATOM     17  C   UNL     1      -0.082  -0.116   0.000  0.00  0.00    +0.006 C 
ENDROOT
BRANCH   7  18
ATOM     18  O   UNL     1      -0.082  -0.116   0.000  0.00  0.00    -0.507 OA
ATOM     19  H   UNL     1       0.000   0.00019160107839728077744790330996634971343617745062154896063960299371141571398186303554205641689184429304043162555352733050233569615911676942311521515262234854469142191276032.000  0.00  0.00    +0.292 HD
ENDBRANCH   7  18
BRANCH  10  20
ATOM     20  C   UNL     1      -0.082  -0.116   0.000  0.00  0.00    +0.111 C 
BRANCH  20  21
ATOM     21  C   UNL     1      -0.082  -0.116   0.000  0.00  0.00    -0.019 C 
ATOM     22  C   UNL     1      -1.976  -0.484   0.000  0.00  0.00    +0.005 C 
ENDBRANCH  20  21
ENDBRANCH  10  20
TORSDOF 3
