REMARK  Name = 
REMARK  11 active torsions:
REMARK  status: ('A' for Active; 'I' for Inactive)
REMARK    1  A    between atoms: O_1  and  C_2
REMARK    2  A    between atoms: C_2  and  C_3
REMARK    3  A    between atoms: C_3  and  O_5
REMARK    4  A    between atoms: C_3  and  C_6
REMARK    5  A    between atoms: C_6  and  O_8
REMARK    6  A    between atoms: C_6  and  C_9
REMARK    7  A    between atoms: C_9  and  O_11
REMARK    8  A    between atoms: C_9  and  C_12
REMARK    9  A    between atoms: C_12  and  O_14
REMARK   10  A    between atoms: C_12  and  C_15
REMARK   11  A    between atoms: C_15  and  O_16
REMARK                            x       y       z     vdW  Elec       q    Type
REMARK                         _______ _______ _______ _____ _____    ______ ____
ROOT
ATOM      1  C   UNL     1       6.015   1.284  -2.799  0.00  0.00    +0.176 C 
ENDROOT
BRANCH   1   2
ATOM      2  O   UNL     1       6.740   2.520  -2.594  0.00  0.00    -0.386 OA
ATOM      3  H   UNL     1       6.971   2.575  -1.648  0.00  0.00    +0.210 HD
ENDBRANCH   1   2
BRANCH   1   4
ATOM      4  C   UNL     1       4.711   1.296  -1.987  0.00  0.00    +0.171 C 
BRANCH   4   5
ATOM      5  O   UNL     1       3.938   0.121  -2.235  0.00  0.00    -0.387 OA
ATOM      6  H   UNL     1       3.060   0.316  -1.852  0.00  0.00    +0.210 HD
ENDBRANCH   4   5
BRANCH   4   7
ATOM      7  C   UNL     1       3.833   2.503  -2.344  0.00  0.00    +0.189 C 
BRANCH   7   8
ATOM      8  O   UNL     1       2.626   2.405  -1.578  0.00  0.00    -0.392 OA
ATOM      9  H   UNL     1       2.077   3.171  -1.823  0.00  0.00    +0.210 HD
ENDBRANCH   7   8
ENDBRANCH   4   7
ENDBRANCH   1   4
BRANCH   1  10
ATOM     10  C   UNL     1       6.994   0.132  -2.493  0.00  0.00    +0.176 C 
BRANCH  10  11
ATOM     11  O   UNL     1       8.109   0.283  -3.412  0.00  0.00    -0.386 OA
ATOM     12  H   UNL     1       8.342   1.235  -3.383  0.00  0.00    +0.210 HD
ENDBRANCH  10  11
BRANCH  10  13
ATOM     13  C   UNL     1       6.431  -1.305  -2.605  0.00  0.00    +0.171 C 
BRANCH  13  14
ATOM     14  O   UNL     1       7.449  -2.239  -2.188  0.00  0.00    -0.387 OA
ATOM     15  H   UNL     1       7.660  -2.794  -2.963  0.00  0.00    +0.210 HD
ENDBRANCH  13  14
BRANCH  13  16
ATOM     16  C   UNL     1       5.960  -1.665  -4.023  0.00  0.00    +0.189 C 
BRANCH  16  17
ATOM     17  O   UNL     1       7.055  -1.671  -4.940  0.00  0.00    -0.392 OA
ATOM     18  H   UNL     1       7.661  -0.948  -4.663  0.00  0.00    +0.210 HD
ENDBRANCH  16  17
ENDBRANCH  13  16
ENDBRANCH  10  13
ENDBRANCH   1  10
TORSDOF 11
