REMARK  Name = 
REMARK  5 active torsions:
REMARK  status: ('A' for Active; 'I' for Inactive)
REMARK    1  A    between atoms: C_1  and  C_2
REMARK    2  A    between atoms: C_2  and  O_3
REMARK    3  A    between atoms: O_3  and  C_4
REMARK    4  A    between atoms: C_11  and  S_13
REMARK    5  A    between atoms: S_13  and  N_14
REMARK                            x       y       z     vdW  Elec       q    Type
REMARK                         _______ _______ _______ _____ _____    ______ ____
ROOT
ATOM      1  C   UNL     1       4.298   0.292   1.506  0.00  0.00    +0.122 A 
ATOM      2  C   UNL     1       4.981   1.500   1.636  0.00  0.00    +0.048 A 
ATOM      3  C   UNL     1       6.368   1.530   1.870  0.00  0.00    +0.032 A 
ATOM      4  C   UNL     1       7.085   0.319   1.981  0.00  0.00    +0.081 A 
ATOM      5  N   UNL     1       8.445   0.170   2.235  0.00  0.00    -0.221 NA
ATOM      6  C   UNL     1       8.726  -1.120   2.274  0.00  0.00    +0.233 A 
ATOM      7  S   UNL     1       7.454  -2.209   1.993  0.00  0.00    -0.047 S 
ATOM      8  C   UNL     1       6.381  -0.880   1.831  0.00  0.00    +0.044 A 
ATOM      9  C   UNL     1       5.001  -0.913   1.588  0.00  0.00    +0.063 A 
ENDROOT
BRANCH   6  10
ATOM     10  S   UNL     1      10.322  -1.830   2.608  0.00  0.00    +0.080 S 
ATOM     11  O   UNL     1      10.743  -2.451   1.372  0.00  0.00    -0.151 OA
ATOM     12  O   UNL     1      10.179  -2.555   3.850  0.00  0.00    -0.151 OA
BRANCH  10  13
ATOM     13  N   UNL     1      11.388  -0.555   2.901  0.00  0.00    -0.202 NA
ATOM     14  H   UNL     1      11.522  -0.002   2.055  0.00  0.00    +0.144 HD
ATOM     15  H   UNL     1      11.074  -0.002   3.698  0.00  0.00    +0.144 HD
ENDBRANCH  10  13
ENDBRANCH   6  10
BRANCH   1  16
ATOM     16  O   UNL     1       2.941   0.381   1.304  0.00  0.00    -0.492 OA
BRANCH  16  18
ATOM     17  C   UNL     1       0.759  -0.635   1.088  0.00  0.00    +0.048 C 
ATOM     18  C   UNL     1       2.247  -0.870   1.251  0.00  0.00    +0.225 C 
ENDBRANCH  16  18
ENDBRANCH   1  16
TORSDOF 4
