REMARK  Name = 
REMARK  4 active torsions:
REMARK  status: ('A' for Active; 'I' for Inactive)
REMARK    1  A    between atoms: N_1  and  C_2
REMARK    2  A    between atoms: C_5  and  S_8
REMARK    3  A    between atoms: S_8  and  N_11
REMARK    4  A    between atoms: N_11  and  C_12
REMARK                            x       y       z     vdW  Elec       q    Type
REMARK                         _______ _______ _______ _____ _____    ______ ____
ROOT
ATOM      1  S   UNL     1       6.970   0.138  -0.668  0.00  0.00    +0.073 S 
ATOM      2  O   UNL     1       7.578   0.998   0.329  0.00  0.00    -0.150 OA
ATOM      3  O   UNL     1       7.048   0.474  -2.075  0.00  0.00    -0.150 OA
ENDROOT
BRANCH   1   7
ATOM      4  C   UNL     1       2.520   0.066   0.429  0.00  0.00    +0.025 A 
ATOM      5  C   UNL     1       2.928  -0.185  -0.886  0.00  0.00    +0.024 A 
ATOM      6  C   UNL     1       4.286  -0.195  -1.226  0.00  0.00    +0.030 A 
ATOM      7  C   UNL     1       5.248  -0.010  -0.230  0.00  0.00    +0.109 A 
ATOM      8  C   UNL     1       4.856   0.179   1.100  0.00  0.00    +0.030 A 
ATOM      9  C   UNL     1       3.495   0.188   1.424  0.00  0.00    +0.024 A 
BRANCH   4  10
ATOM     10  N   UNL     1       1.165  -0.020   0.775  0.00  0.00    -0.358 N 
ATOM     11  H   UNL     1       0.533   0.226   0.018  0.00  0.00    +0.142 HD
ATOM     12  H   UNL     1       0.933   0.472   1.634  0.00  0.00    +0.142 HD
ENDBRANCH   4  10
ENDBRANCH   1   7
BRANCH   1  13
ATOM     13  N   UNL     1       7.620  -1.395  -0.422  0.00  0.00    -0.199 N 
ATOM     14  H   UNL     1       7.543  -1.660   0.556  0.00  0.00    +0.175 HD
BRANCH  13  15
ATOM     15  C   UNL     1       7.129  -2.421  -1.246  0.00  0.00    +0.138 A 
ATOM     16  N   UNL     1       6.192  -3.169  -0.642  0.00  0.00    -0.239 NA
ATOM     17  C   UNL     1       5.685  -4.187  -1.372  0.00  0.00    +0.113 A 
ATOM     18  C   UNL     1       6.092  -4.494  -2.662  0.00  0.00    +0.020 A 
ATOM     19  C   UNL     1       7.068  -3.696  -3.251  0.00  0.00    +0.005 A 
ATOM     20  C   UNL     1       7.592  -2.623  -2.534  0.00  0.00    +0.045 A 
ENDBRANCH  13  15
ENDBRANCH   1  13
TORSDOF 4
