REMARK  Name = 
REMARK  5 active torsions:
REMARK  status: ('A' for Active; 'I' for Inactive)
REMARK    1  A    between atoms: C_1  and  C_2
REMARK    2  A    between atoms: C_2  and  C_3
REMARK    3  A    between atoms: N_7  and  C_10
REMARK    4  A    between atoms: C_12  and  C_19
REMARK    5  A    between atoms: C_13  and  N_16
REMARK                            x       y       z     vdW  Elec       q    Type
REMARK                         _______ _______ _______ _____ _____    ______ ____
ROOT
ATOM      1  C   UNL     1       5.197  -1.752   2.254  0.00  0.00    +0.046 A 
ATOM      2  C   UNL     1       5.042  -3.149   2.204  0.00  0.00    +0.030 A 
ATOM      3  C   UNL     1       5.902  -4.015   2.890  0.00  0.00    +0.087 A 
ATOM      4  C   UNL     1       6.953  -3.489   3.641  0.00  0.00    +0.285 A 
ATOM      5  C   UNL     1       7.163  -2.110   3.728  0.00  0.00    +0.133 A 
ATOM      6  C   UNL     1       6.270  -1.263   3.030  0.00  0.00    +0.043 A 
ENDROOT
BRANCH   1  11
ATOM      7  C   UNL     1       1.149   0.008   0.204  0.00  0.00    +0.041 C 
ATOM      8  C   UNL     1       2.664  -0.014   0.064  0.00  0.00    +0.107 C 
ATOM      9  C   UNL     1       3.279  -1.263   0.711  0.00  0.00    +0.250 C 
ATOM     10  O   UNL     1       2.909  -2.395   0.420  0.00  0.00    -0.272 OA
ATOM     11  N   UNL     1       4.310  -0.873   1.552  0.00  0.00    -0.192 N 
ATOM     12  C   UNL     1       4.338   0.504   1.600  0.00  0.00    +0.314 C 
ATOM     13  O   UNL     1       5.108   1.260   2.172  0.00  0.00    -0.252 OA
ATOM     14  N   UNL     1       3.299   1.005   0.846  0.00  0.00    -0.285 N 
ATOM     15  H   UNL     1       3.233   2.002   0.684  0.00  0.00    +0.151 HD
ATOM     16  C   UNL     1       3.109   0.075  -1.393  0.00  0.00    +0.041 C 
ENDBRANCH   1  11
BRANCH   5  17
ATOM     17  C   UNL     1       8.282  -1.524   4.551  0.00  0.00    +0.424 C 
ATOM     18  F   UNL     1       9.513  -1.791   4.045  0.00  0.00    -0.166 F 
ATOM     19  F   UNL     1       8.275  -1.983   5.830  0.00  0.00    -0.166 F 
ATOM     20  F   UNL     1       8.219  -0.167   4.650  0.00  0.00    -0.166 F 
ENDBRANCH   5  17
BRANCH   4  21
ATOM     21  N   UNL     1       7.814  -4.432   4.339  0.00  0.00    +0.080 N 
ATOM     22  O   UNL     1       7.269  -5.199   5.141  0.00  0.00    +0.041 OA
ATOM     23  O   UNL     1       9.015  -4.416   4.051  0.00  0.00    -0.576 OA
ENDBRANCH   4  21
TORSDOF 3
