REMARK  Name = 
REMARK  3 active torsions:
REMARK  status: ('A' for Active; 'I' for Inactive)
REMARK    1  A    between atoms: C_1  and  C_2
REMARK    2  A    between atoms: C_8  and  S_10
REMARK    3  A    between atoms: S_10  and  N_11
REMARK                            x       y       z     vdW  Elec       q    Type
REMARK                         _______ _______ _______ _____ _____    ______ ____
ROOT
ATOM      1  C   UNL     1       1.372   1.532  -1.125  0.00  0.00    +0.109 C 
ATOM      2  C   UNL     1       2.876   1.452  -1.135  0.00  0.00    +0.216 C 
ATOM      3  N   UNL     1       3.338   0.163  -1.000  0.00  0.00    -0.263 N 
ATOM      4  H   UNL     1       2.707  -0.601  -0.806  0.00  0.00    +0.157 HD
ATOM      5  C   UNL     1       4.677  -0.116  -1.070  0.00  0.00    +0.189 A 
ATOM      6  S   UNL     1       5.100  -1.741  -0.743  0.00  0.00    -0.011 S 
ATOM      7  C   UNL     1       6.720  -1.253  -0.969  0.00  0.00    +0.256 A 
ATOM      8  N   UNL     1       6.894   0.008  -1.301  0.00  0.00    -0.119 NA
ATOM      9  N   UNL     1       5.686   0.674  -1.354  0.00  0.00    -0.124 NA
ATOM     10  O   UNL     1       3.555   2.466  -1.254  0.00  0.00    -0.276 OA
ENDROOT
BRANCH   7  11
ATOM     11  S   UNL     1       8.021  -2.410  -0.725  0.00  0.00    +0.081 S 
ATOM     12  O   UNL     1       7.896  -3.377  -1.791  0.00  0.00    -0.151 OA
ATOM     13  O   UNL     1       7.968  -2.770   0.674  0.00  0.00    -0.151 OA
BRANCH  11  14
ATOM     14  N   UNL     1       9.481  -1.591  -0.965  0.00  0.00    -0.202 NA
ATOM     15  H   UNL     1       9.558  -1.243  -1.922  0.00  0.00    +0.144 HD
ATOM     16  H   UNL     1       9.614  -0.860  -0.265  0.00  0.00    +0.144 HD
ENDBRANCH  11  14
ENDBRANCH   7  11
TORSDOF 2
