REMARK  Name = 
REMARK  7 active torsions:
REMARK  status: ('A' for Active; 'I' for Inactive)
REMARK    1  A    between atoms: C_2  and  C_3
REMARK    2  A    between atoms: C_3  and  C_4
REMARK    3  A    between atoms: C_4  and  N_5
REMARK    4  A    between atoms: N_8  and  C_9
REMARK    5  A    between atoms: C_9  and  C_10
REMARK    6  A    between atoms: C_10  and  O_11
REMARK    7  A    between atoms: C_17  and  C_28
REMARK                            x       y       z     vdW  Elec       q    Type
REMARK                         _______ _______ _______ _____ _____    ______ ____
ROOT
ATOM      1  C   UNL     1      10.074  -4.116   2.728  0.00  0.00    -0.021 C 
ATOM      2  C   UNL     1       9.185  -4.067   1.704  0.00  0.00    -0.035 C 
ATOM      3  C   UNL     1       8.839  -5.362   1.007  0.00  0.00    -0.008 A 
ATOM      4  C   UNL     1       9.798  -6.399   0.919  0.00  0.00    +0.009 A 
ATOM      5  C   UNL     1       9.518  -7.618   0.294  0.00  0.00    +0.001 A 
ATOM      6  C   UNL     1       8.276  -7.829  -0.284  0.00  0.00    +0.001 A 
ATOM      7  C   UNL     1       7.329  -6.811  -0.256  0.00  0.00    +0.015 A 
ATOM      8  C   UNL     1       7.598  -5.578   0.368  0.00  0.00    +0.016 A 
ATOM      9  S   UNL     1       6.286  -4.372   0.224  0.00  0.00    -0.116 S 
ATOM     10  C   UNL     1       6.893  -3.090   1.363  0.00  0.00    +0.085 C 
ATOM     11  C   UNL     1       6.037  -1.859   1.197  0.00  0.00    -0.011 C 
ATOM     12  C   UNL     1       6.525  -0.637   1.468  0.00  0.00    +0.009 C 
ATOM     13  C   UNL     1       7.894  -0.464   1.914  0.00  0.00    +0.051 C 
ATOM     14  C   UNL     1       8.786  -1.451   1.669  0.00  0.00    -0.005 C 
ATOM     15  C   UNL     1       8.415  -2.836   1.140  0.00  0.00    +0.059 C 
ENDROOT
BRANCH  13  16
ATOM     16  C   UNL     1       8.271   0.839   2.585  0.00  0.00    +0.417 C 
ATOM     17  F   UNL     1       9.350   1.423   1.995  0.00  0.00    -0.166 F 
ATOM     18  F   UNL     1       8.600   0.642   3.884  0.00  0.00    -0.166 F 
ATOM     19  F   UNL     1       7.271   1.758   2.568  0.00  0.00    -0.166 F 
ENDBRANCH  13  16
BRANCH   1  20
ATOM     20  C   UNL     1      10.656  -2.932   3.430  0.00  0.00    +0.043 C 
BRANCH  20  21
ATOM     21  C   UNL     1      11.754  -3.147   4.478  0.00  0.00    +0.088 C 
BRANCH  21  22
ATOM     22  N   UNL     1      12.163  -1.847   5.061  0.00  0.00    -0.300 NA
ATOM     23  C   UNL     1      12.673  -0.872   4.069  0.00  0.00    +0.100 C 
ATOM     24  C   UNL     1      14.068  -1.220   3.497  0.00  0.00    +0.100 C 
ATOM     25  N   UNL     1      15.113  -1.401   4.535  0.00  0.00    -0.298 NA
ATOM     26  C   UNL     1      14.599  -2.359   5.546  0.00  0.00    +0.100 C 
ATOM     27  C   UNL     1      13.192  -2.033   6.103  0.00  0.00    +0.100 C 
BRANCH  25  28
ATOM     28  C   UNL     1      15.465  -0.080   5.114  0.00  0.00    +0.112 C 
BRANCH  28  29
ATOM     29  C   UNL     1      16.607  -0.140   6.137  0.00  0.00    +0.171 C 
BRANCH  29  30
ATOM     30  O   UNL     1      17.739  -0.797   5.576  0.00  0.00    -0.394 OA
ATOM     31  H   UNL     1      17.371  -1.513   5.021  0.00  0.00    +0.209 HD
ENDBRANCH  29  30
ENDBRANCH  28  29
ENDBRANCH  25  28
ENDBRANCH  21  22
ENDBRANCH  20  21
ENDBRANCH   1  20
TORSDOF 7
