REMARK  Name = 
REMARK  9 active torsions:
REMARK  status: ('A' for Active; 'I' for Inactive)
REMARK    1  A    between atoms: C_1  and  C_2
REMARK    2  A    between atoms: C_2  and  C_3
REMARK    3  A    between atoms: C_2  and  N_4
REMARK    4  A    between atoms: N_4  and  C_5
REMARK    5  A    between atoms: C_5  and  C_6
REMARK    6  A    between atoms: C_6  and  O_7
REMARK    7  A    between atoms: C_6  and  C_8
REMARK    8  A    between atoms: C_10  and  O_11
REMARK    9  A    between atoms: C_13  and  O_14
REMARK                            x       y       z     vdW  Elec       q    Type
REMARK                         _______ _______ _______ _____ _____    ______ ____
ROOT
ATOM      1  C   UNL     1       6.484   2.519  -1.552  0.00  0.00    -0.011 A 
ATOM      2  C   UNL     1       7.249   2.461  -0.375  0.00  0.00    +0.051 A 
ATOM      3  C   UNL     1       8.639   2.414  -0.439  0.00  0.00    +0.121 A 
ATOM      4  C   UNL     1       9.299   2.435  -1.660  0.00  0.00    +0.090 A 
ATOM      5  C   UNL     1       8.549   2.511  -2.827  0.00  0.00    +0.121 A 
ATOM      6  C   UNL     1       7.155   2.556  -2.786  0.00  0.00    +0.051 A 
ENDROOT
BRANCH   3   7
ATOM      7  O   UNL     1       9.322   2.331   0.739  0.00  0.00    -0.507 OA
ATOM      8  H   UNL     1      10.273   2.298   0.539  0.00  0.00    +0.292 HD
ENDBRANCH   3   7
BRANCH   5   9
ATOM      9  O   UNL     1       9.224   2.525  -4.012  0.00  0.00    -0.507 OA
ATOM     10  H   UNL     1       8.581   2.591  -4.737  0.00  0.00    +0.292 HD
ENDBRANCH   5   9
BRANCH   1  11
ATOM     11  C   UNL     1       4.968   2.482  -1.515  0.00  0.00    +0.158 C 
BRANCH  11  12
ATOM     12  O   UNL     1       4.461   3.640  -0.849  0.00  0.00    -0.386 OA
ATOM     13  H   UNL     1       4.812   3.633   0.057  0.00  0.00    +0.210 HD
ENDBRANCH  11  12
BRANCH  11  14
ATOM     14  C   UNL     1       4.457   1.191  -0.824  0.00  0.00    +0.117 C 
BRANCH  14  15
ATOM     15  N   UNL     1       2.994   1.065  -0.909  0.00  0.00    -0.311 NA
ATOM     16  H   UNL     1       2.575   1.926  -0.550  0.00  0.00    +0.122 HD
BRANCH  15  18
ATOM     17  C   UNL     1       0.947  -0.061  -0.233  0.00  0.00    +0.023 C 
ATOM     18  C   UNL     1       2.475  -0.099  -0.180  0.00  0.00    +0.048 C 
ATOM     19  C   UNL     1       2.974  -1.418  -0.777  0.00  0.00    +0.023 C 
ENDBRANCH  15  18
ENDBRANCH  14  15
ENDBRANCH  11  14
ENDBRANCH   1  11
TORSDOF 7
