REMARK  Name = 
REMARK  11 active torsions:
REMARK  status: ('A' for Active; 'I' for Inactive)
REMARK    1  A    between atoms: C_10  and  C_11
REMARK    2  A    between atoms: C_11  and  N_12
REMARK    3  A    between atoms: N_12  and  C_13
REMARK    4  A    between atoms: C_16  and  C_19
REMARK    5  A    between atoms: N_21  and  CA_22
REMARK    6  A    between atoms: CA_22  and  CB_24
REMARK    7  A    between atoms: CA_22  and  C_29
REMARK    8  A    between atoms: CB_24  and  CG_25
REMARK    9  A    between atoms: CG_25  and  CD_26
REMARK   10  A    between atoms: CD_26  and  OE1_27
REMARK   11  A    between atoms: C_29  and  O_30
REMARK                            x       y       z     vdW  Elec       q    Type
REMARK                         _______ _______ _______ _____ _____    ______ ____
ROOT
ATOM      1  C   UNK A   0      10.817  -2.697   0.676  0.00  0.00    +0.027 A 
ATOM      2  C   UNK A   0      11.238  -4.030   0.566  0.00  0.00    +0.023 A 
ATOM      3  C   UNK A   0      12.548  -4.363   0.182  0.00  0.00    +0.015 A 
ATOM      4  C   UNK A   0      13.475  -3.353  -0.089  0.00  0.00    +0.037 A 
ATOM      5  C   UNK A   0      13.083  -2.022   0.084  0.00  0.00    +0.015 A 
ATOM      6  C   UNK A   0      11.780  -1.702   0.481  0.00  0.00    +0.023 A 
ENDROOT
BRANCH   4   7
ATOM      7  C   UNK A   0      14.835  -3.597  -0.654  0.00  0.00    +0.245 C 
ATOM      8  N   GLU A   1      15.265  -4.907  -0.797  0.00  0.00    -0.298 N 
ATOM      9  H   GLU A   1      14.818  -5.645  -0.264  0.00  0.00    +0.150 HD
ATOM     10  O   UNK A   0      15.516  -2.663  -1.057  0.00  0.00    -0.270 OA
BRANCH   8  11
ATOM     11  CA  GLU A   1      16.588  -5.197  -1.401  0.00  0.00    +0.182 C 
BRANCH  11  12
ATOM     12  C   GLU A   1      16.492  -5.229  -2.944  0.00  0.00    +0.325 C 
ATOM     13  OXT GLU A   1      17.445  -5.405  -3.691  0.00  0.00    -0.249 OA
BRANCH  12  14
ATOM     14  O   GLU A   1      15.232  -5.100  -3.423  0.00  0.00    -0.479 OA
ATOM     15  H   GLU A   1      14.623  -4.892  -2.688  0.00  0.00    +0.295 HD
ENDBRANCH  12  14
ENDBRANCH  11  12
BRANCH  11  16
ATOM     16  CB  GLU A   1      17.140  -6.523  -0.850  0.00  0.00    +0.045 C 
BRANCH  16  17
ATOM     17  CG  GLU A   1      18.550  -6.853  -1.354  0.00  0.00    +0.123 C 
BRANCH  17  18
ATOM     18  CD  GLU A   1      19.113  -8.100  -0.717  0.00  0.00    +0.305 C 
ATOM     19  OE2 GLU A   1      18.552  -8.771   0.133  0.00  0.00    -0.251 OA
BRANCH  18  20
ATOM     20  OE1 GLU A   1      20.337  -8.412  -1.205  0.00  0.00    -0.481 OA
ATOM     21  HE1 GLU A   1      20.649  -7.802  -1.902  0.00  0.00    +0.295 HD
ENDBRANCH  18  20
ENDBRANCH  17  18
ENDBRANCH  16  17
ENDBRANCH  11  16
ENDBRANCH   8  11
ENDBRANCH   4   7
BRANCH   1  22
ATOM     22  N   UNK A   0       9.498  -2.441   1.064  0.00  0.00    -0.342 N 
ATOM     23  H   UNK A   0       8.833  -3.050   0.579  0.00  0.00    +0.146 HD
BRANCH  22  24
ATOM     24  C   UNK A   0       9.023  -1.057   1.120  0.00  0.00    +0.125 C 
BRANCH  24  35
ATOM     25  N   UNK A   0       1.303  -1.413   1.583  0.00  0.00    -0.329 N 
ATOM     26  H   UNK A   0       1.056  -1.970   2.390  0.00  0.00    +0.145 HD
ATOM     27  H   UNK A   0       0.678  -1.596   0.802  0.00  0.00    +0.145 HD
ATOM     28  C   UNK A   0       2.599  -1.496   1.194  0.00  0.00    +0.195 A 
ATOM     29  N   UNK A   0       3.480  -1.485   2.221  0.00  0.00    -0.315 N 
ATOM     30  H   UNK A   0       3.165  -1.371   3.169  0.00  0.00    +0.170 HD
ATOM     31  C   UNK A   0       4.826  -1.555   2.016  0.00  0.00    +0.125 A 
ATOM     32  N   UNK A   0       5.719  -1.512   3.083  0.00  0.00    -0.327 N 
ATOM     33  H   UNK A   0       5.415  -0.962   3.877  0.00  0.00    +0.148 HD
ATOM     34  C   UNK A   0       7.176  -1.572   2.842  0.00  0.00    +0.126 C 
ATOM     35  C   UNK A   0       7.527  -0.953   1.459  0.00  0.00    +0.105 C 
ATOM     36  N   UNK A   0       6.665  -1.579   0.427  0.00  0.00    -0.331 N 
ATOM     37  H   UNK A   0       6.790  -1.246  -0.532  0.00  0.00    +0.147 HD
ATOM     38  C   UNK A   0       5.288  -1.624   0.740  0.00  0.00    +0.133 A 
ATOM     39  C   UNK A   0       4.259  -1.613  -0.382  0.00  0.00    +0.297 A 
ATOM     40  O   UNK A   0       4.664  -1.611  -1.545  0.00  0.00    -0.264 OA
ATOM     41  N   UNK A   0       2.916  -1.562  -0.055  0.00  0.00    -0.176 NA
ENDBRANCH  24  35
ENDBRANCH  22  24
ENDBRANCH   1  22
TORSDOF 11
