REMARK  Name = 
REMARK  3 active torsions:
REMARK  status: ('A' for Active; 'I' for Inactive)
REMARK    1  A    between atoms: O_1  and  C_2
REMARK    2  A    between atoms: C_2  and  C_3
REMARK    3  A    between atoms: C_7  and  N_10
REMARK                            x       y       z     vdW  Elec       q    Type
REMARK                         _______ _______ _______ _____ _____    ______ ____
ROOT
ATOM      1  N   UNL     1       2.283   2.889   3.806  0.00  0.00    -0.289 N 
ATOM      2  C   UNL     1       2.759   2.014   4.728  0.00  0.00    +0.147 A 
ATOM      3  N   UNL     1       2.985   0.697   4.632  0.00  0.00    -0.330 N 
ATOM      4  H   UNL     1       2.837   0.169   3.767  0.00  0.00    +0.168 HD
ATOM      5  C   UNL     1       3.464   0.084   5.763  0.00  0.00    +0.202 A 
ATOM      6  N   UNL     1       3.728   0.643   6.905  0.00  0.00    -0.198 NA
ATOM      7  C   UNL     1       3.518   2.020   7.065  0.00  0.00    +0.301 A 
ATOM      8  O   UNL     1       3.761   2.603   8.117  0.00  0.00    -0.263 OA
ATOM      9  C   UNL     1       2.994   2.719   5.879  0.00  0.00    +0.172 A 
ATOM     10  N   UNL     1       2.671   4.045   5.685  0.00  0.00    -0.229 NA
ATOM     11  C   UNL     1       2.237   4.110   4.440  0.00  0.00    +0.203 A 
ENDROOT
BRANCH   1  14
ATOM     12  C   UNL     1       2.806   1.114   0.927  0.00  0.00    +0.146 C 
ATOM     13  O   UNL     1       2.001   1.248   2.116  0.00  0.00    -0.351 OA
ATOM     14  C   UNL     1       1.861   2.648   2.438  0.00  0.00    +0.222 C 
ATOM     15  C   UNL     1       2.663   3.423   1.399  0.00  0.00    +0.057 C 
ATOM     16  C   UNL     1       2.718   2.461   0.235  0.00  0.00    +0.038 C 
BRANCH  12  17
ATOM     17  C   UNL     1       4.246   0.737   1.315  0.00  0.00    +0.187 C 
BRANCH  17  18
ATOM     18  O   UNL     1       4.245  -0.488   2.048  0.00  0.00    -0.392 OA
ATOM     19  H   UNL     1       5.173  -0.677   2.277  0.00  0.00    +0.210 HD
ENDBRANCH  17  18
ENDBRANCH  12  17
ENDBRANCH   1  14
TORSDOF 3
