REMARK  Name = 
REMARK  0 active torsions:
REMARK  status: ('A' for Active; 'I' for Inactive)
REMARK                            x       y       z     vdW  Elec       q    Type
REMARK                         _______ _______ _______ _____ _____    ______ ____
ROOT
ATOM      1 CL   UNL     1       0.972  -0.180  -0.070  0.00  0.00    -0.082 Cl
ATOM      2  C   UNL     1       2.697  -0.054  -0.031  0.00  0.00    +0.060 A 
ATOM      3  C   UNL     1       3.366   1.179  -0.103  0.00  0.00    +0.069 A 
ATOM      4 CL   UNL     1       2.472   2.654  -0.302  0.00  0.00    -0.082 Cl
ATOM      5  C   UNL     1       4.769   1.221  -0.014  0.00  0.00    +0.046 A 
ATOM      6  C   UNL     1       5.495   0.010   0.090  0.00  0.00    +0.149 A 
ATOM      7  N   UNL     1       6.902  -0.021   0.198  0.00  0.00    -0.076 NA
ATOM      8  C   UNL     1       7.449   1.110   0.463  0.00  0.00    +0.380 C 
ATOM      9  N   UNL     1       6.825   2.311   0.588  0.00  0.00    -0.210 N 
ATOM     10  C   UNL     1       7.799   3.373   0.765  0.00  0.00    +0.302 C 
ATOM     11  C   UNL     1       9.098   2.556   0.877  0.00  0.00    +0.307 C 
ATOM     12  O   UNL     1      10.210   2.995   1.118  0.00  0.00    -0.254 OA
ATOM     13  N   UNL     1       8.775   1.246   0.646  0.00  0.00    -0.174 N 
ATOM     14  H   UNL     1       9.430   0.484   0.634  0.00  0.00    +0.254 HD
ATOM     15  C   UNL     1       4.813  -1.207   0.134  0.00  0.00    +0.048 A 
ATOM     16  C   UNL     1       5.549   2.516  -0.048  0.00  0.00    +0.229 C 
ATOM     17  C   UNL     1       3.421  -1.241   0.089  0.00  0.00    +0.025 A 
ENDROOT
TORSDOF 0
