REMARK  Name = 
REMARK  5 active torsions:
REMARK  status: ('A' for Active; 'I' for Inactive)
REMARK    1  A    between atoms: C_1  and  N_2
REMARK    2  A    between atoms: N_2  and  C_3
REMARK    3  A    between atoms: N_2  and  C_4
REMARK    4  A    between atoms: C_4  and  C_5
REMARK    5  A    between atoms: C_11  and  C_12
REMARK                            x       y       z     vdW  Elec       q    Type
REMARK                         _______ _______ _______ _____ _____    ______ ____
ROOT
ATOM      1  C   UNL     1       4.426   1.050   0.885  0.00  0.00    +0.152 A 
ATOM      2  N   UNL     1       5.219  -0.085   0.978  0.00  0.00    -0.280 N 
ATOM      3  C   UNL     1       6.509   0.383   0.838  0.00  0.00    +0.159 A 
ATOM      4  C   UNL     1       7.691  -0.505   0.883  0.00  0.00    +0.218 C 
ATOM      5  N   UNL     1       7.658  -1.432  -0.239  0.00  0.00    -0.275 NA
ATOM      6  C   UNL     1       6.708  -2.299  -0.345  0.00  0.00    +0.075 C 
ATOM      7  C   UNL     1       5.610  -2.497   0.659  0.00  0.00    +0.026 A 
ATOM      8  C   UNL     1       5.263  -3.825   0.973  0.00  0.00    +0.032 A 
ATOM      9  C   UNL     1       4.159  -4.094   1.776  0.00  0.00    +0.042 A 
ATOM     10 CL   UNL     1       3.703  -5.723   2.087  0.00  0.00    -0.084 Cl
ATOM     11  C   UNL     1       3.412  -3.053   2.312  0.00  0.00    +0.022 A 
ATOM     12  C   UNL     1       3.771  -1.730   2.044  0.00  0.00    +0.028 A 
ATOM     13  N   UNL     1       6.503   1.694   0.733  0.00  0.00    -0.132 NA
ATOM     14  C   UNL     1       4.861  -1.438   1.209  0.00  0.00    +0.059 A 
ATOM     15  N   UNL     1       5.204   2.111   0.752  0.00  0.00    -0.133 NA
ENDROOT
BRANCH   6  16
ATOM     16  C   UNL     1       6.707  -3.150  -1.583  0.00  0.00    +0.001 A 
ATOM     17  C   UNL     1       5.507  -3.564  -2.179  0.00  0.00    +0.010 A 
ATOM     18  C   UNL     1       5.533  -4.343  -3.336  0.00  0.00    +0.001 A 
ATOM     19  C   UNL     1       6.752  -4.694  -3.915  0.00  0.00    +0.000 A 
ATOM     20  C   UNL     1       7.948  -4.267  -3.339  0.00  0.00    +0.001 A 
ATOM     21  C   UNL     1       7.927  -3.495  -2.176  0.00  0.00    +0.010 A 
ENDBRANCH   6  16
BRANCH   1  22
ATOM     22  C   UNL     1       2.935   1.091   0.760  0.00  0.00    +0.160 C 
BRANCH  22  24
ATOM     23  C   UNL     1       2.582   2.583   2.649  0.00  0.00    +0.105 C 
ATOM     24  N   UNL     1       2.236   1.288   2.048  0.00  0.00    -0.301 NA
ATOM     25  C   UNL     1       0.787   1.223   1.837  0.00  0.00    +0.105 C 
ENDBRANCH  22  24
ENDBRANCH   1  22
TORSDOF 3
