REMARK  Name = 
REMARK  2 active torsions:
REMARK  status: ('A' for Active; 'I' for Inactive)
REMARK    1  A    between atoms: O_1  and  C_2
REMARK    2  A    between atoms: C_2  and  C_4
REMARK                            x       y       z     vdW  Elec       q    Type
REMARK                         _______ _______ _______ _____ _____    ______ ____
ROOT
ATOM      1  C   UNL     1       3.186  -0.907   0.999  0.00  0.00    +0.077 A 
ATOM      2  C   UNL     1       2.891  -2.273   1.037  0.00  0.00    +0.018 A 
ATOM      3  C   UNL     1       3.564  -3.087   1.948  0.00  0.00    +0.020 A 
ATOM      4  C   UNL     1       4.511  -2.507   2.778  0.00  0.00    +0.111 A 
ATOM      5  N   UNL     1       4.827  -1.194   2.752  0.00  0.00    -0.262 NA
ATOM      6  C   UNL     1       4.167  -0.422   1.853  0.00  0.00    +0.125 A 
ENDROOT
BRANCH   1   7
ATOM      7  C   UNL     1       2.539   0.033   0.067  0.00  0.00    +0.338 C 
ATOM      8  O   UNL     1       3.116   0.997  -0.406  0.00  0.00    -0.245 OA
BRANCH   7   9
ATOM      9  O   UNL     1       1.242  -0.250  -0.179  0.00  0.00    -0.477 OA
ATOM     10  H   UNL     1       0.845  -0.929   0.397  0.00  0.00    +0.295 HD
ENDBRANCH   7   9
ENDBRANCH   1   7
TORSDOF 2
