REMARK  Name = 
REMARK  6 active torsions:
REMARK  status: ('A' for Active; 'I' for Inactive)
REMARK    1  A    between atoms: C_1  and  C_2
REMARK    2  A    between atoms: C_2  and  C_3
REMARK    3  A    between atoms: C_2  and  C_4
REMARK    4  A    between atoms: N_6  and  C_7
REMARK    5  A    between atoms: C_9  and  C_16
REMARK    6  A    between atoms: C_10  and  N_13
REMARK                            x       y       z     vdW  Elec       q    Type
REMARK                         _______ _______ _______ _____ _____    ______ ____
ROOT
ATOM      1  C   UNL     1       4.777   2.176  -2.268  0.00  0.00    +0.034 A 
ATOM      2  C   UNL     1       5.241   1.685  -3.492  0.00  0.00    +0.030 A 
ATOM      3  C   UNL     1       5.409   2.551  -4.573  0.00  0.00    +0.087 A 
ATOM      4  C   UNL     1       5.162   3.921  -4.400  0.00  0.00    +0.285 A 
ATOM      5  C   UNL     1       4.748   4.447  -3.166  0.00  0.00    +0.133 A 
ATOM      6  C   UNL     1       4.517   3.541  -2.115  0.00  0.00    +0.042 A 
ENDROOT
BRANCH   1   8
ATOM      7  C   UNL     1       5.376   0.294  -0.815  0.00  0.00    +0.220 C 
ATOM      8  N   UNL     1       4.523   1.326  -1.179  0.00  0.00    -0.285 N 
ATOM      9  H   UNL     1       3.892   1.660  -0.461  0.00  0.00    +0.155 HD
ATOM     10  O   UNL     1       6.474   0.092  -1.323  0.00  0.00    -0.275 OA
BRANCH   7  12
ATOM     11  C   UNL     1       3.707  -1.467  -0.281  0.00  0.00    +0.017 C 
ATOM     12  C   UNL     1       4.807  -0.581   0.299  0.00  0.00    +0.069 C 
ATOM     13  C   UNL     1       5.905  -1.432   0.935  0.00  0.00    +0.017 C 
ENDBRANCH   7  12
ENDBRANCH   1   8
BRANCH   5  14
ATOM     14  C   UNL     1       4.537   5.920  -2.941  0.00  0.00    +0.424 C 
ATOM     15  F   UNL     1       3.625   6.450  -3.796  0.00  0.00    -0.166 F 
ATOM     16  F   UNL     1       5.673   6.652  -3.063  0.00  0.00    -0.166 F 
ATOM     17  F   UNL     1       4.069   6.194  -1.689  0.00  0.00    -0.166 F 
ENDBRANCH   5  14
BRANCH   4  18
ATOM     18  N   UNL     1       5.308   4.777  -5.567  0.00  0.00    +0.080 N 
ATOM     19  O   UNL     1       4.616   4.492  -6.556  0.00  0.00    +0.041 OA
ATOM     20  O   UNL     1       6.117   5.707  -5.495  0.00  0.00    -0.576 OA
ENDBRANCH   4  18
TORSDOF 4
