REMARK  Name = 
REMARK  21 active torsions:
REMARK  status: ('A' for Active; 'I' for Inactive)
REMARK    1  A    between atoms: N_1  and  C_2
REMARK    2  A    between atoms: C_2  and  C_3
REMARK    3  A    between atoms: C_3  and  C_4
REMARK    4  A    between atoms: C_4  and  C_5
REMARK    5  A    between atoms: C_5  and  C_6
REMARK    6  A    between atoms: C_6  and  N_8
REMARK    7  A    between atoms: C_6  and  C_74
REMARK    8  A    between atoms: C_9  and  C_11
REMARK    9  A    between atoms: C_17  and  C_19
REMARK   10  A    between atoms: C_25  and  N_27
REMARK   11  A    between atoms: C_31  and  C_33
REMARK   12  A    between atoms: C_33  and  C_34
REMARK   13  A    between atoms: C_43  and  C_45
REMARK   14  A    between atoms: C_45  and  C_46
REMARK   15  A    between atoms: C_55  and  C_57
REMARK   16  A    between atoms: C_57  and  C_58
REMARK   17  A    between atoms: C_58  and  C_59
REMARK   18  A    between atoms: C_65  and  C_67
REMARK   19  A    between atoms: C_67  and  C_68
REMARK   20  A    between atoms: N_76  and  C_77
REMARK   21  A    between atoms: C_77  and  C_78
REMARK                            x       y       z     vdW  Elec       q    Type
REMARK                         _______ _______ _______ _____ _____    ______ ____
ROOT
ATOM      1  C   UNL     1      -1.518  -0.653  -5.819  0.00  0.00    +0.170 C 
ATOM      2  N   UNL     1      -3.601   0.245  -6.422  0.00  0.00    -0.302 N 
ATOM      3  H   UNL     1      -3.216   1.175  -6.660  0.00  0.00    +0.150 HD
ATOM      4  C   UNL     1      -5.634   0.756  -6.873  0.00  0.00    +0.234 C 
ATOM      5  O   UNL     1      -5.425   1.006  -8.161  0.00  0.00    -0.274 OA
ATOM      6  C   UNL     1      -7.794   1.692  -7.191  0.00  0.00    +0.168 C 
ATOM      7  N   UNL     1      -8.852   3.262  -7.924  0.00  0.00    -0.302 N 
ATOM      8  H   UNL     1      -9.311   3.018  -8.862  0.00  0.00    +0.150 HD
ATOM      9  C   UNL     1     -10.449   4.233  -8.139  0.00  0.00    +0.234 C 
ATOM     10  O   UNL     1     -11.456   3.859  -8.806  0.00  0.00    -0.274 OA
ATOM     11  C   UNL     1     -10.828   5.888  -7.583  0.00  0.00    +0.159 C 
ATOM     12  N   UNL     1     -10.293   5.260  -6.476  0.00  0.00    -0.302 N 
ATOM     13  H   UNL     1     -10.758   4.417  -6.205  0.00  0.00    +0.150 HD
ATOM     14  C   UNL     1      -9.026   5.085  -6.173  0.00  0.00    +0.234 C 
ATOM     15  O   UNL     1      -8.197   5.841  -6.661  0.00  0.00    -0.274 OA
ATOM     16  C   UNL     1      -8.776   3.677  -5.391  0.00  0.00    +0.163 C 
ATOM     17  N   UNL     1      -7.384   3.869  -5.354  0.00  0.00    -0.302 N 
ATOM     18  H   UNL     1      -7.096   4.443  -6.163  0.00  0.00    +0.150 HD
ATOM     19  C   UNL     1      -6.574   2.840  -5.124  0.00  0.00    +0.234 C 
ATOM     20  O   UNL     1      -6.995   1.727  -4.785  0.00  0.00    -0.274 OA
ATOM     21  C   UNL     1      -5.132   3.186  -5.353  0.00  0.00    +0.163 C 
ATOM     22  N   UNL     1      -4.676   1.983  -4.700  0.00  0.00    -0.302 N 
ATOM     23  H   UNL     1      -5.179   1.106  -4.756  0.00  0.00    +0.150 HD
ATOM     24  C   UNL     1      -3.410   1.855  -4.399  0.00  0.00    +0.231 C 
ATOM     25  O   UNL     1      -2.694   2.833  -4.621  0.00  0.00    -0.274 OA
ATOM     26  C   UNL     1      -2.995   0.487  -3.845  0.00  0.00    +0.148 C 
ATOM     27  C   UNL     1      -1.606   1.095  -3.426  0.00  0.00    +0.109 C 
ATOM     28  S   UNL     1      -0.860   0.451  -1.966  0.00  0.00    -0.091 S 
ATOM     29  S   UNL     1       0.555  -0.079  -3.246  0.00  0.00    -0.091 S 
ATOM     30  C   UNL     1      -0.980  -1.347  -4.036  0.00  0.00    +0.112 C 
ENDROOT
BRANCH   1  33
ATOM     31  C   UNL     1       3.576  -2.814  -2.940  0.00  0.00    +0.162 C 
ATOM     32  N   UNL     1       2.196  -2.486  -4.451  0.00  0.00    -0.288 N 
ATOM     33  C   UNL     1       0.573  -1.631  -5.376  0.00  0.00    +0.237 C 
ATOM     34  O   UNL     1       1.206  -1.483  -6.528  0.00  0.00    -0.274 OA
ATOM     35  C   UNL     1       3.796  -3.601  -4.962  0.00  0.00    +0.109 C 
ATOM     36  C   UNL     1       5.447  -4.347  -4.039  0.00  0.00    +0.021 C 
ATOM     37  C   UNL     1       4.893  -4.362  -2.679  0.00  0.00    +0.033 C 
BRANCH  31  40
ATOM     38  N   UNL     1       6.003  -1.501  -3.452  0.00  0.00    -0.302 N 
ATOM     39  H   UNL     1       5.239  -0.924  -3.708  0.00  0.00    +0.150 HD
ATOM     40  C   UNL     1       5.410  -2.254  -2.502  0.00  0.00    +0.234 C 
ATOM     41  O   UNL     1       6.254  -2.576  -1.624  0.00  0.00    -0.274 OA
BRANCH  38  42
ATOM     42  C   UNL     1       7.284  -0.740  -3.310  0.00  0.00    +0.159 C 
BRANCH  42  43
ATOM     43  C   UNL     1       7.001   0.336  -2.219  0.00  0.00    +0.234 C 
ATOM     44  N   UNL     1       7.922   1.334  -2.029  0.00  0.00    -0.305 N 
ATOM     45  H   UNL     1       8.809   1.348  -2.514  0.00  0.00    +0.149 HD
ATOM     46  O   UNL     1       5.991   0.284  -1.515  0.00  0.00    -0.274 OA
BRANCH  44  47
ATOM     47  C   UNL     1       7.697   2.416  -1.085  0.00  0.00    +0.199 C 
BRANCH  47  48
ATOM     48  C   UNL     1       8.396   2.143   0.245  0.00  0.00    +0.228 C 
ATOM     49  O   UNL     1       8.749   3.045   1.000  0.00  0.00    -0.274 OA
ATOM     50  N   UNL     1       8.539   0.835   0.611  0.00  0.00    -0.328 N 
ATOM     51  H   UNL     1       8.926   0.630   1.521  0.00  0.00    +0.145 HD
ATOM     52  H   UNL     1       8.143   0.074   0.071  0.00  0.00    +0.145 HD
ENDBRANCH  47  48
ENDBRANCH  44  47
ENDBRANCH  42  43
BRANCH  42  53
ATOM     53  C   UNL     1       7.390  -0.201  -4.722  0.00  0.00    +0.032 C 
BRANCH  53  54
ATOM     54  C   UNL     1       8.452   0.834  -4.889  0.00  0.00    +0.003 C 
BRANCH  54  55
ATOM     55  C   UNL     1       8.471   1.373  -6.298  0.00  0.00    +0.015 C 
BRANCH  55  56
ATOM     56  C   UNL     1       9.537   2.453  -6.391  0.00  0.00    +0.077 C 
BRANCH  56  57
ATOM     57  N   UNL     1      10.842   1.889  -6.068  0.00  0.00    -0.330 NA
ATOM     58  H   UNL     1      11.057   1.137  -6.721  0.00  0.00    +0.118 HD
ATOM     59  H   UNL     1      11.563   2.598  -6.180  0.00  0.00    +0.118 HD
ENDBRANCH  56  57
ENDBRANCH  55  56
ENDBRANCH  54  55
ENDBRANCH  53  54
ENDBRANCH  42  53
ENDBRANCH  38  42
ENDBRANCH  31  40
ENDBRANCH   1  33
BRANCH  26  60
ATOM     60  N   UNL     1      -3.481  -0.930  -4.619  0.00  0.00    -0.319 NA
ATOM     61  H   UNL     1      -4.404  -0.769  -5.040  0.00  0.00    +0.119 HD
ATOM     62  H   UNL     1      -3.263  -0.922  -5.663  0.00  0.00    +0.119 HD
ENDBRANCH  26  60
BRANCH   6  63
ATOM     63  C   UNL     1      -9.954   1.727  -6.917  0.00  0.00    +0.127 C 
BRANCH  63  64
ATOM     64  C   UNL     1     -11.825   2.569  -6.374  0.00  0.00    +0.213 C 
ATOM     65  O   UNL     1     -12.708   3.106  -7.107  0.00  0.00    -0.276 OA
ATOM     66  N   UNL     1     -12.755   2.640  -5.084  0.00  0.00    -0.329 N 
ATOM     67  H   UNL     1     -13.444   3.489  -5.058  0.00  0.00    +0.145 HD
ATOM     68  H   UNL     1     -13.624   2.072  -4.971  0.00  0.00    +0.145 HD
ENDBRANCH  63  64
ENDBRANCH   6  63
BRANCH  11  69
ATOM     69  C   UNL     1     -10.884   6.516  -9.000  0.00  0.00    +0.041 C 
BRANCH  69  70
ATOM     70  C   UNL     1     -12.090   7.494  -9.199  0.00  0.00    +0.098 C 
BRANCH  70  71
ATOM     71  C   UNL     1     -12.214   8.001 -10.628  0.00  0.00    +0.211 C 
ATOM     72  O   UNL     1     -11.578   8.967 -11.038  0.00  0.00    -0.276 OA
ATOM     73  N   UNL     1     -13.074   7.340 -11.455  0.00  0.00    -0.329 N 
ATOM     74  H   UNL     1     -13.167   7.684 -12.404  0.00  0.00    +0.145 HD
ATOM     75  H   UNL     1     -13.625   6.537 -11.184  0.00  0.00    +0.145 HD
ENDBRANCH  70  71
ENDBRANCH  69  70
ENDBRANCH  11  69
BRANCH  16  76
ATOM     76  C   UNL     1      -9.727   3.017  -4.359  0.00  0.00    +0.067 C 
BRANCH  76  77
ATOM     77  C   UNL     1     -10.200   4.203  -3.659  0.00  0.00    -0.045 A 
ATOM     78  C   UNL     1      -9.152   4.866  -3.069  0.00  0.00    +0.004 A 
ATOM     79  C   UNL     1      -9.297   6.201  -2.837  0.00  0.00    +0.000 A 
ATOM     80  C   UNL     1     -10.401   6.900  -3.331  0.00  0.00    +0.000 A 
ATOM     81  C   UNL     1     -11.428   6.254  -3.974  0.00  0.00    +0.000 A 
ATOM     82  C   UNL     1     -11.355   4.889  -4.047  0.00  0.00    +0.004 A 
ENDBRANCH  76  77
ENDBRANCH  16  76
BRANCH  21  83
ATOM     83  C   UNL     1      -4.558   3.490  -6.797  0.00  0.00    +0.067 C 
BRANCH  83  84
ATOM     84  C   UNL     1      -5.157   4.653  -7.533  0.00  0.00    -0.045 A 
ATOM     85  C   UNL     1      -5.728   4.550  -8.816  0.00  0.00    +0.004 A 
ATOM     86  C   UNL     1      -6.132   5.703  -9.488  0.00  0.00    +0.000 A 
ATOM     87  C   UNL     1      -6.200   6.906  -8.793  0.00  0.00    +0.000 A 
ATOM     88  C   UNL     1      -5.710   6.990  -7.492  0.00  0.00    +0.000 A 
ATOM     89  C   UNL     1      -5.095   5.894  -6.909  0.00  0.00    +0.004 A 
ENDBRANCH  83  84
ENDBRANCH  21  83
TORSDOF 21
