REMARK  Name = 
REMARK  4 active torsions:
REMARK  status: ('A' for Active; 'I' for Inactive)
REMARK    1  A    between atoms: C_1  and  C_2
REMARK    2  A    between atoms: C_2  and  N_3
REMARK    3  A    between atoms: C_2  and  C_8
REMARK    4  A    between atoms: N_3  and  O_4
REMARK                            x       y       z     vdW  Elec       q    Type
REMARK                         _______ _______ _______ _____ _____    ______ ____
ROOT
ATOM      1  C   UNL     1       0.876   0.182  -0.068  0.00  0.00    +0.036 C 
ATOM      2  C   UNL     1       2.400   0.120   0.047  0.00  0.00    +0.140 C 
ENDROOT
BRANCH   2   3
ATOM      3  C   UNL     1       2.964  -1.195  -0.445  0.00  0.00    +0.013 A 
ATOM      4  S   UNL     1       4.075  -1.206  -1.749  0.00  0.00    -0.091 S 
ATOM      5  C   UNL     1       4.247  -2.918  -1.709  0.00  0.00    +0.020 A 
ATOM      6  C   UNL     1       3.456  -3.485  -0.709  0.00  0.00    -0.010 A 
ATOM      7  C   UNL     1       3.490  -4.890  -0.544  0.00  0.00    +0.009 A 
ATOM      8  C   UNL     1       4.301  -5.680  -1.367  0.00  0.00    +0.001 A 
ATOM      9  C   UNL     1       5.080  -5.094  -2.357  0.00  0.00    +0.001 A 
ATOM     10  C   UNL     1       5.061  -3.710  -2.544  0.00  0.00    +0.015 A 
ATOM     11  C   UNL     1       2.720  -2.479   0.003  0.00  0.00    +0.021 A 
ENDBRANCH   2   3
BRANCH   2  12
ATOM     12  N   UNL     1       2.915   0.385   1.399  0.00  0.00    -0.160 N 
ATOM     13  C   UNL     1       2.419  -0.116   2.574  0.00  0.00    +0.323 C 
ATOM     14  O   UNL     1       1.532  -0.956   2.678  0.00  0.00    -0.251 OA
ATOM     15  N   UNL     1       2.999   0.388   3.696  0.00  0.00    -0.312 N 
ATOM     16  H   UNL     1       2.731  -0.040   4.571  0.00  0.00    +0.147 HD
ATOM     17  H   UNL     1       3.925   0.777   3.607  0.00  0.00    +0.147 HD
BRANCH  12  18
ATOM     18  O   UNL     1       3.802   1.485   1.465  0.00  0.00    -0.291 OA
ATOM     19  H   UNL     1       4.634   1.079   1.158  0.00  0.00    +0.242 HD
ENDBRANCH  12  18
ENDBRANCH   2  12
TORSDOF 3
