REMARK  Name = 
REMARK  3 active torsions:
REMARK  status: ('A' for Active; 'I' for Inactive)
REMARK    1  A    between atoms: C_1  and  N_2
REMARK    2  A    between atoms: C_8  and  O_10
REMARK    3  A    between atoms: O_10  and  C_11
REMARK                            x       y       z     vdW  Elec       q    Type
REMARK                         _______ _______ _______ _____ _____    ______ ____
ROOT
ATOM      1  C   UNL     1       5.106  -0.383  -6.230  0.00  0.00    +0.328 C 
ATOM      2  C   UNL     1       5.327  -1.874  -6.190  0.00  0.00    +0.131 A 
ATOM      3  C   UNL     1       6.676  -2.124  -6.029  0.00  0.00    +0.153 A 
ATOM      4  N   UNL     1       7.201  -3.352  -5.847  0.00  0.00    -0.247 NA
ATOM      5  C   UNL     1       6.270  -4.337  -5.868  0.00  0.00    +0.131 A 
ATOM      6  C   UNL     1       4.903  -4.093  -6.032  0.00  0.00    +0.131 A 
ATOM      7  C   UNL     1       7.396  -0.837  -5.936  0.00  0.00    +0.275 C 
ATOM      8  O   UNL     1       8.596  -0.762  -5.741  0.00  0.00    -0.268 OA
ATOM      9  N   UNL     1       4.384  -2.845  -6.185  0.00  0.00    -0.251 NA
ATOM     10  N   UNL     1       6.428   0.176  -6.021  0.00  0.00    -0.208 N 
ATOM     11  C   UNL     1       6.685   1.549  -5.863  0.00  0.00    +0.131 A 
ATOM     12  C   UNL     1       5.639   2.446  -5.629  0.00  0.00    +0.045 A 
ATOM     13  C   UNL     1       5.917   3.800  -5.423  0.00  0.00    +0.025 A 
ATOM     14  C   UNL     1       7.229   4.240  -5.487  0.00  0.00    +0.059 A 
ATOM     15 CL   UNL     1       7.614   5.891  -5.237  0.00  0.00    -0.082 Cl
ATOM     16  C   UNL     1       8.210   3.304  -5.750  0.00  0.00    +0.132 A 
ATOM     17  N   UNL     1       7.959   1.983  -5.924  0.00  0.00    -0.238 NA
ENDROOT
BRANCH   1  18
ATOM     18  O   UNL     1       4.464   0.132  -7.416  0.00  0.00    -0.422 OA
BRANCH  18  24
ATOM     19  C   UNL     1       2.915   1.560 -12.818  0.00  0.00    +0.105 C 
ATOM     20  N   UNL     1       2.831   0.299 -12.082  0.00  0.00    -0.302 NA
ATOM     21  C   UNL     1       2.263   0.483 -10.726  0.00  0.00    +0.103 C 
ATOM     22  C   UNL     1       3.208   1.158  -9.707  0.00  0.00    +0.126 C 
ATOM     23  N   UNL     1       4.501   0.480  -9.687  0.00  0.00    -0.265 N 
ATOM     24  C   UNL     1       5.080  -0.133  -8.599  0.00  0.00    +0.405 C 
ATOM     25  O   UNL     1       6.084  -0.827  -8.689  0.00  0.00    -0.226 OA
ATOM     26  C   UNL     1       5.126   0.310 -10.998  0.00  0.00    +0.126 C 
ATOM     27  C   UNL     1       4.154  -0.358 -11.987  0.00  0.00    +0.103 C 
ENDBRANCH  18  24
ENDBRANCH   1  18
TORSDOF 2
