REMARK  Name = 
REMARK  1 active torsions:
REMARK  status: ('A' for Active; 'I' for Inactive)
REMARK    1  A    between atoms: C_1  and  C_2
REMARK                            x       y       z     vdW  Elec       q    Type
REMARK                         _______ _______ _______ _____ _____    ______ ____
ROOT
ATOM      1  C   UNL     1       1.029  -0.010  -0.011  0.00  0.00    +0.048 C 
ATOM      2  C   UNL     1       2.527  -0.012  -0.011  0.00  0.00    +0.000 C 
ATOM      3  C   UNL     1       3.189   1.321  -0.013  0.00  0.00    +0.190 C 
ATOM      4  O   UNL     1       2.531   2.355  -0.013  0.00  0.00    -0.287 OA
ATOM      5  C   UNL     1       4.665   1.363  -0.013  0.00  0.00    +0.033 A 
ATOM      6  C   UNL     1       5.410   0.186  -0.012  0.00  0.00    +0.032 A 
ATOM      7  C   UNL     1       6.810   0.241  -0.012  0.00  0.00    +0.012 A 
ATOM      8  C   UNL     1       7.459   1.477  -0.013  0.00  0.00    +0.001 A 
ATOM      9  C   UNL     1       6.714   2.656  -0.014  0.00  0.00    +0.001 A 
ATOM     10  C   UNL     1       4.733  -1.123  -0.011  0.00  0.00    +0.187 C 
ATOM     11  O   UNL     1       5.357  -2.176  -0.011  0.00  0.00    -0.287 OA
ATOM     12  C   UNL     1       5.319   2.602  -0.014  0.00  0.00    +0.012 A 
ATOM     13  C   UNL     1       3.257  -1.134  -0.011  0.00  0.00    +0.058 C 
ENDROOT
TORSDOF 0
