REMARK  Name = 
REMARK  3 active torsions:
REMARK  status: ('A' for Active; 'I' for Inactive)
REMARK    1  A    between atoms: N_1  and  CA_2
REMARK    2  A    between atoms: CA_2  and  C_3
REMARK    3  A    between atoms: C_3  and  O_4
REMARK                            x       y       z     vdW  Elec       q    Type
REMARK                         _______ _______ _______ _____ _____    ______ ____
ROOT
ATOM      1  CA  GLY A   1       2.480  -0.136  -0.113  0.00  0.00    +0.199 C 
ENDROOT
BRANCH   1   2
ATOM      2  N   GLY A   1       1.003  -0.300  -0.036  0.00  0.00    -0.321 NA
ATOM      3  H1  GLY A   1       0.801  -0.958   0.725  0.00  0.00    +0.119 HD
ATOM      4  H2  GLY A   1       0.613   0.587   0.295  0.00  0.00    +0.119 HD
ENDBRANCH   1   2
BRANCH   1   5
ATOM      5  C   GLY A   1       3.073  -1.249  -0.974  0.00  0.00    +0.319 C 
ATOM      6  OXT GLY A   1       4.264  -1.478  -1.099  0.00  0.00    -0.250 OA
BRANCH   5   7
ATOM      7  O   GLY A   1       2.100  -1.948  -1.615  0.00  0.00    -0.480 OA
ATOM      8  H   GLY A   1       1.247  -1.522  -1.345  0.00  0.00    +0.295 HD
ENDBRANCH   5   7
ENDBRANCH   1   5
TORSDOF 3
