REMARK  Name = 
REMARK  2 active torsions:
REMARK  status: ('A' for Active; 'I' for Inactive)
REMARK    1  A    between atoms: O_1  and  C_2
REMARK    2  A    between atoms: C_22  and  O_23
REMARK                            x       y       z     vdW  Elec       q    Type
REMARK                         _______ _______ _______ _____ _____    ______ ____
ROOT
ATOM      1  C   UNL     1       2.519   0.067  -0.009  0.00  0.00    +0.120 A 
ATOM      2  C   UNL     1       3.119  -1.106   0.424  0.00  0.00    +0.046 A 
ATOM      3  C   UNL     1       4.509  -1.188   0.476  0.00  0.00    +0.015 A 
ATOM      4  C   UNL     1       5.314  -0.098   0.081  0.00  0.00    +0.047 A 
ATOM      5  C   UNL     1       6.825  -0.191   0.075  0.00  0.00    +0.196 C 
ATOM      6  C   UNL     1       7.501   1.124  -0.257  0.00  0.00    +0.047 A 
ATOM      7  C   UNL     1       8.904   1.264  -0.208  0.00  0.00    +0.015 A 
ATOM      8  C   UNL     1       9.518   2.452  -0.600  0.00  0.00    +0.046 A 
ATOM      9  C   UNL     1       8.737   3.515  -1.029  0.00  0.00    +0.120 A 
ATOM     10  C   UNL     1       7.351   3.410  -1.066  0.00  0.00    +0.092 A 
ATOM     11  C   UNL     1       6.736   2.214  -0.679  0.00  0.00    +0.140 A 
ATOM     12  O   UNL     1       5.364   2.195  -0.761  0.00  0.00    -0.455 OA
ATOM     13  C   UNL     1       7.322  -1.305  -0.793  0.00  0.00    +0.019 A 
ATOM     14  C   UNL     1       7.971  -2.234  -0.005  0.00  0.00    +0.067 A 
ATOM     15  C   UNL     1       8.559  -3.372  -0.526  0.00  0.00    +0.015 A 
ATOM     16  C   UNL     1       8.478  -3.564  -1.906  0.00  0.00    +0.001 A 
ATOM     17  C   UNL     1       7.817  -2.627  -2.720  0.00  0.00    +0.000 A 
ATOM     18  C   UNL     1       7.923  -1.793   1.382  0.00  0.00    +0.341 C 
ATOM     19  O   UNL     1       8.390  -2.377   2.338  0.00  0.00    -0.245 OA
ATOM     20  C   UNL     1       7.231  -1.487  -2.165  0.00  0.00    +0.009 A 
ATOM     21  O   UNL     1       7.257  -0.602   1.400  0.00  0.00    -0.440 OA
ATOM     22  C   UNL     1       4.686   1.074  -0.347  0.00  0.00    +0.140 A 
ATOM     23  C   UNL     1       3.289   1.161  -0.391  0.00  0.00    +0.092 A 
ENDROOT
BRANCH   1  24
ATOM     24  O   UNL     1       1.157   0.103  -0.045  0.00  0.00    -0.507 OA
ATOM     25  H   UNL     1       0.873   0.985  -0.333  0.00  0.00    +0.292 HD
ENDBRANCH   1  24
BRANCH   9  26
ATOM     26  O   UNL     1       9.380   4.653  -1.414  0.00  0.00    -0.507 OA
ATOM     27  H   UNL     1       8.718   5.317  -1.671  0.00  0.00    +0.292 HD
ENDBRANCH   9  26
TORSDOF 2
