REMARK  Name = 
REMARK  9 active torsions:
REMARK  status: ('A' for Active; 'I' for Inactive)
REMARK    1  A    between atoms: C_1  and  C_2
REMARK    2  A    between atoms: C_2  and  N_3
REMARK    3  A    between atoms: N_3  and  C_4
REMARK    4  A    between atoms: N_3  and  C_6
REMARK    5  A    between atoms: C_4  and  C_5
REMARK    6  A    between atoms: C_6  and  C_7
REMARK    7  A    between atoms: N_9  and  C_10
REMARK    8  A    between atoms: C_11  and  C_12
REMARK    9  A    between atoms: C_16  and  C_17
REMARK                            x       y       z     vdW  Elec       q    Type
REMARK                         _______ _______ _______ _____ _____    ______ ____
ROOT
ATOM      1  C   UNL     1       4.914  -0.407  -2.857  0.00  0.00    +0.231 C 
ATOM      2  N   UNL     1       6.260  -0.151  -3.062  0.00  0.00    -0.284 N 
ATOM      3  H   UNL     1       6.594   0.601  -2.470  0.00  0.00    +0.155 HD
ATOM      4  O   UNL     1       4.116  -0.813  -3.699  0.00  0.00    -0.274 OA
ENDROOT
BRANCH   2   5
ATOM      5  C   UNL     1       6.904  -0.367  -4.302  0.00  0.00    +0.039 A 
ATOM      6  C   UNL     1       6.896  -1.644  -4.914  0.00  0.00    -0.029 A 
ATOM      7  C   UNL     1       6.234  -2.853  -4.304  0.00  0.00    +0.045 C 
ATOM      8  C   UNL     1       7.576  -1.828  -6.132  0.00  0.00    +0.005 A 
ATOM      9  C   UNL     1       8.269  -0.783  -6.730  0.00  0.00    +0.001 A 
ATOM     10  C   UNL     1       8.292   0.465  -6.121  0.00  0.00    +0.005 A 
ATOM     11  C   UNL     1       7.622   0.692  -4.902  0.00  0.00    -0.029 A 
ATOM     12  C   UNL     1       7.631   2.109  -4.390  0.00  0.00    +0.045 C 
ENDBRANCH   2   5
BRANCH   1  13
ATOM     13  C   UNL     1       4.456  -0.100  -1.430  0.00  0.00    +0.180 C 
BRANCH  13  14
ATOM     14  N   UNL     1       4.749   1.301  -1.027  0.00  0.00    -0.295 NA
BRANCH  14  16
ATOM     15  C   UNL     1       4.329   3.723  -1.581  0.00  0.00    +0.020 C 
ATOM     16  C   UNL     1       4.069   2.259  -1.925  0.00  0.00    +0.081 C 
ENDBRANCH  14  16
BRANCH  14  17
ATOM     17  C   UNL     1       4.403   1.493   0.398  0.00  0.00    +0.081 C 
ATOM     18  C   UNL     1       2.946   1.249   0.792  0.00  0.00    +0.020 C 
ENDBRANCH  14  17
ENDBRANCH  13  14
ENDBRANCH   1  13
TORSDOF 5
