REMARK  Name = 
REMARK  10 active torsions:
REMARK  status: ('A' for Active; 'I' for Inactive)
REMARK    1  A    between atoms: C_5  and  C_6
REMARK    2  A    between atoms: C_6  and  O_7
REMARK    3  A    between atoms: O_7  and  C_8
REMARK    4  A    between atoms: C_8  and  C_9
REMARK    5  A    between atoms: CA_11  and  C_29
REMARK    6  A    between atoms: CA_15  and  N_17
REMARK    7  A    between atoms: C_18  and  CA_20
REMARK    8  A    between atoms: CA_20  and  N_22
REMARK    9  A    between atoms: CA_20  and  C_23
REMARK   10  A    between atoms: C_29  and  O_30
REMARK                            x       y       z     vdW  Elec       q    Type
REMARK                         _______ _______ _______ _____ _____    ______ ____
ROOT
ATOM      1  C   UNL     1       9.000  -1.241   5.009  0.00  0.00    +0.169 C 
ATOM      2  CA  UNL     1       8.437  -1.263   3.548  0.00  0.00    +0.191 C 
ATOM      3  C   UNL     1       9.702  -2.145   3.263  0.00  0.00    +0.244 C 
ATOM      4  O   UNL     1      10.277  -2.654   2.332  0.00  0.00    -0.273 OA
ATOM      5  N   UNL     1       9.943  -2.259   4.588  0.00  0.00    -0.249 N 
ATOM      6  CA  UNL     1      10.721  -3.012   5.430  0.00  0.00    +0.125 C 
ATOM      7  C   UNL     1      10.425  -3.044   6.763  0.00  0.00    +0.006 C 
ATOM      8  C   UNL     1       9.235  -2.340   7.391  0.00  0.00    +0.107 C 
ATOM      9  S   UNL     1       7.897  -1.930   6.262  0.00  0.00    -0.131 S 
ENDROOT
BRANCH   2  10
ATOM     10  N   UNL     1       7.140  -1.955   3.383  0.00  0.00    -0.300 N 
ATOM     11  H   UNL     1       6.710  -2.449   4.168  0.00  0.00    +0.150 HD
ATOM     12  C   UNL     1       6.438  -2.043   2.204  0.00  0.00    +0.235 C 
ATOM     13  O   UNL     1       6.802  -1.504   1.164  0.00  0.00    -0.274 OA
BRANCH  12  14
ATOM     14  CA  UNL     1       5.144  -2.888   2.337  0.00  0.00    +0.168 C 
BRANCH  14  15
ATOM     15  C   UNL     1       5.367  -4.322   1.895  0.00  0.00    -0.022 A 
ATOM     16  C   UNL     1       5.736  -5.338   2.794  0.00  0.00    +0.005 A 
ATOM     17  C   UNL     1       5.921  -6.651   2.353  0.00  0.00    +0.000 A 
ATOM     18  C   UNL     1       5.754  -6.965   1.007  0.00  0.00    +0.000 A 
ATOM     19  C   UNL     1       5.413  -5.966   0.099  0.00  0.00    +0.000 A 
ATOM     20  C   UNL     1       5.225  -4.654   0.538  0.00  0.00    +0.005 A 
ENDBRANCH  14  15
BRANCH  14  21
ATOM     21  N   UNL     1       4.644  -2.810   3.740  0.00  0.00    -0.316 NA
ATOM     22  H1  UNL     1       4.379  -1.842   3.926  0.00  0.00    +0.119 HD
ATOM     23  H2  UNL     1       3.775  -3.344   3.782  0.00  0.00    +0.119 HD
ENDBRANCH  14  21
ENDBRANCH  12  14
ENDBRANCH   2  10
BRANCH   6  24
ATOM     24  C   UNL     1      11.854  -3.867   4.883  0.00  0.00    +0.351 C 
ATOM     25  OXT UNL     1      12.486  -4.662   5.564  0.00  0.00    -0.244 OA
BRANCH  24  26
ATOM     26  O   UNL     1      12.212  -3.673   3.601  0.00  0.00    -0.476 OA
ATOM     27  H   UNL     1      11.554  -3.263   2.997  0.00  0.00    +0.295 HD
ENDBRANCH  24  26
ENDBRANCH   6  24
BRANCH   7  28
ATOM     28  C   UNL     1      11.193  -3.868   7.798  0.00  0.00    +0.266 C 
BRANCH  28  29
ATOM     29  O   UNL     1      11.071  -3.267   9.106  0.00  0.00    -0.460 OA
BRANCH  29  30
ATOM     30  C   UNL     1      10.559  -4.052  10.091  0.00  0.00    +0.304 C 
ATOM     31  O   UNL     1      10.151  -5.196   9.956  0.00  0.00    -0.251 OA
ATOM     32  C   UNL     1      10.499  -3.299  11.386  0.00  0.00    +0.136 C 
ENDBRANCH  29  30
ENDBRANCH  28  29
ENDBRANCH   7  28
TORSDOF 9
