REMARK  Name = 
REMARK  6 active torsions:
REMARK  status: ('A' for Active; 'I' for Inactive)
REMARK    1  A    between atoms: C_1  and  N_2
REMARK    2  A    between atoms: N_2  and  C_3
REMARK    3  A    between atoms: N_2  and  C_4
REMARK    4  A    between atoms: N_2  and  C_5
REMARK    5  A    between atoms: C_5  and  C_6
REMARK    6  A    between atoms: C_6  and  O_7
REMARK                            x       y       z     vdW  Elec       q    Type
REMARK                         _______ _______ _______ _____ _____    ______ ____
ROOT
ATOM      1  C   UNL     1       1.013   0.056  -0.069  0.00  0.00    +0.192 C 
ATOM      2  N   UNL     1       2.541   0.051  -0.119  0.00  0.00    +0.238 N 
ATOM      3  C   UNL     1       3.008   1.245  -0.935  0.00  0.00    +0.192 C 
ATOM      4  C   UNL     1       2.991  -1.235  -0.813  0.00  0.00    +0.192 C 
ENDROOT
BRANCH   2   5
ATOM      5  C   UNL     1       3.059   0.126   1.339  0.00  0.00    +0.160 C 
BRANCH   5   6
ATOM      6  C   UNL     1       4.589   0.107   1.486  0.00  0.00    +0.206 C 
BRANCH   6   7
ATOM      7  O   UNL     1       5.125  -1.133   1.040  0.00  0.00    -0.390 OA
ATOM      8  H   UNL     1       5.427  -1.637   1.821  0.00  0.00    +0.210 HD
ENDBRANCH   6   7
ENDBRANCH   5   6
ENDBRANCH   2   5
TORSDOF 3
