REMARK  Name = 
REMARK  2 active torsions:
REMARK  status: ('A' for Active; 'I' for Inactive)
REMARK    1  A    between atoms: C_1  and  N_2
REMARK    2  A    between atoms: C_12  and  C_13
REMARK                            x       y       z     vdW  Elec       q    Type
REMARK                         _______ _______ _______ _____ _____    ______ ____
ROOT
ATOM      1  C   UNL     1       1.212   0.297  -0.620  0.00  0.00    +0.273 C 
ATOM      2  N   UNL     1       2.460   0.197   0.104  0.00  0.00    -0.238 N 
ATOM      3  H   UNL     1       2.587  -0.675   0.605  0.00  0.00    +0.291 HD
ATOM      4  C   UNL     1       3.100   1.315   0.600  0.00  0.00    +0.310 C 
ATOM      5  C   UNL     1       4.019   1.116   1.781  0.00  0.00    +0.293 C 
ATOM      6  N   UNL     1       5.379   1.420   1.300  0.00  0.00    -0.152 N 
ATOM      7  O   UNL     1       6.160   0.413   1.198  0.00  0.00    -0.168 OA
ATOM      8  C   UNL     1       5.774   2.654   0.999  0.00  0.00    +0.099 C 
ATOM      9  C   UNL     1       4.781   3.766   1.120  0.00  0.00    +0.054 A 
ATOM     10  C   UNL     1       5.196   4.963   1.724  0.00  0.00    +0.034 A 
ATOM     11  C   UNL     1       4.332   6.057   1.766  0.00  0.00    +0.042 A 
ATOM     12  C   UNL     1       3.056   5.972   1.219  0.00  0.00    +0.024 A 
ATOM     13  C   UNL     1       2.629   4.769   0.660  0.00  0.00    +0.057 A 
ATOM     14 CL   UNL     1       4.845   7.530   2.492  0.00  0.00    -0.084 Cl
ATOM     15  C   UNL     1       3.465   3.644   0.626  0.00  0.00    +0.185 A 
ATOM     16  N   UNL     1       2.893   2.488   0.074  0.00  0.00    -0.044 NA
ENDROOT
BRANCH   8  17
ATOM     17  C   UNL     1       7.163   2.949   0.506  0.00  0.00    +0.002 A 
ATOM     18  C   UNL     1       7.357   3.991  -0.415  0.00  0.00    +0.010 A 
ATOM     19  C   UNL     1       8.635   4.300  -0.892  0.00  0.00    +0.001 A 
ATOM     20  C   UNL     1       9.734   3.553  -0.478  0.00  0.00    +0.000 A 
ATOM     21  C   UNL     1       9.557   2.514   0.432  0.00  0.00    +0.001 A 
ATOM     22  C   UNL     1       8.284   2.228   0.936  0.00  0.00    +0.010 A 
ENDBRANCH   8  17
TORSDOF 1
