REMARK  Name = 
REMARK  4 active torsions:
REMARK  status: ('A' for Active; 'I' for Inactive)
REMARK    1  A    between atoms: O_1  and  C_2
REMARK    2  A    between atoms: C_5  and  C_8
REMARK    3  A    between atoms: C_16  and  O_17
REMARK    4  A    between atoms: C_18  and  O_19
REMARK                            x       y       z     vdW  Elec       q    Type
REMARK                         _______ _______ _______ _____ _____    ______ ____
ROOT
ATOM      1  C   UNL     1       6.601  -0.245  -0.601  0.00  0.00    +0.063 C 
ATOM      2  C   UNL     1       7.298  -1.540  -0.169  0.00  0.00    -0.030 A 
ATOM      3  C   UNL     1       6.913  -2.818  -0.656  0.00  0.00    -0.020 A 
ATOM      4  C   UNL     1       7.588  -3.960  -0.167  0.00  0.00    +0.089 A 
ATOM      5  C   UNL     1       8.644  -3.825   0.741  0.00  0.00    +0.177 A 
ATOM      6  C   UNL     1       9.035  -2.568   1.176  0.00  0.00    +0.160 A 
ATOM      7 CL   UNL     1       7.168  -5.569  -0.658  0.00  0.00    -0.079 Cl
ATOM      8  C   UNL     1       5.812  -2.919  -1.691  0.00  0.00    +0.052 C 
ATOM      9  C   UNL     1       6.182  -2.232  -3.012  0.00  0.00    +0.085 C 
ATOM     10  N   UNL     1       5.918  -0.791  -3.036  0.00  0.00    -0.315 NA
ATOM     11  H   UNL     1       6.067  -0.454  -3.987  0.00  0.00    +0.122 HD
ATOM     12  C   UNL     1       8.369  -1.432   0.744  0.00  0.00    +0.053 A 
ATOM     13  C   UNL     1       6.789  -0.029  -2.132  0.00  0.00    +0.093 C 
ENDROOT
BRANCH   1  17
ATOM     14  C   UNL     1       2.737   0.639   1.195  0.00  0.00    +0.117 A 
ATOM     15  C   UNL     1       3.135   1.302   0.045  0.00  0.00    +0.045 A 
ATOM     16  C   UNL     1       4.356   0.981  -0.557  0.00  0.00    +0.008 A 
ATOM     17  C   UNL     1       5.196  -0.013  -0.022  0.00  0.00    -0.039 A 
ATOM     18  C   UNL     1       4.751  -0.681   1.137  0.00  0.00    +0.008 A 
ATOM     19  C   UNL     1       3.526  -0.366   1.736  0.00  0.00    +0.045 A 
BRANCH  14  20
ATOM     20  O   UNL     1       1.566   1.019   1.780  0.00  0.00    -0.507 OA
ATOM     21  H   UNL     1       1.495   0.571   2.639  0.00  0.00    +0.292 HD
ENDBRANCH  14  20
ENDBRANCH   1  17
BRANCH   6  22
ATOM     22  O   UNL     1      10.085  -2.434   2.038  0.00  0.00    -0.503 OA
ATOM     23  H   UNL     1      10.407  -3.346   2.184  0.00  0.00    +0.292 HD
ENDBRANCH   6  22
BRANCH   5  24
ATOM     24  O   UNL     1       9.344  -4.899   1.233  0.00  0.00    -0.502 OA
ATOM     25  H   UNL     1       8.927  -5.696   0.852  0.00  0.00    +0.292 HD
ENDBRANCH   5  24
TORSDOF 4
