REMARK  Name = 
REMARK  7 active torsions:
REMARK  status: ('A' for Active; 'I' for Inactive)
REMARK    1  A    between atoms: C_1  and  N_2
REMARK    2  A    between atoms: N_2  and  S_3
REMARK    3  A    between atoms: S_3  and  C_6
REMARK    4  A    between atoms: C_6  and  C_7
REMARK    5  A    between atoms: C_7  and  C_8
REMARK    6  A    between atoms: C_14  and  C_15
REMARK    7  A    between atoms: N_18  and  C_19
REMARK                            x       y       z     vdW  Elec       q    Type
REMARK                         _______ _______ _______ _____ _____    ______ ____
ROOT
ATOM      1  C   UNL     1       6.960   2.474   2.130  0.00  0.00    -0.045 A 
ATOM      2  C   UNL     1       7.649   1.256   2.145  0.00  0.00    +0.006 A 
ATOM      3  C   UNL     1       9.041   1.205   2.195  0.00  0.00    +0.026 A 
ATOM      4  C   UNL     1       9.735   2.418   2.217  0.00  0.00    +0.047 A 
ATOM      5  N   UNL     1      11.087   2.645   2.225  0.00  0.00    -0.360 N 
ATOM      6  H   UNL     1      11.789   1.919   2.219  0.00  0.00    +0.165 HD
ATOM      7  C   UNL     1      11.339   3.985   2.177  0.00  0.00    +0.087 A 
ATOM      8  C   UNL     1      10.132   4.665   2.121  0.00  0.00    -0.019 A 
ATOM      9  C   UNL     1       9.104   3.664   2.203  0.00  0.00    +0.003 A 
ATOM     10  C   UNL     1       7.691   3.680   2.209  0.00  0.00    +0.014 A 
ENDROOT
BRANCH   8  11
ATOM     11  C   UNL     1      10.051   6.154   1.907  0.00  0.00    +0.023 C 
ATOM     12  C   UNL     1       9.463   6.545   0.547  0.00  0.00    +0.023 C 
ATOM     13  C   UNL     1       9.678   8.044   0.318  0.00  0.00    +0.084 C 
ATOM     14  N   UNL     1       9.142   8.901   1.385  0.00  0.00    -0.305 NA
ATOM     15  C   UNL     1       7.697   9.065   1.286  0.00  0.00    +0.104 C 
ATOM     16  C   UNL     1       9.564   8.458   2.723  0.00  0.00    +0.084 C 
ATOM     17  C   UNL     1       9.355   6.960   3.002  0.00  0.00    +0.023 C 
ENDBRANCH   8  11
BRANCH   1  18
ATOM     18  C   UNL     1       5.451   2.436   2.019  0.00  0.00    +0.059 C 
BRANCH  18  19
ATOM     19  C   UNL     1       4.789   3.623   1.334  0.00  0.00    +0.189 C 
BRANCH  19  20
ATOM     20  S   UNL     1       5.234   3.760  -0.405  0.00  0.00    +0.029 S 
ATOM     21  O   UNL     1       6.636   4.059  -0.579  0.00  0.00    -0.158 OA
ATOM     22  O   UNL     1       4.587   2.700  -1.139  0.00  0.00    -0.158 OA
BRANCH  20  24
ATOM     23  C   UNL     1       4.939   6.437  -0.287  0.00  0.00    +0.127 C 
ATOM     24  N   UNL     1       4.416   5.181  -0.839  0.00  0.00    -0.198 NA
ATOM     25  H   UNL     1       4.330   5.188  -1.858  0.00  0.00    +0.147 HD
ENDBRANCH  20  24
ENDBRANCH  19  20
ENDBRANCH  18  19
ENDBRANCH   1  18
TORSDOF 5
