REMARK  Name = 
REMARK  7 active torsions:
REMARK  status: ('A' for Active; 'I' for Inactive)
REMARK    1  A    between atoms: C_1  and  C_2
REMARK    2  A    between atoms: C_2  and  C_4
REMARK    3  A    between atoms: C_2  and  C_11
REMARK    4  A    between atoms: C_11  and  O_12
REMARK    5  A    between atoms: C_11  and  C_13
REMARK    6  A    between atoms: C_11  and  C_19
REMARK    7  A    between atoms: C_13  and  N_14
REMARK                            x       y       z     vdW  Elec       q    Type
REMARK                         _______ _______ _______ _____ _____    ______ ____
ROOT
ATOM      1  C   UNL     1       3.125   0.657  -1.289  0.00  0.00    +0.121 C 
ENDROOT
BRANCH   1   2
ATOM      2  C   UNL     1       4.665   0.777  -1.245  0.00  0.00    +0.022 A 
ATOM      3  C   UNL     1       5.441   0.112  -0.271  0.00  0.00    +0.012 A 
ATOM      4  C   UNL     1       6.822   0.327  -0.169  0.00  0.00    +0.039 A 
ATOM      5  C   UNL     1       7.457   1.173  -1.067  0.00  0.00    +0.126 A 
ATOM      6  F   UNL     1       8.774   1.389  -0.956  0.00  0.00    -0.205 F 
ATOM      7  C   UNL     1       6.742   1.801  -2.069  0.00  0.00    +0.077 A 
ATOM      8  C   UNL     1       5.365   1.603  -2.146  0.00  0.00    +0.132 A 
ATOM      9  F   UNL     1       4.708   2.267  -3.105  0.00  0.00    -0.205 F 
ENDBRANCH   1   2
BRANCH   1  11
ATOM     10  C   UNL     1       2.776   0.407  -3.892  0.00  0.00    +0.017 C 
ATOM     11  C   UNL     1       2.534  -0.166  -2.490  0.00  0.00    +0.076 C 
BRANCH  11  12
ATOM     12  C   UNL     1       2.908  -1.641  -2.450  0.00  0.00    +0.085 A 
ATOM     13  C   UNL     1       1.993  -2.573  -1.988  0.00  0.00    +0.163 A 
ATOM     14  F   UNL     1       0.772  -2.227  -1.560  0.00  0.00    -0.202 F 
ATOM     15  C   UNL     1       2.381  -3.892  -2.001  0.00  0.00    +0.152 A 
ATOM     16  N   UNL     1       3.590  -4.304  -2.433  0.00  0.00    -0.241 NA
ATOM     17  C   UNL     1       4.411  -3.329  -2.861  0.00  0.00    +0.221 A 
ATOM     18  N   UNL     1       4.137  -2.010  -2.890  0.00  0.00    -0.237 NA
ENDBRANCH  11  12
ENDBRANCH   1  11
BRANCH   1  19
ATOM     19  O   UNL     1       2.690  -0.021  -0.075  0.00  0.00    -0.381 OA
ATOM     20  H   UNL     1       3.110   0.411   0.689  0.00  0.00    +0.211 HD
ENDBRANCH   1  19
BRANCH   1  21
ATOM     21  C   UNL     1       2.496   2.084  -1.187  0.00  0.00    +0.185 C 
BRANCH  21  22
ATOM     22  N   UNL     1       1.049   2.138  -1.277  0.00  0.00    -0.249 N 
ATOM     23  N   UNL     1       0.459   2.847  -2.256  0.00  0.00    -0.158 NA
ATOM     24  C   UNL     1      -0.833   2.704  -1.946  0.00  0.00    +0.244 A 
ATOM     25  N   UNL     1      -1.082   1.951  -0.837  0.00  0.00    -0.223 NA
ATOM     26  C   UNL     1       0.121   1.608  -0.435  0.00  0.00    +0.219 A 
ENDBRANCH  21  22
ENDBRANCH   1  21
TORSDOF 6
