REMARK  Name = 
REMARK  7 active torsions:
REMARK  status: ('A' for Active; 'I' for Inactive)
REMARK    1  A    between atoms: C_1  and  N_2
REMARK    2  A    between atoms: C_6  and  C_8
REMARK    3  A    between atoms: C_8  and  C_9
REMARK    4  A    between atoms: C_15  and  C_16
REMARK    5  A    between atoms: C_16  and  C_17
REMARK    6  A    between atoms: C_17  and  S_18
REMARK    7  A    between atoms: S_18  and  C_21
REMARK                            x       y       z     vdW  Elec       q    Type
REMARK                         _______ _______ _______ _____ _____    ______ ____
ROOT
ATOM      1  C   UNL     1       2.106  -2.619  -1.232  0.00  0.00    -0.021 A 
ATOM      2  C   UNL     1       1.150  -1.803  -1.912  0.00  0.00    +0.003 A 
ATOM      3  C   UNL     1       1.020  -0.413  -2.087  0.00  0.00    +0.014 A 
ATOM      4  C   UNL     1      -0.143   0.139  -2.645  0.00  0.00    -0.045 A 
ATOM      5  C   UNL     1      -1.149  -0.729  -3.090  0.00  0.00    +0.006 A 
ATOM      6  C   UNL     1      -1.011  -2.124  -3.009  0.00  0.00    +0.026 A 
ATOM      7  C   UNL     1       0.144  -2.629  -2.402  0.00  0.00    +0.047 A 
ATOM      8  N   UNL     1       0.533  -3.922  -2.139  0.00  0.00    -0.360 N 
ATOM      9  H   UNL     1       0.003  -4.744  -2.394  0.00  0.00    +0.165 HD
ATOM     10  C   UNL     1       1.703  -3.928  -1.423  0.00  0.00    +0.087 A 
ENDROOT
BRANCH   1  11
ATOM     11  C   UNL     1       3.280  -2.145  -0.416  0.00  0.00    +0.056 C 
BRANCH  11  14
ATOM     12  C   UNL     1       4.574   0.539   1.220  0.00  0.00    +0.105 C 
ATOM     13  N   UNL     1       4.107  -0.813   1.517  0.00  0.00    -0.302 NA
ATOM     14  C   UNL     1       2.898  -1.186   0.742  0.00  0.00    +0.061 C 
ATOM     15  C   UNL     1       1.938  -1.822   1.755  0.00  0.00    +0.020 C 
ATOM     16  C   UNL     1       2.782  -2.078   2.985  0.00  0.00    +0.017 C 
ATOM     17  C   UNL     1       3.793  -0.954   2.943  0.00  0.00    +0.084 C 
ENDBRANCH  11  14
ENDBRANCH   1  11
BRANCH   4  18
ATOM     18  C   UNL     1      -0.373   1.638  -2.642  0.00  0.00    +0.058 C 
BRANCH  18  19
ATOM     19  C   UNL     1       0.902   2.463  -2.774  0.00  0.00    +0.176 C 
BRANCH  19  20
ATOM     20  S   UNL     1       0.597   4.204  -2.610  0.00  0.00    -0.003 S 
ATOM     21  O   UNL     1       0.282   4.491  -1.225  0.00  0.00    -0.169 OA
ATOM     22  O   UNL     1      -0.286   4.622  -3.683  0.00  0.00    -0.169 OA
BRANCH  20  23
ATOM     23  C   UNL     1       2.210   4.880  -2.943  0.00  0.00    +0.088 A 
ATOM     24  C   UNL     1       3.128   5.029  -1.899  0.00  0.00    +0.027 A 
ATOM     25  C   UNL     1       4.408   5.509  -2.180  0.00  0.00    +0.002 A 
ATOM     26  C   UNL     1       4.758   5.843  -3.489  0.00  0.00    +0.000 A 
ATOM     27  C   UNL     1       3.830   5.707  -4.523  0.00  0.00    +0.002 A 
ATOM     28  C   UNL     1       2.549   5.228  -4.253  0.00  0.00    +0.027 A 
ENDBRANCH  20  23
ENDBRANCH  19  20
ENDBRANCH  18  19
ENDBRANCH   4  18
TORSDOF 6
