REMARK  Name = 
REMARK  8 active torsions:
REMARK  status: ('A' for Active; 'I' for Inactive)
REMARK    1  A    between atoms: C_18  and  C_19
REMARK    2  A    between atoms: C_22  and  O_24
REMARK    3  A    between atoms: C_26  and  C_27
REMARK    4  A    between atoms: C_28  and  C_34
REMARK    5  A    between atoms: C_30  and  C_31
REMARK    6  A    between atoms: C_30  and  C_32
REMARK    7  A    between atoms: C_34  and  C_36
REMARK    8  A    between atoms: C_36  and  O_37
REMARK                            x       y       z     vdW  Elec       q    Type
REMARK                         _______ _______ _______ _____ _____    ______ ____
ROOT
ATOM      1  C   UNL     1      -0.134  -0.223   0.000  0.00  0.00    +0.162 C 
ATOM      2  O   UNL     1      -0.134  -0.223   0.000  0.00  0.00    -0.343 OA
ATOM      3  C   UNL     1      -0.134  -0.192   0.000  0.00  0.00    +0.166 C 
ATOM      4  C   UNL     1      -0.134  -0.223   0.000  0.00  0.00    +0.074 C 
ATOM      5  C   UNL     1       4.835   7.988   0.000  0.00  0.00    +0.074 C 
ATOM      6  O   UNL     1      -0.134  -0.223   0.000  0.00  0.00    -0.332 OA
ATOM      7  C   UNL     1      -0.134  -0.223   0.000  0.00  0.00    +0.164 C 
ATOM      8  C   UNL     1      -0.134  -0.223   0.000  0.00  0.00    +0.012 C 
ATOM      9  C   UNL     1      -0.134  -0.223   0.000  0.00  0.00    +0.015 C 
ATOM     10  C   UNL     1      -0.134  -0.22335912476920185974986896237992667618035850648789554312294484226813218801294056981458059677087720305672776888703923824883771067340587017757339916515846145198522368.000  0.00  0.00    +0.007 C 
ATOM     11  C   UNL     1      -0.134  -0.223   0.000  0.00  0.00    +0.037 C 
ATOM     12  C   UNL     1      -0.134  -0.223   0.000  0.00  0.00    +0.153 C 
ATOM     13  C   UNL     1      -0.134  -0.223   0.000  0.00  0.00    +0.154 C 
ATOM     14  F   UNL     1      -0.134  -0.223   0.000  0.00  0.00    -0.238 F 
ATOM     15  C   UNL     1      -0.134  -0.223   0.000  0.00  0.00    +0.047 C 
ATOM     16  C   UNL     1      -0.134  -0.223   0.000  0.00  0.00    +0.023 C 
ATOM     17  C   UNL     1      -0.134  -0.223   0.000  0.00  0.00    -0.020 C 
ATOM     18  C   UNL     1      -0.134  -0.223   0.000  0.00  0.00    +0.054 C 
ATOM     19  C   UNL     1      -0.134  -0.223   0.000  0.00  0.00    +0.179 C 
ATOM     20  C   UNL     1      -0.134  -0.223   0.000  0.00  0.00    +0.047 C 
ATOM     21  O   UNL     1      -0.134  -0.223   0.000  0.00  0.00    -0.288 OA
ATOM     22  C   UNL     1      -0.134  -0.223   0.000  0.00  0.00    +0.194 C 
ATOM     23  F   UNL     1      -0.134  -0.223   0.000  0.00  0.00    -0.241 F 
ATOM     24  C   UNL     1      -0.134  -0.223   0.000  0.00  0.00    -0.009 C 
ATOM     25  C   UNL     1      -0.134  -0.223   0.000  0.00  0.00    +0.048 C 
ATOM     26  C   UNL     1      -0.134  -0.223   0.000  0.00  0.00    +0.044 C 
ATOM     27  C   UNL     1      -0.134  -0.223   0.000  0.00  0.00    +0.039 C 
ENDROOT
BRANCH   7  28
ATOM     28  C   UNL     1      -0.134  -0.223   0.000  0.00  0.00    +0.193 C 
ATOM     29  O   UNL     1      -0.134  -0.223   0.000  0.00  0.00    -0.292 OA
BRANCH  28  30
ATOM     30  C   UNL     1      -0.134  -0.223   0.000  0.00  0.00    +0.233 C 
BRANCH  30  31
ATOM     31  O   UNL     1      -0.134  -0.223   0.000  0.00  0.00    -0.387 OA
ATOM     32  H   UNL     1      -0.000  -0.000970603601905236959326339047466806913795247640981379861002435548180912688464037670177051103392441974358086981319450906446091582612641350034965164329376170377216.000  0.00  0.00    +0.210 HD
ENDBRANCH  30  31
ENDBRANCH  28  30
ENDBRANCH   7  28
BRANCH  13  33
ATOM     33  O   UNL     1      -0.134  -0.223   0.000  0.00  0.00    -0.389 OA
ATOM     34  H   UNL     1       0.000   0.000970607484329350638408952627822189643416266506893082527823582145872808724139886800593501117677644510003864016585029391928291485810043790285984517733987037216768.000  0.00  0.00    +0.210 HD
ENDBRANCH  13  33
TORSDOF 4
