REMARK  Name = 
REMARK  5 active torsions:
REMARK  status: ('A' for Active; 'I' for Inactive)
REMARK    1  A    between atoms: O_1  and  C_2
REMARK    2  A    between atoms: C_6  and  O_7
REMARK    3  A    between atoms: C_14  and  O_15
REMARK    4  A    between atoms: N_21  and  C_22
REMARK    5  A    between atoms: C_22  and  C_23
REMARK                            x       y       z     vdW  Elec       q    Type
REMARK                         _______ _______ _______ _____ _____    ______ ____
ROOT
ATOM      1  C   UNL     1      -0.000  -0.000  -0.000  0.00  0.00    +0.156 C 
ATOM      2  C   UNL     1      -0.000  -0.000  -0.000  0.00  0.00    +0.215 C 
ATOM      3  O   UNL     1      -0.000  -0.000  -0.000  0.00  0.00    -0.481 OA
ATOM      4  C   UNL     1      -0.000  -0.000  -0.000  0.00  0.00    +0.166 A 
ATOM      5  C   UNL     1      -0.000  -0.000  -0.000  0.00  0.00    +0.014 A 
ATOM      6  C   UNL     1      -0.000  -0.000  -0.000  0.00  0.00    -0.038 A 
ATOM      7  C   UNL     1      -0.000  -0.000  -0.000  0.00  0.00    +0.008 A 
ATOM      8  C   UNL     1      -0.000  -0.000   0.000  0.00  0.00    +0.049 A 
ATOM      9  C   UNL     1      -0.000  -0.000  -0.000  0.00  0.00    +0.057 C 
ATOM     10  C   UNL     1      -0.000  -0.000   0.000  0.00  0.00    +0.094 C 
ATOM     11  N   UNL     1      -0.000  -0.000  -0.000  0.00  0.00    -0.296 NA
ATOM     12  C   UNL     1      -0.000  -0.000  -0.000  0.00  0.00    +0.086 C 
ATOM     13  C   UNL     1      -0.000  -0.000  -0.000  0.00  0.00    +0.033 C 
ATOM     14  C   UNL     1      -0.000  -0.000   0.000  0.00  0.00    +0.095 C 
ATOM     15  C   UNL     1      -0.000  -0.000   0.000  0.00  0.00    +0.040 C 
ATOM     16  C   UNL     1      -0.000  -0.000   0.000  0.00  0.00    +0.159 A 
ATOM     17  C   UNL     1      -0.000  -0.000  -0.000  0.00  0.00    +0.070 C 
ATOM     18  C   UNL     1      -0.000  -0.000   0.000  0.00  0.00    +0.038 C 
ENDROOT
BRANCH   1  19
ATOM     19  O   UNL     1       0.000   0.000  -0.000  0.00  0.00    -0.388 OA
ATOM     20  H   UNL     1       0.000   0.000   0.000  0.00  0.00    +0.210 HD
ENDBRANCH   1  19
BRANCH  14  21
ATOM     21  O   UNL     1      -0.000  -0.000  -0.000  0.00  0.00    -0.386 OA
ATOM     22  H   UNL     1       0.000   0.000   0.000  0.00  0.00    +0.210 HD
ENDBRANCH  14  21
BRANCH  16  23
ATOM     23  O   UNL     1      -0.000  -0.000  -0.000  0.00  0.00    -0.503 OA
ATOM     24  H   UNL     1       0.000   0.000   0.000  0.00  0.00    +0.292 HD
ENDBRANCH  16  23
BRANCH  11  25
ATOM     25  C   UNL     1      -0.000  -0.000   0.000  0.00  0.00    +0.088 C 
BRANCH  25  26
ATOM     26  C   UNL     1      -0.000  -0.000  -0.000  0.00  0.00    +0.003 C 
ATOM     27  C   UNL     1      -0.000  -0.000   0.000  0.00  0.00    +0.005 C 
ATOM     28  C   UNL     1      -0.000  -0.000   0.000  0.00  0.00    +0.001 C 
ATOM     29  C   UNL     1      -0.000  -0.000   0.000  0.00  0.00    +0.005 C 
ENDBRANCH  25  26
ENDBRANCH  11  25
TORSDOF 5
