REMARK  Name = 
REMARK  6 active torsions:
REMARK  status: ('A' for Active; 'I' for Inactive)
REMARK    1  A    between atoms: N_1  and  CA_2
REMARK    2  A    between atoms: CA_2  and  CB_4
REMARK    3  A    between atoms: CA_2  and  C_9
REMARK    4  A    between atoms: CB_4  and  CG_5
REMARK    5  A    between atoms: CG_5  and  CD_6
REMARK    6  A    between atoms: C_9  and  O_10
REMARK                            x       y       z     vdW  Elec       q    Type
REMARK                         _______ _______ _______ _____ _____    ______ ____
ROOT
ATOM      1  CA  GLN A   1       2.481   0.091   0.037  0.00  0.00    +0.161 C 
ENDROOT
BRANCH   1   2
ATOM      2  N   GLN A   1       2.949   0.247   1.454  0.00  0.00    -0.318 NA
ATOM      3  H1  GLN A   1       3.866   0.710   1.442  0.00  0.00    +0.119 HD
ATOM      4  H2  GLN A   1       2.341   0.940   1.903  0.00  0.00    +0.119 HD
ENDBRANCH   1   2
BRANCH   1   5
ATOM      5  C   GLN A   1       2.955  -1.289  -0.469  0.00  0.00    +0.322 C 
ATOM      6  OXT GLN A   1       2.781  -1.733  -1.593  0.00  0.00    -0.249 OA
BRANCH   5   7
ATOM      7  O   GLN A   1       3.579  -1.988   0.514  0.00  0.00    -0.480 OA
ATOM      8  H   GLN A   1       3.520  -1.414   1.320  0.00  0.00    +0.295 HD
ENDBRANCH   5   7
ENDBRANCH   1   5
BRANCH   1   9
ATOM      9  CB  GLN A   1       3.015   1.253  -0.805  0.00  0.00    +0.039 C 
BRANCH   9  10
ATOM     10  CG  GLN A   1       2.512   1.247  -2.250  0.00  0.00    +0.097 C 
BRANCH  10  11
ATOM     11  CD  GLN A   1       3.041   2.426  -3.036  0.00  0.00    +0.211 C 
ATOM     12  OE1 GLN A   1       3.771   3.297  -2.580  0.00  0.00    -0.276 OA
ATOM     13  NE2 GLN A   1       2.631   2.452  -4.337  0.00  0.00    -0.329 N 
ATOM     14 HE21 GLN A   1       2.991   3.186  -4.933  0.00  0.00    +0.145 HD
ATOM     15 HE22 GLN A   1       2.087   1.710  -4.755  0.00  0.00    +0.145 HD
ENDBRANCH  10  11
ENDBRANCH   9  10
ENDBRANCH   1   9
TORSDOF 6
