REMARK  Name = 
REMARK  8 active torsions:
REMARK  status: ('A' for Active; 'I' for Inactive)
REMARK    1  A    between atoms: C_1  and  C_2
REMARK    2  A    between atoms: C_2  and  N_3
REMARK    3  A    between atoms: N_3  and  C_4
REMARK    4  A    between atoms: C_4  and  C_5
REMARK    5  A    between atoms: C_11  and  C_13
REMARK    6  A    between atoms: C_13  and  C_14
REMARK    7  A    between atoms: C_13  and  C_16
REMARK    8  A    between atoms: C_14  and  O_15
REMARK                            x       y       z     vdW  Elec       q    Type
REMARK                         _______ _______ _______ _____ _____    ______ ____
ROOT
ATOM      1  N   UNL     1       2.960   1.125  -0.799  0.00  0.00    -0.297 N 
ATOM      2  C   UNL     1       4.322   1.440  -0.929  0.00  0.00    +0.225 C 
ATOM      3  O   UNL     1       5.185   0.825  -0.283  0.00  0.00    -0.275 OA
ENDROOT
BRANCH   1   5
ATOM      4  C   UNL     1       2.802   0.362   1.601  0.00  0.00    +0.024 C 
ATOM      5  C   UNL     1       2.655   0.021   0.124  0.00  0.00    +0.105 C 
ENDBRANCH   1   5
BRANCH   2   6
ATOM      6  C   UNL     1       4.777   2.492  -1.959  0.00  0.00    +0.130 C 
BRANCH   6   7
ATOM      7  C   UNL     1       4.955   1.907  -3.358  0.00  0.00    -0.033 A 
ATOM      8  C   UNL     1       5.254   0.550  -3.565  0.00  0.00    +0.004 A 
ATOM      9  C   UNL     1       5.458   0.047  -4.851  0.00  0.00    +0.000 A 
ATOM     10  C   UNL     1       5.382   0.894  -5.951  0.00  0.00    +0.000 A 
ATOM     11  C   UNL     1       5.106   2.246  -5.765  0.00  0.00    +0.000 A 
ATOM     12  C   UNL     1       4.893   2.751  -4.479  0.00  0.00    +0.004 A 
ENDBRANCH   6   7
BRANCH   6  13
ATOM     13  C   UNL     1       6.082   3.171  -1.480  0.00  0.00    +0.173 C 
BRANCH  13  14
ATOM     14  O   UNL     1       7.197   2.288  -1.384  0.00  0.00    -0.394 OA
ATOM     15  H   UNL     1       6.905   1.531  -0.834  0.00  0.00    +0.209 HD
ENDBRANCH  13  14
ENDBRANCH   6  13
ENDBRANCH   2   6
BRANCH   1  16
ATOM     16  C   UNL     1       1.913   2.095  -1.149  0.00  0.00    +0.143 C 
BRANCH  16  17
ATOM     17  C   UNL     1       0.492   1.605  -1.314  0.00  0.00    -0.027 A 
ATOM     18  C   UNL     1       0.167   0.584  -2.215  0.00  0.00    +0.025 A 
ATOM     19  C   UNL     1      -1.171   0.268  -2.414  0.00  0.00    +0.111 A 
ATOM     20  N   UNL     1      -2.194   0.899  -1.798  0.00  0.00    -0.263 NA
ATOM     21  C   UNL     1      -1.865   1.887  -0.941  0.00  0.00    +0.111 A 
ATOM     22  C   UNL     1      -0.561   2.266  -0.669  0.00  0.00    +0.025 A 
ENDBRANCH  16  17
ENDBRANCH   1  16
TORSDOF 7
