REMARK  Name = 
REMARK  5 active torsions:
REMARK  status: ('A' for Active; 'I' for Inactive)
REMARK    1  A    between atoms: N_4  and  C_10
REMARK    2  A    between atoms: C_8  and  N_9
REMARK    3  A    between atoms: C_17  and  C_30
REMARK    4  A    between atoms: N_19  and  C_20
REMARK    5  A    between atoms: C_30  and  O_31
REMARK                            x       y       z     vdW  Elec       q    Type
REMARK                         _______ _______ _______ _____ _____    ______ ____
ROOT
ATOM      1  C   UNL     1       3.298  -3.278  -1.007  0.00  0.00    +0.159 A 
ATOM      2  N   UNL     1       3.394  -4.315  -0.124  0.00  0.00    -0.211 NA
ATOM      3  C   UNL     1       3.331  -5.613  -0.532  0.00  0.00    +0.151 A 
ATOM      4  C   UNL     1       3.177  -5.896  -1.892  0.00  0.00    +0.068 A 
ATOM      5  C   UNL     1       3.133  -7.280  -2.378  0.00  0.00    +0.205 A 
ATOM      6  C   UNL     1       3.274  -8.366  -1.404  0.00  0.00    +0.122 A 
ATOM      7  C   UNL     1       3.405  -8.009  -0.118  0.00  0.00    +0.112 A 
ATOM      8  O   UNL     1       2.981  -7.533  -3.574  0.00  0.00    -0.286 OA
ATOM      9  C   UNL     1       3.072  -4.865  -2.816  0.00  0.00    +0.057 A 
ATOM     10  N   UNL     1       3.441  -6.710   0.409  0.00  0.00    -0.297 N 
ATOM     11  C   UNL     1       3.148  -3.559  -2.372  0.00  0.00    +0.164 A 
ATOM     12  F   UNL     1       3.036  -2.602  -3.302  0.00  0.00    -0.202 F 
ENDROOT
BRANCH  10  13
ATOM     13  C   UNL     1       3.567  -6.518   1.837  0.00  0.00    +0.083 A 
ATOM     14  C   UNL     1       2.901  -5.465   2.495  0.00  0.00    +0.032 A 
ATOM     15  C   UNL     1       3.003  -5.278   3.880  0.00  0.00    +0.040 A 
ATOM     16  C   UNL     1       3.749  -6.166   4.640  0.00  0.00    +0.126 A 
ATOM     17  F   UNL     1       3.824  -6.001   5.966  0.00  0.00    -0.205 F 
ATOM     18  C   UNL     1       4.412  -7.223   4.041  0.00  0.00    +0.078 A 
ATOM     19  C   UNL     1       4.330  -7.380   2.657  0.00  0.00    +0.150 A 
ATOM     20  F   UNL     1       5.040  -8.385   2.119  0.00  0.00    -0.203 F 
ENDBRANCH  10  13
BRANCH   1  25
ATOM     21  C   UNL     1       2.185  -0.492   0.850  0.00  0.00    +0.029 C 
ATOM     22  C   UNL     1       2.853   0.851   0.752  0.00  0.00    +0.061 C 
ATOM     23  C   UNL     1       2.427   0.127  -0.491  0.00  0.00    +0.029 C 
ATOM     24  C   UNL     1       3.356  -0.765  -1.255  0.00  0.00    +0.112 C 
ATOM     25  N   UNL     1       3.348  -2.006  -0.489  0.00  0.00    -0.312 N 
ATOM     26  C   UNL     1       2.949  -1.784   0.904  0.00  0.00    +0.112 C 
BRANCH  22  27
ATOM     27  N   UNL     1       2.110   2.048   1.149  0.00  0.00    -0.327 NA
ATOM     28  H   UNL     1       2.465   2.870   0.661  0.00  0.00    +0.118 HD
ATOM     29  H   UNL     1       1.126   1.979   0.887  0.00  0.00    +0.118 HD
ENDBRANCH  22  27
ENDBRANCH   1  25
BRANCH   6  30
ATOM     30  C   UNL     1       3.267  -9.795  -1.785  0.00  0.00    +0.342 C 
ATOM     31  O   UNL     1       3.376 -10.706  -0.977  0.00  0.00    -0.245 OA
BRANCH  30  32
ATOM     32  O   UNL     1       3.130 -10.024  -3.112  0.00  0.00    -0.477 OA
ATOM     33  H   UNL     1       3.043  -9.209  -3.665  0.00  0.00    +0.295 HD
ENDBRANCH  30  32
ENDBRANCH   6  30
TORSDOF 5
