REMARK  Name = 
REMARK  9 active torsions:
REMARK  status: ('A' for Active; 'I' for Inactive)
REMARK    1  A    between atoms: C_1  and  C_2
REMARK    2  A    between atoms: C_2  and  C_3
REMARK    3  A    between atoms: C_3  and  C_4
REMARK    4  A    between atoms: C_4  and  O_5
REMARK    5  A    between atoms: O_5  and  C_6
REMARK    6  A    between atoms: C_9  and  C_12
REMARK    7  A    between atoms: C_12  and  C_14
REMARK    8  A    between atoms: C_14  and  C_15
REMARK    9  A    between atoms: C_15  and  N_16
REMARK                            x       y       z     vdW  Elec       q    Type
REMARK                         _______ _______ _______ _____ _____    ______ ____
ROOT
ATOM      1  C   UNL     1       6.462  -2.998   0.266  0.00  0.00    +0.121 A 
ATOM      2  C   UNL     1       6.888  -4.327   0.226  0.00  0.00    +0.046 A 
ATOM      3  C   UNL     1       8.234  -4.641   0.017  0.00  0.00    +0.015 A 
ATOM      4  C   UNL     1       9.171  -3.615  -0.140  0.00  0.00    +0.018 A 
ATOM      5  C   UNL     1       8.756  -2.285  -0.033  0.00  0.00    +0.015 A 
ATOM      6  C   UNL     1       7.407  -1.976   0.165  0.00  0.00    +0.046 A 
ENDROOT
BRANCH   4   7
ATOM      7  C   UNL     1      10.604  -3.881  -0.465  0.00  0.00    +0.164 C 
ATOM      8  O   UNL     1      11.457  -3.066  -0.107  0.00  0.00    -0.292 OA
BRANCH   7   9
ATOM      9  C   UNL     1      10.974  -5.117  -1.263  0.00  0.00    +0.095 C 
BRANCH   9  10
ATOM     10  C   UNL     1      10.399  -5.036  -2.682  0.00  0.00    +0.092 C 
BRANCH  10  11
ATOM     11  N   UNL     1      10.477  -6.272  -3.472  0.00  0.00    -0.302 NA
ATOM     12  C   UNL     1      11.809  -6.871  -3.639  0.00  0.00    +0.084 C 
ATOM     13  C   UNL     1      12.672  -6.320  -4.781  0.00  0.00    +0.015 C 
ATOM     14  C   UNL     1      11.895  -6.190  -6.085  0.00  0.00    +0.002 C 
ATOM     15  C   UNL     1      10.608  -5.420  -5.838  0.00  0.00    +0.015 C 
ATOM     16  C   UNL     1       9.779  -6.123  -4.761  0.00  0.00    +0.084 C 
ENDBRANCH  10  11
ENDBRANCH   9  10
ENDBRANCH   7   9
ENDBRANCH   4   7
BRANCH   1  17
ATOM     17  O   UNL     1       5.118  -2.801   0.447  0.00  0.00    -0.492 OA
BRANCH  17  18
ATOM     18  C   UNL     1       4.591  -1.626  -0.179  0.00  0.00    +0.229 C 
BRANCH  18  19
ATOM     19  C   UNL     1       3.073  -1.612  -0.010  0.00  0.00    +0.041 C 
BRANCH  19  21
ATOM     20  C   UNL     1       0.953  -0.310  -0.457  0.00  0.00    +0.004 C 
ATOM     21  C   UNL     1       2.459  -0.369  -0.654  0.00  0.00    -0.000 C 
ENDBRANCH  19  21
ENDBRANCH  18  19
ENDBRANCH  17  18
ENDBRANCH   1  17
TORSDOF 8
