REMARK  Name = 
REMARK  6 active torsions:
REMARK  status: ('A' for Active; 'I' for Inactive)
REMARK    1  A    between atoms: C_1  and  C_2
REMARK    2  A    between atoms: C_3  and  O_4
REMARK    3  A    between atoms: C_5  and  C_6
REMARK    4  A    between atoms: C_6  and  O_7
REMARK    5  A    between atoms: C_8  and  C_9
REMARK    6  A    between atoms: C_9  and  O_10
REMARK                            x       y       z     vdW  Elec       q    Type
REMARK                         _______ _______ _______ _____ _____    ______ ____
ROOT
ATOM      1  C   UNL     1       1.021  -0.152   0.104  0.00  0.00    +0.069 C 
ATOM      2  C   UNL     1       2.512  -0.020   0.053  0.00  0.00    +0.080 A 
ATOM      3  N   UNL     1       3.170  -1.203  -0.025  0.00  0.00    -0.256 NA
ATOM      4  C   UNL     1       4.517  -1.170  -0.036  0.00  0.00    +0.117 A 
ATOM      5  C   UNL     1       5.279  -0.007   0.017  0.00  0.00    +0.005 A 
ATOM      6  C   UNL     1       4.594   1.222   0.104  0.00  0.00    +0.028 A 
ATOM      7  C   UNL     1       3.189   1.201   0.120  0.00  0.00    +0.143 A 
ENDROOT
BRANCH   7   8
ATOM      8  O   UNL     1       2.542   2.401   0.229  0.00  0.00    -0.505 OA
ATOM      9  H   UNL     1       1.659   2.337  -0.167  0.00  0.00    +0.292 HD
ENDBRANCH   7   8
BRANCH   5  10
ATOM     10  C   UNL     1       6.778  -0.110   0.005  0.00  0.00    +0.193 C 
BRANCH  10  11
ATOM     11  O   UNL     1       7.299   0.574  -1.129  0.00  0.00    -0.390 OA
ATOM     12  H   UNL     1       7.140  -0.007  -1.895  0.00  0.00    +0.210 HD
ENDBRANCH  10  11
ENDBRANCH   5  10
BRANCH   6  13
ATOM     13  C   UNL     1       5.336   2.537   0.139  0.00  0.00    +0.195 C 
BRANCH  13  14
ATOM     14  O   UNL     1       5.680   2.942  -1.180  0.00  0.00    -0.390 OA
ATOM     15  H   UNL     1       6.417   2.358  -1.444  0.00  0.00    +0.210 HD
ENDBRANCH  13  14
ENDBRANCH   6  13
TORSDOF 5
