REMARK  Name = 
REMARK  5 active torsions:
REMARK  status: ('A' for Active; 'I' for Inactive)
REMARK    1  A    between atoms: N_1  and  CA_2
REMARK    2  A    between atoms: CA_2  and  CB_4
REMARK    3  A    between atoms: CA_2  and  C_6
REMARK    4  A    between atoms: CB_4  and  OG_5
REMARK    5  A    between atoms: C_6  and  O_7
REMARK                            x       y       z     vdW  Elec       q    Type
REMARK                         _______ _______ _______ _____ _____    ______ ____
ROOT
ATOM      1  CA  SER A   1       2.488   0.042   0.005  0.00  0.00    +0.186 C 
ENDROOT
BRANCH   1   2
ATOM      2  N   SER A   1       0.988   0.147  -0.022  0.00  0.00    -0.317 NA
ATOM      3  H1  SER A   1       0.737   0.677  -0.867  0.00  0.00    +0.119 HD
ATOM      4  H2  SER A   1       0.648  -0.793  -0.266  0.00  0.00    +0.119 HD
ENDBRANCH   1   2
BRANCH   1   5
ATOM      5  C   SER A   1       3.066   1.285   0.681  0.00  0.00    +0.324 C 
ATOM      6  OXT SER A   1       4.250   1.575   0.723  0.00  0.00    -0.249 OA
BRANCH   5   7
ATOM      7  O   SER A   1       2.088   2.033   1.256  0.00  0.00    -0.479 OA
ATOM      8  H   SER A   1       1.239   1.548   1.082  0.00  0.00    +0.295 HD
ENDBRANCH   5   7
ENDBRANCH   1   5
BRANCH   1   9
ATOM      9  CB  SER A   1       3.064  -0.101  -1.405  0.00  0.00    +0.185 C 
BRANCH   9  10
ATOM     10  OG  SER A   1       2.503  -1.248  -2.048  0.00  0.00    -0.393 OA
ATOM     11  H   SER A   1       3.006  -2.024  -1.743  0.00  0.00    +0.209 HD
ENDBRANCH   9  10
ENDBRANCH   1   9
TORSDOF 5
