REMARK  Name = 
REMARK  19 active torsions:
REMARK  status: ('A' for Active; 'I' for Inactive)
REMARK    1  A    between atoms: C_1  and  C_2
REMARK    2  A    between atoms: C_2  and  C_3
REMARK    3  A    between atoms: C_3  and  C_4
REMARK    4  A    between atoms: C_4  and  C_5
REMARK    5  A    between atoms: C_5  and  O_7
REMARK    6  A    between atoms: O_7  and  C_8
REMARK    7  A    between atoms: C_8  and  C_9
REMARK    8  A    between atoms: C_9  and  C_11
REMARK    9  A    between atoms: C_11  and  O_12
REMARK   10  A    between atoms: C_14  and  O_16
REMARK   11  A    between atoms: O_16  and  C_17
REMARK   12  A    between atoms: C_19  and  N_20
REMARK   13  A    between atoms: C_21  and  C_23
REMARK   14  A    between atoms: C_27  and  O_28
REMARK   15  A    between atoms: C_29  and  C_30
REMARK   16  A    between atoms: C_35  and  O_36
REMARK   17  A    between atoms: C_45  and  O_46
REMARK   18  A    between atoms: C_47  and  O_48
REMARK   19  A    between atoms: O_48  and  C_49
REMARK                            x       y       z     vdW  Elec       q    Type
REMARK                         _______ _______ _______ _____ _____    ______ ____
ROOT
ATOM      1  C   UNL     1       9.474   2.260   5.537  0.00  0.00    +0.134 C 
ATOM      2  C   UNL     1       9.169   3.728   5.864  0.00  0.00    +0.082 C 
ATOM      3  C   UNL     1       7.758   3.985   6.371  0.00  0.00    +0.007 A 
ATOM      4  C   UNL     1       7.176   5.272   6.291  0.00  0.00    +0.132 A 
ATOM      5  C   UNL     1       5.832   5.496   6.662  0.00  0.00    +0.078 A 
ATOM      6  C   UNL     1       5.086   4.441   7.171  0.00  0.00    +0.078 A 
ATOM      7  C   UNL     1       5.685   3.181   7.349  0.00  0.00    +0.134 A 
ATOM      8  C   UNL     1       3.632   4.586   7.374  0.00  0.00    +0.202 C 
ATOM      9  O   UNL     1       2.997   3.539   7.390  0.00  0.00    -0.286 OA
ATOM     10  C   UNL     1       2.985   5.913   7.439  0.00  0.00    +0.075 A 
ATOM     11  C   UNL     1       1.669   6.173   7.875  0.00  0.00    +0.132 A 
ATOM     12  C   UNL     1       1.172   7.496   7.785  0.00  0.00    +0.046 A 
ATOM     13  C   UNL     1       1.937   8.544   7.292  0.00  0.00    +0.004 A 
ATOM     14  C   UNL     1       3.233   8.287   6.879  0.00  0.00    +0.012 A 
ATOM     15  C   UNL     1       3.759   6.987   6.956  0.00  0.00    +0.037 A 
ATOM     16  C   UNL     1       5.149   6.801   6.464  0.00  0.00    +0.198 C 
ATOM     17  O   UNL     1       5.691   7.738   5.893  0.00  0.00    -0.286 OA
ATOM     18  C   UNL     1       6.996   2.925   6.915  0.00  0.00    +0.030 A 
ATOM     19  C   UNL     1       7.427   1.474   6.730  0.00  0.00    +0.158 C 
ATOM     20  C   UNL     1       8.937   1.337   6.631  0.00  0.00    +0.079 C 
ENDROOT
BRANCH   1  21
ATOM     21  O   UNL     1       8.907   1.931   4.260  0.00  0.00    -0.381 OA
ATOM     22  H   UNL     1       7.942   2.102   4.307  0.00  0.00    +0.211 HD
ENDBRANCH   1  21
BRANCH   4  23
ATOM     23  O   UNL     1       7.895   6.328   5.804  0.00  0.00    -0.506 OA
ATOM     24  H   UNL     1       8.757   6.078   5.442  0.00  0.00    +0.292 HD
ENDBRANCH   4  23
BRANCH  11  25
ATOM     25  O   UNL     1       0.686   5.389   8.407  0.00  0.00    -0.494 OA
ATOM     26  C   UNL     1       0.848   4.026   8.737  0.00  0.00    +0.277 C 
ENDBRANCH  11  25
BRANCH   7  27
ATOM     27  O   UNL     1       4.997   2.118   7.886  0.00  0.00    -0.506 OA
ATOM     28  H   UNL     1       4.033   2.326   7.876  0.00  0.00    +0.292 HD
ENDBRANCH   7  27
BRANCH   1  29
ATOM     29  C   UNL     1      10.980   2.072   5.358  0.00  0.00    +0.202 C 
ATOM     30  O   UNL     1      11.721   1.795   6.304  0.00  0.00    -0.291 OA
BRANCH  29  31
ATOM     31  C   UNL     1      11.516   2.274   3.937  0.00  0.00    +0.309 C 
BRANCH  31  32
ATOM     32  O   UNL     1      12.843   2.778   3.917  0.00  0.00    -0.457 OA
BRANCH  32  33
ATOM     33  C   UNL     1      12.909   4.074   4.335  0.00  0.00    +0.307 C 
ATOM     34  O   UNL     1      11.941   4.760   4.634  0.00  0.00    -0.251 OA
BRANCH  33  35
ATOM     35  C   UNL     1      14.337   4.537   4.339  0.00  0.00    +0.120 C 
BRANCH  35  36
ATOM     36  C   UNL     1      14.513   5.679   5.328  0.00  0.00    +0.011 C 
BRANCH  36  38
ATOM     37  C   UNL     1      16.117   7.280   6.388  0.00  0.00    +0.004 C 
ATOM     38  C   UNL     1      15.961   6.149   5.386  0.00  0.00    -0.003 C 
ENDBRANCH  36  38
ENDBRANCH  35  36
ENDBRANCH  33  35
ENDBRANCH  32  33
ENDBRANCH  31  32
ENDBRANCH  29  31
ENDBRANCH   1  29
BRANCH  19  39
ATOM     39  O   UNL     1       6.789   1.210   5.489  0.00  0.00    -0.343 OA
BRANCH  39  40
ATOM     40  C   UNL     1       6.851  -0.045   4.848  0.00  0.00    +0.253 C 
ATOM     41  O   UNL     1       6.155   0.145   3.601  0.00  0.00    -0.346 OA
ATOM     42  C   UNL     1       4.794   0.580   3.835  0.00  0.00    +0.148 C 
ATOM     43  C   UNL     1       4.207   1.072   2.523  0.00  0.00    +0.041 C 
ATOM     44  C   UNL     1       4.044  -0.597   4.472  0.00  0.00    +0.163 C 
ATOM     45  C   UNL     1       4.735  -0.922   5.817  0.00  0.00    +0.109 C 
ATOM     46  C   UNL     1       6.224  -1.193   5.621  0.00  0.00    +0.086 C 
BRANCH  45  47
ATOM     47  N   UNL     1       4.101  -2.034   6.510  0.00  0.00    -0.302 N 
ATOM     48  H   UNL     1       4.206  -2.964   6.111  0.00  0.00    +0.149 HD
ATOM     49  C   UNL     1       3.002  -1.813   7.336  0.00  0.00    +0.318 C 
ATOM     50  O   UNL     1       2.579  -0.675   7.554  0.00  0.00    -0.266 OA
BRANCH  49  51
ATOM     51  C   UNL     1       2.396  -3.080   7.972  0.00  0.00    +0.469 C 
ATOM     52  F   UNL     1       1.089  -3.255   7.641  0.00  0.00    -0.162 F 
ATOM     53  F   UNL     1       2.459  -3.056   9.332  0.00  0.00    -0.162 F 
ATOM     54  F   UNL     1       3.047  -4.214   7.578  0.00  0.00    -0.162 F 
ENDBRANCH  49  51
ENDBRANCH  45  47
BRANCH  44  55
ATOM     55  O   UNL     1       4.118  -1.751   3.616  0.00  0.00    -0.387 OA
ATOM     56  H   UNL     1       4.923  -1.642   3.073  0.00  0.00    +0.210 HD
ENDBRANCH  44  55
ENDBRANCH  39  40
ENDBRANCH  19  39
TORSDOF 16
