REMARK  Name = 
REMARK  5 active torsions:
REMARK  status: ('A' for Active; 'I' for Inactive)
REMARK    1  A    between atoms: C_1  and  C_2
REMARK    2  A    between atoms: C_4  and  O_5
REMARK    3  A    between atoms: O_5  and  C_6
REMARK    4  A    between atoms: C_6  and  C_7
REMARK    5  A    between atoms: C_14  and  C_15
REMARK                            x       y       z     vdW  Elec       q    Type
REMARK                         _______ _______ _______ _____ _____    ______ ____
ROOT
ATOM      1  O   UNL     1       5.197   2.445   0.195  0.00  0.00    -0.488 OA
ENDROOT
BRANCH   1   8
ATOM      2  C   UNL     1       0.998  -0.027   0.019  0.00  0.00    +0.044 C 
ATOM      3  C   UNL     1       2.498  -0.007   0.045  0.00  0.00    -0.047 A 
ATOM      4  C   UNL     1       3.204  -1.216   0.037  0.00  0.00    +0.007 A 
ATOM      5  C   UNL     1       4.603  -1.227   0.065  0.00  0.00    -0.047 A 
ATOM      6  C   UNL     1       5.341  -2.533   0.042  0.00  0.00    +0.044 C 
ATOM      7  C   UNL     1       5.297  -0.010   0.119  0.00  0.00    +0.049 A 
ATOM      8  C   UNL     1       4.608   1.206   0.148  0.00  0.00    +0.121 A 
ATOM      9  C   UNL     1       3.211   1.200   0.089  0.00  0.00    +0.049 A 
ENDBRANCH   1   8
BRANCH   1  10
ATOM     10  C   UNL     1       6.482   2.494   0.819  0.00  0.00    +0.275 C 
BRANCH  10  11
ATOM     11  C   UNL     1       7.059   3.900   0.719  0.00  0.00    +0.232 C 
ATOM     12  O   UNL     1       8.357   3.957   1.342  0.00  0.00    -0.442 OA
ATOM     13  C   UNL     1       8.499   5.205   1.879  0.00  0.00    +0.401 C 
ATOM     14  O   UNL     1       9.520   5.640   2.379  0.00  0.00    -0.226 OA
ATOM     15  N   UNL     1       7.311   5.879   1.796  0.00  0.00    -0.277 N 
ATOM     16  H   UNL     1       7.203   6.752   2.297  0.00  0.00    +0.152 HD
ATOM     17  C   UNL     1       6.270   4.972   1.436  0.00  0.00    +0.155 C 
ENDBRANCH  10  11
ENDBRANCH   1  10
TORSDOF 3
