REMARK  Name = 
REMARK  7 active torsions:
REMARK  status: ('A' for Active; 'I' for Inactive)
REMARK    1  A    between atoms: C_1  and  N_2
REMARK    2  A    between atoms: C_6  and  O_16
REMARK    3  A    between atoms: O_16  and  C_17
REMARK    4  A    between atoms: C_17  and  C_19
REMARK    5  A    between atoms: C_19  and  C_21
REMARK    6  A    between atoms: C_19  and  C_23
REMARK    7  A    between atoms: C_21  and  O_22
REMARK                            x       y       z     vdW  Elec       q    Type
REMARK                         _______ _______ _______ _____ _____    ______ ____
ROOT
ATOM      1  C   UNL     1      -0.000  -0.000  -0.000  0.00  0.00    +0.317 C 
ATOM      2  O   UNL     1      -0.000  -0.000  -0.000  0.00  0.00    -0.250 OA
ENDROOT
BRANCH   1   3
ATOM      3  O   UNL     1      -0.000  -0.000  -0.000  0.00  0.00    -0.461 OA
BRANCH   3  11
ATOM      4  C   UNL     1       0.000   0.000  -0.000  0.00  0.00    +0.105 C 
ATOM      5  N   UNL     1      -0.000  -0.000  -0.000  0.00  0.00    -0.294 NA
ATOM      6  C   UNL     1      -0.000  -0.000  -0.000  0.00  0.00    +0.092 C 
ATOM      7  C   UNL     1      -0.000  -0.000   0.000  0.00  0.00    +0.166 C 
ATOM      8  C   UNL     1      -0.000  -0.000  -0.000  0.00  0.00    +0.166 C 
ATOM      9  O   UNL     1      -0.000  -0.000  -0.000  0.00  0.00    -0.365 OA
ATOM     10  C   UNL     1      -0.000  -0.000  -0.000  0.00  0.00    +0.066 C 
ATOM     11  C   UNL     1      -0.000  -0.000  -0.000  0.00  0.00    +0.180 C 
ATOM     12  C   UNL     1      -0.000  -0.000   0.000  0.00  0.00    +0.066 C 
ATOM     13  C   UNL     1      -0.000  -0.000   0.000  0.00  0.00    +0.092 C 
ENDBRANCH   3  11
ENDBRANCH   1   3
BRANCH   1  14
ATOM     14  C   UNL     1      -0.000  -0.000  -0.000  0.00  0.00    +0.153 C 
BRANCH  14  15
ATOM     15  C   UNL     1      -0.000  -0.000  -0.000  0.00  0.00    -0.032 A 
ATOM     16  C   UNL     1      -0.000  -0.000  -0.000  0.00  0.00    +0.004 A 
ATOM     17  C   UNL     1      -0.000  -0.000  -0.000  0.00  0.00    +0.000 A 
ATOM     18  C   UNL     1      -0.000  -0.000  -0.000  0.00  0.00    +0.000 A 
ATOM     19  C   UNL     1      -0.000  -0.000  -0.000  0.00  0.00    +0.000 A 
ATOM     20  C   UNL     1      -0.000  -0.000  -0.000  0.00  0.00    +0.004 A 
ENDBRANCH  14  15
BRANCH  14  21
ATOM     21  C   UNL     1      -0.000  -0.000  -0.000  0.00  0.00    +0.175 C 
BRANCH  21  22
ATOM     22  O   UNL     1      -0.000  -0.000  -0.000  0.00  0.00    -0.394 OA
ATOM     23  H   UNL     1      -0.000  -0.000  -0.000  0.00  0.00    +0.209 HD
ENDBRANCH  21  22
ENDBRANCH  14  21
ENDBRANCH   1  14
TORSDOF 6
