REMARK  Name = 
REMARK  5 active torsions:
REMARK  status: ('A' for Active; 'I' for Inactive)
REMARK    1  A    between atoms: C_11  and  C_12
REMARK    2  A    between atoms: C_19  and  S_30
REMARK    3  A    between atoms: C_28  and  C_29
REMARK    4  A    between atoms: S_30  and  C_31
REMARK    5  A    between atoms: C_31  and  C_32
REMARK                            x       y       z     vdW  Elec       q    Type
REMARK                         _______ _______ _______ _____ _____    ______ ____
ROOT
ATOM      1  C   UNL     1      -0.000  -0.000  -0.000  0.00  0.00    +0.003 C 
ATOM      2  C   UNL     1      -0.000  -0.000  -0.000  0.00  0.00    +0.010 C 
ATOM      3  C   UNL     1      -0.000  -0.000  -0.000  0.00  0.00    +0.062 C 
ATOM      4  C   UNL     1      -0.000  -0.000  -0.000  0.00  0.00    +0.046 C 
ATOM      5  C   UNL     1      -0.000  -0.000   0.000  0.00  0.00    -0.059 C 
ATOM      6  C   UNL     1      -0.000  -0.000   0.000  0.00  0.00    -0.007 C 
ATOM      7  C   UNL     1      -0.000  -0.000   0.000  0.00  0.00    +0.016 C 
ATOM      8  C   UNL     1      -0.000  -0.000   0.000  0.00  0.00    +0.019 C 
ATOM      9  C   UNL     1      -0.000  -0.000  -0.000  0.00  0.00    +0.080 C 
ATOM     10  C   UNL     1      -0.000  -0.000   0.000  0.00  0.00    +0.156 C 
ATOM     11  O   UNL     1      -0.000  -0.000   0.000  0.00  0.00    -0.293 OA
ATOM     12  C   UNL     1      -0.000  -0.000   0.000  0.00  0.00    +0.046 C 
ATOM     13  C   UNL     1      -0.000  -0.000   0.000  0.00  0.00    +0.003 C 
ATOM     14  C   UNL     1      -0.000  -0.000   0.000  0.00  0.00    +0.005 C 
ATOM     15  C   UNL     1      -0.000  -0.000  -0.000  0.00  0.00    +0.011 C 
ATOM     16  C   UNL     1      -0.000  -0.000   0.000  0.00  0.00    +0.011 C 
ATOM     17  C   UNL     1      -0.000  -0.000   0.000  0.00  0.00    +0.015 C 
ATOM     18  C   UNL     1      -0.000  -0.000   0.000  0.00  0.00    +0.120 C 
ATOM     19  O   UNL     1      -0.000  -0.000  -0.000  0.00  0.00    -0.457 OA
ATOM     20  C   UNL     1      -0.000  -0.000   0.000  0.00  0.00    +0.308 C 
ATOM     21  O   UNL     1      -0.000  -0.000   0.000  0.00  0.00    -0.251 OA
ATOM     22  C   UNL     1      -0.000  -0.000   0.000  0.00  0.00    +0.124 C 
ATOM     23  C   UNL     1      -0.000  -0.000   0.000  0.00  0.00    +0.060 C 
ATOM     24  C   UNL     1      -0.000  -0.000   0.000  0.00  0.00    +0.049 C 
ATOM     25  C   UNL     1      -0.000  -0.000   0.000  0.00  0.00    +0.008 C 
ENDROOT
BRANCH   3  26
ATOM     26  S   UNL     1      -0.000  -0.000  -0.000  0.00  0.00    -0.084 S 
BRANCH  26  27
ATOM     27  C   UNL     1      -0.000  -0.000  -0.000  0.00  0.00    +0.187 C 
ATOM     28  O   UNL     1      -0.000  -0.000  -0.000  0.00  0.00    -0.286 OA
ATOM     29  C   UNL     1      -0.000  -0.000  -0.000  0.00  0.00    +0.099 C 
ENDBRANCH  26  27
ENDBRANCH   3  26
TORSDOF 2
