REMARK  Name = 
REMARK  7 active torsions:
REMARK  status: ('A' for Active; 'I' for Inactive)
REMARK    1  A    between atoms: C_1  and  O_2
REMARK    2  A    between atoms: O_2  and  C_3
REMARK    3  A    between atoms: C_5  and  O_6
REMARK    4  A    between atoms: O_6  and  C_7
REMARK    5  A    between atoms: C_16  and  C_18
REMARK    6  A    between atoms: C_23  and  O_24
REMARK    7  A    between atoms: O_24  and  C_25
REMARK                            x       y       z     vdW  Elec       q    Type
REMARK                         _______ _______ _______ _____ _____    ______ ____
ROOT
ATOM      1  C   UNL     1       3.210   0.823  -1.301  0.00  0.00    +0.138 A 
ATOM      2  C   UNL     1       3.853   0.646  -2.520  0.00  0.00    +0.107 A 
ATOM      3  C   UNL     1       4.229  -0.538  -3.289  0.00  0.00    +0.221 C 
ATOM      4  O   UNL     1       4.215  -1.684  -2.872  0.00  0.00    -0.287 OA
ATOM      5  C   UNL     1       4.546  -0.049  -4.717  0.00  0.00    +0.231 C 
ATOM      6  C   UNL     1       5.757  -0.572  -5.488  0.00  0.00    +0.152 C 
ATOM      7  C   UNL     1       5.734  -0.713  -6.825  0.00  0.00    +0.091 C 
ATOM      8  C   UNL     1       4.571  -0.247  -7.645  0.00  0.00    +0.160 C 
ATOM      9  O   UNL     1       4.563  -0.422  -8.857  0.00  0.00    -0.293 OA
ATOM     10  C   UNL     1       3.487   0.517  -6.926  0.00  0.00    +0.087 C 
ATOM     11  C   UNL     1       3.234  -0.148  -5.570  0.00  0.00    +0.053 C 
ATOM     12  C   UNL     1       2.688  -1.572  -5.776  0.00  0.00    +0.013 C 
ATOM     13  O   UNL     1       4.796   1.375  -4.511  0.00  0.00    -0.467 OA
ATOM     14  C   UNL     1       4.184   1.712  -3.331  0.00  0.00    +0.159 A 
ATOM     15  C   UNL     1       3.861   3.015  -2.994  0.00  0.00    +0.125 A 
ATOM     16 CL   UNL     1       4.264   4.320  -4.047  0.00  0.00    -0.076 Cl
ATOM     17  C   UNL     1       3.138   3.224  -1.813  0.00  0.00    +0.145 A 
ATOM     18  C   UNL     1       2.861   2.138  -0.959  0.00  0.00    +0.093 A 
ENDROOT
BRANCH   1  20
ATOM     19  C   UNL     1       2.590  -0.011   0.831  0.00  0.00    +0.277 C 
ATOM     20  O   UNL     1       2.902  -0.265  -0.541  0.00  0.00    -0.494 OA
ENDBRANCH   1  20
BRANCH   6  21
ATOM     21  O   UNL     1       7.025  -0.505  -4.919  0.00  0.00    -0.495 OA
ATOM     22  C   UNL     1       7.314  -1.280  -3.770  0.00  0.00    +0.276 C 
ENDBRANCH   6  21
BRANCH  17  23
ATOM     23  O   UNL     1       2.725   4.496  -1.501  0.00  0.00    -0.493 OA
ATOM     24  C   UNL     1       1.368   4.570  -1.062  0.00  0.00    +0.277 C 
ENDBRANCH  17  23
TORSDOF 3
