REMARK  Name = 
REMARK  18 active torsions:
REMARK  status: ('A' for Active; 'I' for Inactive)
REMARK    1  A    between atoms: N_3  and  C_4
REMARK    2  A    between atoms: C_7  and  O_8
REMARK    3  A    between atoms: O_8  and  C_9
REMARK    4  A    between atoms: C_10  and  C_37
REMARK    5  A    between atoms: C_20  and  C_21
REMARK    6  A    between atoms: C_21  and  C_22
REMARK    7  A    between atoms: C_23  and  O_25
REMARK    8  A    between atoms: O_25  and  C_26
REMARK    9  A    between atoms: C_26  and  C_27
REMARK   10  A    between atoms: C_29  and  O_30
REMARK   11  A    between atoms: C_29  and  C_31
REMARK   12  A    between atoms: C_31  and  O_33
REMARK   13  A    between atoms: O_33  and  C_34
REMARK   14  A    between atoms: C_37  and  C_58
REMARK   15  A    between atoms: C_44  and  C_45
REMARK   16  A    between atoms: C_45  and  C_46
REMARK   17  A    between atoms: C_58  and  O_60
REMARK   18  A    between atoms: O_60  and  C_61
REMARK                            x       y       z     vdW  Elec       q    Type
REMARK                         _______ _______ _______ _____ _____    ______ ____
ROOT
ATOM      1  C   UNL     1      -0.000  -0.000  -0.000  0.00  0.00    +0.132 C 
ATOM      2  C   UNL     1      -0.000  -0.000  -0.000  0.00  0.00    +0.219 C 
ATOM      3  C   UNL     1       0.000  -0.000  -0.000  0.00  0.00    +0.232 C 
ATOM      4  C   UNL     1      -0.000  -0.000   0.000  0.00  0.00    +0.045 C 
ATOM      5  C   UNL     1      -0.000  -0.000  -0.000  0.00  0.00    +0.083 C 
ATOM      6  N   UNL     1      -0.000  -0.000  -0.000  0.00  0.00    -0.294 NA
ATOM      7  C   UNL     1      -0.000  -0.000  -0.000  0.00  0.00    +0.111 C 
ATOM      8  C   UNL     1      -0.000  -0.000  -0.000  0.00  0.00    -0.015 C 
ATOM      9  C   UNL     1      -0.000  -0.000  -0.000  0.00  0.00    +0.086 C 
ATOM     10  C   UNL     1      -0.000  -0.000  -0.000  0.00  0.00    +0.030 C 
ATOM     11  C   UNL     1      -0.000  -0.000  -0.000  0.00  0.00    -0.018 C 
ATOM     12  C   UNL     1      -0.000  -0.000  -0.000  0.00  0.00    +0.037 C 
ATOM     13  C   UNL     1      -0.000  -0.000   0.000  0.00  0.00    -0.016 A 
ATOM     14  C   UNL     1      -0.000  -0.000   0.000  0.00  0.00    +0.037 A 
ATOM     15  C   UNL     1      -0.000  -0.000  -0.000  0.00  0.00    +0.069 A 
ATOM     16  C   UNL     1      -0.000  -0.000  -0.000  0.00  0.00    +0.126 A 
ATOM     17  C   UNL     1      -0.000  -0.000  -0.000  0.00  0.00    +0.017 A 
ATOM     18  C   UNL     1      -0.000  -0.000  -0.000  0.00  0.00    +0.014 A 
ATOM     19  N   UNL     1      -0.000  -0.000   0.000  0.00  0.00    -0.325 N 
ATOM     20  C   UNL     1      -0.000  -0.000   0.000  0.00  0.00    +0.129 C 
ENDROOT
BRANCH  17  21
ATOM     21  C   UNL     1      -0.000  -0.000  -0.000  0.00  0.00    +0.136 C 
ATOM     22  C   UNL     1      -0.000  -0.000  -0.000  0.00  0.00    +0.043 A 
ATOM     23  N   UNL     1      -0.000  -0.000  -0.000  0.00  0.00    -0.357 N 
ATOM     24  H   UNL     1      -0.000  -0.000  -0.000  0.00  0.00    +0.166 HD
ATOM     25  C   UNL     1      -0.000  -0.000  -0.000  0.00  0.00    +0.047 A 
ATOM     26  C   UNL     1      -0.000  -0.000   0.000  0.00  0.00    +0.004 A 
ATOM     27  C   UNL     1      -0.000  -0.000  -0.000  0.00  0.00    +0.010 A 
ATOM     28  C   UNL     1      -0.000  -0.000  -0.000  0.00  0.00    +0.001 A 
ATOM     29  C   UNL     1      -0.000  -0.000  -0.000  0.00  0.00    +0.002 A 
ATOM     30  C   UNL     1      -0.000  -0.000   0.000  0.00  0.00    +0.026 A 
ATOM     31  C   UNL     1      -0.000  -0.000  -0.000  0.00  0.00    -0.004 A 
ATOM     32  C   UNL     1      -0.000  -0.000  -0.000  0.00  0.00    +0.122 C 
ATOM     33  N   UNL     1      -0.000  -0.000   0.000  0.00  0.00    -0.294 NA
ATOM     34  C   UNL     1      -0.000  -0.000  -0.000  0.00  0.00    +0.115 C 
ATOM     35  C   UNL     1      -0.000  -0.000  -0.000  0.00  0.00    -0.059 C 
ATOM     36  C   UNL     1      -0.000  -0.000   0.000  0.00  0.00    -0.022 C 
ATOM     37  C   UNL     1      -0.000  -0.000  -0.000  0.00  0.00    +0.027 C 
ATOM     38  C   UNL     1      -0.000  -0.000  -0.000  0.00  0.00    +0.092 C 
ATOM     39  C   UNL     1      -0.000  -0.000  -0.000  0.00  0.00    +0.038 C 
BRANCH  21  40
ATOM     40  C   UNL     1      -0.000  -0.000  -0.000  0.00  0.00    +0.323 C 
ATOM     41  O   UNL     1      -0.000  -0.000  -0.000  0.00  0.00    -0.249 OA
BRANCH  40  42
ATOM     42  O   UNL     1      -0.000  -0.000  -0.000  0.00  0.00    -0.467 OA
ATOM     43  C   UNL     1      -0.000  -0.000  -0.000  0.00  0.00    +0.280 C 
ENDBRANCH  40  42
ENDBRANCH  21  40
BRANCH  35  44
ATOM     44  C   UNL     1      -0.000  -0.000  -0.000  0.00  0.00    +0.028 C 
ATOM     45  C   UNL     1      -0.000  -0.000  -0.000  0.00  0.00    +0.008 C 
ENDBRANCH  35  44
ENDBRANCH  17  21
BRANCH   2  46
ATOM     46  C   UNL     1      -0.000  -0.000  -0.000  0.00  0.00    +0.345 C 
ATOM     47  O   UNL     1      -0.000  -0.000   0.000  0.00  0.00    -0.247 OA
BRANCH  46  48
ATOM     48  O   UNL     1      -0.000  -0.000  -0.000  0.00  0.00    -0.466 OA
ATOM     49  C   UNL     1      -0.000  -0.000  -0.000  0.00  0.00    +0.280 C 
ENDBRANCH  46  48
ENDBRANCH   2  46
BRANCH   2  50
ATOM     50  O   UNL     1      -0.000  -0.000  -0.000  0.00  0.00    -0.373 OA
ATOM     51  H   UNL     1       0.000   0.000   0.000  0.00  0.00    +0.211 HD
ENDBRANCH   2  50
BRANCH   4  52
ATOM     52  C   UNL     1      -0.000  -0.000  -0.000  0.00  0.00    +0.013 C 
ATOM     53  C   UNL     1      -0.000  -0.000   0.000  0.00  0.00    +0.005 C 
ENDBRANCH   4  52
BRANCH  16  54
ATOM     54  O   UNL     1      -0.000  -0.000   0.000  0.00  0.00    -0.495 OA
ATOM     55  C   UNL     1      -0.000  -0.000   0.000  0.00  0.00    +0.277 C 
ENDBRANCH  16  54
BRANCH   3  56
ATOM     56  O   UNL     1      -0.000  -0.000   0.000  0.00  0.00    -0.457 OA
BRANCH  56  57
ATOM     57  C   UNL     1       0.000  -0.000  -0.000  0.00  0.00    +0.304 C 
ATOM     58  O   UNL     1       0.000  -0.000  -0.000  0.00  0.00    -0.251 OA
ATOM     59  C   UNL     1       0.000  -0.000  -0.000  0.00  0.00    +0.136 C 
ENDBRANCH  56  57
ENDBRANCH   3  56
TORSDOF 11
