REMARK  Name = 
REMARK  5 active torsions:
REMARK  status: ('A' for Active; 'I' for Inactive)
REMARK    1  A    between atoms: C_1  and  C_2
REMARK    2  A    between atoms: C_3  and  C_13
REMARK    3  A    between atoms: C_4  and  C_7
REMARK    4  A    between atoms: C_16  and  S_19
REMARK    5  A    between atoms: S_19  and  N_20
REMARK                            x       y       z     vdW  Elec       q    Type
REMARK                         _______ _______ _______ _____ _____    ______ ____
ROOT
ATOM      1  C   UNL     1       1.411   0.046   0.119  0.00  0.00    +0.090 C 
ATOM      2  C   UNL     1       2.874   0.234   0.011  0.00  0.00    +0.142 A 
ATOM      3  O   UNL     1       3.560  -0.933  -0.020  0.00  0.00    -0.359 OA
ATOM      4  N   UNL     1       4.900  -0.688  -0.094  0.00  0.00    -0.077 NA
ATOM      5  C   UNL     1       5.056   0.646  -0.120  0.00  0.00    +0.121 A 
ATOM      6  C   UNL     1       3.766   1.297  -0.054  0.00  0.00    +0.052 A 
ENDROOT
BRANCH   5   7
ATOM      7  C   UNL     1       6.423   1.181  -0.214  0.00  0.00    +0.004 A 
ATOM      8  C   UNL     1       6.709   2.369  -0.896  0.00  0.00    +0.010 A 
ATOM      9  C   UNL     1       8.024   2.840  -0.986  0.00  0.00    +0.001 A 
ATOM     10  C   UNL     1       9.073   2.114  -0.423  0.00  0.00    +0.000 A 
ATOM     11  C   UNL     1       8.810   0.918   0.236  0.00  0.00    +0.001 A 
ATOM     12  C   UNL     1       7.495   0.459   0.345  0.00  0.00    +0.010 A 
ENDBRANCH   5   7
BRANCH   6  13
ATOM     13  C   UNL     1       3.363   2.704   0.043  0.00  0.00    -0.012 A 
ATOM     14  C   UNL     1       2.159   3.158  -0.524  0.00  0.00    +0.010 A 
ATOM     15  C   UNL     1       1.688   4.455  -0.290  0.00  0.00    +0.029 A 
ATOM     16  C   UNL     1       2.464   5.345   0.453  0.00  0.00    +0.105 A 
ATOM     17  C   UNL     1       3.701   4.944   0.957  0.00  0.00    +0.029 A 
ATOM     18  C   UNL     1       4.135   3.626   0.768  0.00  0.00    +0.010 A 
BRANCH  16  19
ATOM     19  S   UNL     1       1.810   6.933   0.878  0.00  0.00    +0.056 S 
ATOM     20  O   UNL     1       2.524   7.447   2.024  0.00  0.00    -0.153 OA
ATOM     21  O   UNL     1       0.369   6.883   0.822  0.00  0.00    -0.153 OA
BRANCH  19  22
ATOM     22  N   UNL     1       2.290   7.884  -0.423  0.00  0.00    -0.204 NA
ATOM     23  H   UNL     1       2.922   8.614  -0.092  0.00  0.00    +0.144 HD
ATOM     24  H   UNL     1       1.461   8.249  -0.895  0.00  0.00    +0.144 HD
ENDBRANCH  19  22
ENDBRANCH  16  19
ENDBRANCH   6  13
TORSDOF 4
