REMARK  Name = 
REMARK  12 active torsions:
REMARK  status: ('A' for Active; 'I' for Inactive)
REMARK    1  A    between atoms: C_1  and  C_2
REMARK    2  A    between atoms: C_5  and  O_6
REMARK    3  A    between atoms: O_6  and  C_7
REMARK    4  A    between atoms: C_13  and  O_14
REMARK    5  A    between atoms: C_16  and  O_18
REMARK    6  A    between atoms: C_19  and  C_21
REMARK    7  A    between atoms: C_21  and  O_22
REMARK    8  A    between atoms: C_25  and  O_27
REMARK    9  A    between atoms: C_39  and  C_41
REMARK   10  A    between atoms: C_51  and  O_53
REMARK   11  A    between atoms: C_54  and  N_56
REMARK   12  A    between atoms: C_57  and  O_59
REMARK                            x       y       z     vdW  Elec       q    Type
REMARK                         _______ _______ _______ _____ _____    ______ ____
ROOT
ATOM      1  C   UNL     1      -0.000  -0.000  -0.000  0.00  0.00    +0.147 C 
ATOM      2  C   UNL     1      -0.000  -0.000  -0.000  0.00  0.00    +0.004 C 
ATOM      3  C   UNL     1      -0.000  -0.000  -0.000  0.00  0.00    -0.002 C 
ATOM      4  C   UNL     1      -0.000  -0.000  -0.000  0.00  0.00    -0.000 C 
ATOM      5  C   UNL     1      -0.000  -0.000  -0.000  0.00  0.00    -0.000 C 
ATOM      6  C   UNL     1      -0.000  -0.000  -0.000  0.00  0.00    -0.000 C 
ATOM      7  C   UNL     1      -0.000  -0.000  -0.000  0.00  0.00    -0.000 C 
ATOM      8  C   UNL     1      -0.000   0.000   0.000  0.00  0.00    -0.004 C 
ATOM      9  C   UNL     1      -0.000  -0.000  -0.000  0.00  0.00    -0.023 C 
ATOM     10  C   UNL     1      -0.000  -0.000  -0.000  0.00  0.00    +0.071 C 
ATOM     11  C   UNL     1      -0.000  -0.000  -0.000  0.00  0.00    +0.177 C 
ATOM     12  C   UNL     1      -0.000  -0.000  -0.000  0.00  0.00    +0.052 C 
ATOM     13  O   UNL     1      -0.000  -0.000  -0.000  0.00  0.00    -0.458 OA
ATOM     14  C   UNL     1      -0.000  -0.000  -0.000  0.00  0.00    +0.332 C 
ATOM     15  O   UNL     1      -0.000  -0.000  -0.000  0.00  0.00    -0.246 OA
ATOM     16  C   UNL     1      -0.000  -0.000  -0.000  0.00  0.00    +0.090 C 
ATOM     17  C   UNL     1      -0.000  -0.000  -0.000  0.00  0.00    +0.014 C 
ATOM     18  C   UNL     1      -0.000  -0.000  -0.000  0.00  0.00    +0.171 C 
ATOM     19  C   UNL     1      -0.000  -0.000  -0.000  0.00  0.00    +0.154 C 
ATOM     20  C   UNL     1      -0.000  -0.000  -0.000  0.00  0.00    +0.066 C 
ATOM     21  C   UNL     1      -0.000  -0.000  -0.000  0.00  0.00    +0.122 C 
ATOM     22  C   UNL     1      -0.000  -0.000  -0.000  0.00  0.00    +0.096 C 
ATOM     23  C   UNL     1      -0.000  -0.000  -0.000  0.00  0.00    +0.172 C 
ATOM     24  C   UNL     1      -0.000  -0.000  -0.000  0.00  0.00    +0.097 C 
ATOM     25  C   UNL     1      -0.000  -0.000  -0.000  0.00  0.00    +0.136 C 
ATOM     26  C   UNL     1      -0.000  -0.000  -0.000  0.00  0.00    +0.155 C 
ATOM     27  C   UNL     1      -0.000  -0.000  -0.000  0.00  0.00    +0.141 C 
ATOM     28  O   UNL     1      -0.000  -0.000  -0.000  0.00  0.00    -0.344 OA
ATOM     29  O   UNL     1      -0.000  -0.000  -0.000  0.00  0.00    -0.364 OA
ATOM     30  C   UNL     1      -0.000  -0.000  -0.000  0.00  0.00    +0.068 C 
ENDROOT
BRANCH  21  31
ATOM     31  O   UNL     1      -0.000  -0.000  -0.000  0.00  0.00    -0.392 OA
ATOM     32  H   UNL     1       0.000   0.000   0.000  0.00  0.00    +0.210 HD
ENDBRANCH  21  31
BRANCH  26  33
ATOM     33  C   UNL     1      -0.000  -0.000  -0.000  0.00  0.00    +0.313 C 
ATOM     34  O   UNL     1      -0.000  -0.000  -0.000  0.00  0.00    -0.251 OA
BRANCH  33  35
ATOM     35  O   UNL     1      -0.000  -0.000  -0.000  0.00  0.00    -0.480 OA
ATOM     36  H   UNL     1      -0.000  -0.000  -0.000  0.00  0.00    +0.295 HD
ENDBRANCH  33  35
ENDBRANCH  26  33
BRANCH  25  37
ATOM     37  O   UNL     1      -0.000  -0.000  -0.000  0.00  0.00    -0.391 OA
ATOM     38  H   UNL     1       0.000   0.000   0.000  0.00  0.00    +0.210 HD
ENDBRANCH  25  37
BRANCH  23  39
ATOM     39  O   UNL     1      -0.000  -0.000  -0.000  0.00  0.00    -0.364 OA
ATOM     40  H   UNL     1       0.000   0.000   0.000  0.00  0.00    +0.213 HD
ENDBRANCH  23  39
BRANCH   1  41
ATOM     41  O   UNL     1      -0.000  -0.000  -0.000  0.00  0.00    -0.341 OA
BRANCH  41  47
ATOM     42  C   UNL     1      -0.000  -0.000  -0.000  0.00  0.00    +0.041 C 
ATOM     43  C   UNL     1      -0.000  -0.000  -0.000  0.00  0.00    +0.148 C 
ATOM     44  C   UNL     1      -0.000  -0.000  -0.000  0.00  0.00    +0.162 C 
ATOM     45  C   UNL     1      -0.000  -0.000  -0.000  0.00  0.00    +0.116 C 
ATOM     46  C   UNL     1      -0.000  -0.000  -0.000  0.00  0.00    +0.189 C 
ATOM     47  C   UNL     1      -0.000  -0.000  -0.000  0.00  0.00    +0.281 C 
ATOM     48  O   UNL     1      -0.000  -0.000  -0.000  0.00  0.00    -0.343 OA
BRANCH  45  49
ATOM     49  N   UNL     1      -0.000  -0.000  -0.000  0.00  0.00    -0.323 NA
ATOM     50  H   UNL     1      -0.000  -0.000  -0.000  0.00  0.00    +0.119 HD
ATOM     51  H   UNL     1      -0.000  -0.000  -0.000  0.00  0.00    +0.119 HD
ENDBRANCH  45  49
BRANCH  44  52
ATOM     52  O   UNL     1      -0.000  -0.000  -0.000  0.00  0.00    -0.388 OA
ATOM     53  H   UNL     1      -0.000  -0.000  -0.000  0.00  0.00    +0.210 HD
ENDBRANCH  44  52
BRANCH  46  54
ATOM     54  O   UNL     1      -0.000  -0.000  -0.000  0.00  0.00    -0.385 OA
ATOM     55  H   UNL     1      -0.000  -0.000  -0.000  0.00  0.00    +0.210 HD
ENDBRANCH  46  54
ENDBRANCH  41  47
ENDBRANCH   1  41
TORSDOF 10
