REMARK  Name = 
REMARK  8 active torsions:
REMARK  status: ('A' for Active; 'I' for Inactive)
REMARK    1  A    between atoms: C_1  and  C_2
REMARK    2  A    between atoms: C_2  and  C_3
REMARK    3  A    between atoms: C_2  and  N_4
REMARK    4  A    between atoms: N_7  and  S_8
REMARK    5  A    between atoms: S_8  and  C_11
REMARK    6  A    between atoms: C_12  and  N_13
REMARK    7  A    between atoms: N_13  and  C_14
REMARK    8  A    between atoms: C_18  and  C_19
REMARK                            x       y       z     vdW  Elec       q    Type
REMARK                         _______ _______ _______ _____ _____    ______ ____
ROOT
ATOM      1  C   UNL     1       6.827   4.201   2.829  0.00  0.00    +0.148 A 
ATOM      2  C   UNL     1       7.758   4.210   3.859  0.00  0.00    +0.141 A 
ATOM      3  N   UNL     1       7.971   5.254   4.693  0.00  0.00    -0.261 NA
ATOM      4  C   UNL     1       7.193   6.333   4.503  0.00  0.00    +0.112 A 
ATOM      5  C   UNL     1       6.251   6.424   3.492  0.00  0.00    +0.045 A 
ATOM      6  C   UNL     1       6.072   5.358   2.592  0.00  0.00    +0.061 A 
ENDROOT
BRANCH   1   7
ATOM      7  S   UNL     1       6.645   2.753   1.843  0.00  0.00    +0.079 S 
ATOM      8  O   UNL     1       5.248   2.377   1.826  0.00  0.00    -0.150 OA
ATOM      9  O   UNL     1       7.338   3.024   0.601  0.00  0.00    -0.150 OA
BRANCH   7  13
ATOM     10  N   UNL     1       8.180   0.126   4.276  0.00  0.00    -0.296 N 
ATOM     11  H   UNL     1       8.886  -0.221   3.646  0.00  0.00    +0.151 HD
ATOM     12  C   UNL     1       7.242   1.006   3.810  0.00  0.00    +0.319 C 
ATOM     13  N   UNL     1       7.541   1.542   2.570  0.00  0.00    -0.169 N 
ATOM     14  H   UNL     1       8.367   1.283   2.045  0.00  0.00    +0.178 HD
ATOM     15  O   UNL     1       6.266   1.359   4.455  0.00  0.00    -0.251 OA
BRANCH  10  17
ATOM     16  C   UNL     1       7.175  -1.797   5.420  0.00  0.00    +0.027 C 
ATOM     17  C   UNL     1       7.996  -0.521   5.570  0.00  0.00    +0.068 C 
ATOM     18  C   UNL     1       9.337  -0.804   6.238  0.00  0.00    +0.027 C 
ENDBRANCH  10  17
ENDBRANCH   7  13
ENDBRANCH   1   7
BRANCH   6  19
ATOM     19  N   UNL     1       5.165   5.502   1.518  0.00  0.00    -0.313 N 
ATOM     20  H   UNL     1       5.003   4.676   0.946  0.00  0.00    +0.152 HD
BRANCH  19  21
ATOM     21  C   UNL     1       4.792   6.680   0.830  0.00  0.00    +0.032 A 
ATOM     22  C   UNL     1       5.671   7.758   0.661  0.00  0.00    +0.026 A 
ATOM     23  C   UNL     1       5.267   8.939   0.022  0.00  0.00    -0.049 A 
ATOM     24  C   UNL     1       6.231  10.082  -0.098  0.00  0.00    +0.044 C 
ATOM     25  C   UNL     1       3.962   9.035  -0.466  0.00  0.00    +0.003 A 
ATOM     26  C   UNL     1       3.083   7.960  -0.330  0.00  0.00    +0.002 A 
ATOM     27  C   UNL     1       3.497   6.789   0.311  0.00  0.00    +0.023 A 
ENDBRANCH  19  21
ENDBRANCH   6  19
TORSDOF 5
