REMARK  Name = 
REMARK  5 active torsions:
REMARK  status: ('A' for Active; 'I' for Inactive)
REMARK    1  A    between atoms: C_2  and  C_4
REMARK    2  A    between atoms: C_4  and  S_5
REMARK    3  A    between atoms: S_5  and  C_7
REMARK    4  A    between atoms: C_7  and  C_8
REMARK    5  A    between atoms: C_7  and  C_14
REMARK                            x       y       z     vdW  Elec       q    Type
REMARK                         _______ _______ _______ _____ _____    ______ ____
ROOT
ATOM      1  C   UNL     1       5.952   1.758  -1.469  0.00  0.00    +0.139 C 
ENDROOT
BRANCH   1   2
ATOM      2  C   UNL     1       7.468   1.585  -1.338  0.00  0.00    -0.028 A 
ATOM      3  C   UNL     1       8.128   1.704  -0.100  0.00  0.00    +0.005 A 
ATOM      4  C   UNL     1       9.492   1.433   0.021  0.00  0.00    +0.000 A 
ATOM      5  C   UNL     1      10.225   1.044  -1.095  0.00  0.00    +0.000 A 
ATOM      6  C   UNL     1       9.598   0.944  -2.334  0.00  0.00    +0.000 A 
ATOM      7  C   UNL     1       8.233   1.218  -2.459  0.00  0.00    +0.005 A 
ENDBRANCH   1   2
BRANCH   1   8
ATOM      8  C   UNL     1       5.487   3.207  -1.360  0.00  0.00    -0.028 A 
ATOM      9  C   UNL     1       5.025   3.874  -2.514  0.00  0.00    +0.005 A 
ATOM     10  C   UNL     1       4.646   5.218  -2.470  0.00  0.00    +0.000 A 
ATOM     11  C   UNL     1       4.726   5.928  -1.277  0.00  0.00    +0.000 A 
ATOM     12  C   UNL     1       5.175   5.289  -0.124  0.00  0.00    +0.000 A 
ATOM     13  C   UNL     1       5.544   3.940  -0.162  0.00  0.00    +0.005 A 
ENDBRANCH   1   8
BRANCH   1  14
ATOM     14  S   UNL     1       5.103   0.578  -0.316  0.00  0.00    +0.043 S 
ATOM     15  O   UNL     1       5.524  -0.815  -0.704  0.00  0.00    -0.256 OA
BRANCH  14  16
ATOM     16  C   UNL     1       3.405   0.781  -0.914  0.00  0.00    +0.200 C 
BRANCH  16  20
ATOM     17  N   UNL     1       2.738  -1.552  -0.612  0.00  0.00    -0.329 N 
ATOM     18  H   UNL     1       3.680  -1.810  -0.899  0.00  0.00    +0.145 HD
ATOM     19  H   UNL     1       2.247  -2.249  -0.058  0.00  0.00    +0.145 HD
ATOM     20  C   UNL     1       2.516  -0.251  -0.248  0.00  0.00    +0.223 C 
ATOM     21  O   UNL     1       1.629   0.040   0.547  0.00  0.00    -0.275 OA
ENDBRANCH  16  20
ENDBRANCH  14  16
ENDBRANCH   1  14
TORSDOF 5
