REMARK  Name = 
REMARK  9 active torsions:
REMARK  status: ('A' for Active; 'I' for Inactive)
REMARK    1  A    between atoms: O_1  and  C_2
REMARK    2  A    between atoms: C_5  and  C_8
REMARK    3  A    between atoms: C_9  and  C_10
REMARK    4  A    between atoms: C_10  and  C_12
REMARK    5  A    between atoms: C_15  and  O_16
REMARK    6  A    between atoms: O_16  and  C_17
REMARK    7  A    between atoms: C_17  and  C_18
REMARK    8  A    between atoms: C_18  and  N_19
REMARK    9  A    between atoms: C_31  and  O_32
REMARK                            x       y       z     vdW  Elec       q    Type
REMARK                         _______ _______ _______ _____ _____    ______ ____
ROOT
ATOM      1  C   UNL     1       4.578  -1.735  -1.106  0.00  0.00    +0.031 A 
ATOM      2  S   UNL     1       3.052  -2.081  -0.387  0.00  0.00    -0.087 S 
ATOM      3  C   UNL     1       3.718  -3.035   0.854  0.00  0.00    +0.024 A 
ATOM      4  C   UNL     1       2.992  -3.625   1.909  0.00  0.00    +0.061 A 
ATOM      5  C   UNL     1       3.688  -4.377   2.846  0.00  0.00    +0.118 A 
ATOM      6  C   UNL     1       5.060  -4.516   2.771  0.00  0.00    +0.046 A 
ATOM      7  C   UNL     1       5.772  -3.908   1.728  0.00  0.00    +0.013 A 
ATOM      8  C   UNL     1       5.099  -3.170   0.716  0.00  0.00    +0.001 A 
ATOM      9  C   UNL     1       5.590  -2.471  -0.471  0.00  0.00    +0.045 A 
ENDROOT
BRANCH   1  13
ATOM     10  C   UNL     1       4.357   0.855  -4.560  0.00  0.00    +0.117 A 
ATOM     11  C   UNL     1       3.522   1.072  -3.478  0.00  0.00    +0.046 A 
ATOM     12  C   UNL     1       3.638   0.262  -2.342  0.00  0.00    +0.012 A 
ATOM     13  C   UNL     1       4.562  -0.806  -2.277  0.00  0.00    -0.010 A 
ATOM     14  C   UNL     1       5.412  -0.975  -3.382  0.00  0.00    +0.012 A 
ATOM     15  C   UNL     1       5.320  -0.147  -4.513  0.00  0.00    +0.046 A 
BRANCH  10  16
ATOM     16  O   UNL     1       4.196   1.648  -5.656  0.00  0.00    -0.507 OA
ATOM     17  H   UNL     1       4.797   1.340  -6.354  0.00  0.00    +0.292 HD
ENDBRANCH  10  16
ENDBRANCH   1  13
BRANCH   5  18
ATOM     18  O   UNL     1       3.037  -4.992   3.876  0.00  0.00    -0.507 OA
ATOM     19  H   UNL     1       2.082  -4.814   3.793  0.00  0.00    +0.292 HD
ENDBRANCH   5  18
BRANCH   9  20
ATOM     20  C   UNL     1       6.994  -2.392  -0.874  0.00  0.00    +0.195 C 
ATOM     21  O   UNL     1       7.488  -1.313  -1.195  0.00  0.00    -0.287 OA
BRANCH  20  22
ATOM     22  C   UNL     1       7.902  -3.585  -0.924  0.00  0.00    +0.023 A 
ATOM     23  C   UNL     1       7.512  -4.933  -1.020  0.00  0.00    +0.015 A 
ATOM     24  C   UNL     1       8.488  -5.955  -1.164  0.00  0.00    +0.046 A 
ATOM     25  C   UNL     1       9.846  -5.639  -1.228  0.00  0.00    +0.121 A 
ATOM     26  C   UNL     1      10.218  -4.294  -1.137  0.00  0.00    +0.046 A 
ATOM     27  C   UNL     1       9.267  -3.293  -0.958  0.00  0.00    +0.015 A 
BRANCH  25  28
ATOM     28  O   UNL     1      10.756  -6.682  -1.365  0.00  0.00    -0.491 OA
BRANCH  28  29
ATOM     29  C   UNL     1      12.099  -6.245  -1.093  0.00  0.00    +0.244 C 
BRANCH  29  30
ATOM     30  C   UNL     1      13.167  -7.325  -0.862  0.00  0.00    +0.125 C 
BRANCH  30  31
ATOM     31  N   UNL     1      14.420  -6.717  -0.326  0.00  0.00    -0.299 NA
ATOM     32  C   UNL     1      15.481  -7.703  -0.074  0.00  0.00    +0.084 C 
ATOM     33  C   UNL     1      15.235  -8.596   1.149  0.00  0.00    +0.015 C 
ATOM     34  C   UNL     1      14.761  -7.834   2.390  0.00  0.00    +0.002 C 
ATOM     35  C   UNL     1      13.730  -6.762   2.061  0.00  0.00    +0.015 C 
ATOM     36  C   UNL     1      14.237  -5.915   0.897  0.00  0.00    +0.084 C 
ENDBRANCH  30  31
ENDBRANCH  29  30
ENDBRANCH  28  29
ENDBRANCH  25  28
ENDBRANCH  20  22
ENDBRANCH   9  20
TORSDOF 9
