REMARK  Name = 
REMARK  9 active torsions:
REMARK  status: ('A' for Active; 'I' for Inactive)
REMARK    1  A    between atoms: C_4  and  C_5
REMARK    2  A    between atoms: C_4  and  C_6
REMARK    3  A    between atoms: CA_7  and  C_30
REMARK    4  A    between atoms: CA_12  and  N_14
REMARK    5  A    between atoms: C_15  and  C_17
REMARK    6  A    between atoms: C_18  and  O_19
REMARK    7  A    between atoms: O_19  and  C_20
REMARK    8  A    between atoms: C_20  and  C_21
REMARK    9  A    between atoms: C_30  and  O_31
REMARK                            x       y       z     vdW  Elec       q    Type
REMARK                         _______ _______ _______ _____ _____    ______ ____
ROOT
ATOM      1  N   UNL     1       3.393  -0.945   2.306  0.00  0.00    -0.298 N 
ATOM      2  H   UNL     1       4.089  -0.207   2.356  0.00  0.00    +0.150 HD
ATOM      3  C   UNL     1       2.955  -1.447   3.514  0.00  0.00    +0.249 C 
ATOM      4  O   UNL     1       2.020  -2.231   3.599  0.00  0.00    -0.270 OA
ENDROOT
BRANCH   1   6
ATOM      5  C   UNL     1       3.786  -1.478  -0.174  0.00  0.00    +0.165 C 
ATOM      6  CA  UNL     1       2.775  -1.269   0.991  0.00  0.00    +0.190 C 
ATOM      7  C   UNL     1       2.335  -2.733   0.656  0.00  0.00    +0.240 C 
ATOM      8  O   UNL     1       1.639  -3.619   1.084  0.00  0.00    -0.273 OA
ATOM      9  N   UNL     1       3.179  -2.797  -0.428  0.00  0.00    -0.271 N 
ATOM     10  CA  UNL     1       4.094  -3.945  -0.544  0.00  0.00    +0.201 C 
ATOM     11  C   UNL     1       5.329  -3.642   0.338  0.00  0.00    +0.042 C 
ATOM     12  C   UNL     1       5.087  -4.019   1.813  0.00  0.00    +0.025 C 
ATOM     13  C   UNL     1       6.629  -4.333  -0.087  0.00  0.00    +0.025 C 
ATOM     14  S   UNL     1       5.539  -1.803   0.264  0.00  0.00    -0.127 S 
BRANCH  10  15
ATOM     15  C   UNL     1       4.367  -4.173  -2.044  0.00  0.00    +0.327 C 
ATOM     16  OXT UNL     1       5.170  -4.978  -2.493  0.00  0.00    -0.249 OA
BRANCH  15  17
ATOM     17  O   UNL     1       3.553  -3.454  -2.857  0.00  0.00    -0.479 OA
ATOM     18  H   UNL     1       2.898  -2.966  -2.316  0.00  0.00    +0.295 HD
ENDBRANCH  15  17
ENDBRANCH  10  15
ENDBRANCH   1   6
BRANCH   3  19
ATOM     19  C   UNL     1       3.689  -0.983   4.739  0.00  0.00    +0.086 A 
ATOM     20  C   UNL     1       3.948  -1.904   5.809  0.00  0.00    -0.002 A 
ATOM     21  C   UNL     1       4.539  -1.399   6.994  0.00  0.00    -0.017 A 
ATOM     22  C   UNL     1       4.760  -2.235   8.103  0.00  0.00    +0.008 A 
ATOM     23  C   UNL     1       4.421  -3.583   8.064  0.00  0.00    +0.001 A 
ATOM     24  C   UNL     1       3.888  -4.119   6.901  0.00  0.00    +0.001 A 
ATOM     25  C   UNL     1       4.904  -0.053   7.077  0.00  0.00    +0.012 A 
ATOM     26  C   UNL     1       4.672   0.825   6.020  0.00  0.00    +0.047 A 
ATOM     27  C   UNL     1       3.664  -3.297   5.791  0.00  0.00    +0.009 A 
ATOM     28  C   UNL     1       4.049   0.381   4.855  0.00  0.00    +0.133 A 
BRANCH  28  29
ATOM     29  O   UNL     1       3.752   1.211   3.800  0.00  0.00    -0.491 OA
BRANCH  29  30
ATOM     30  C   UNL     1       3.980   2.611   3.969  0.00  0.00    +0.226 C 
ATOM     31  C   UNL     1       3.441   3.330   2.746  0.00  0.00    +0.048 C 
ENDBRANCH  29  30
ENDBRANCH  28  29
ENDBRANCH   3  19
TORSDOF 6
