REMARK  Name = 
REMARK  11 active torsions:
REMARK  status: ('A' for Active; 'I' for Inactive)
REMARK    1  A    between atoms: C_1  and  C_2
REMARK    2  A    between atoms: C_2  and  C_4
REMARK    3  A    between atoms: C_2  and  C_13
REMARK    4  A    between atoms: C_4  and  C_5
REMARK    5  A    between atoms: C_7  and  O_8
REMARK    6  A    between atoms: C_9  and  O_10
REMARK    7  A    between atoms: C_13  and  C_15
REMARK    8  A    between atoms: C_13  and  C_16
REMARK    9  A    between atoms: C_16  and  C_17
REMARK   10  A    between atoms: C_19  and  O_20
REMARK   11  A    between atoms: C_21  and  O_22
REMARK                            x       y       z     vdW  Elec       q    Type
REMARK                         _______ _______ _______ _____ _____    ______ ____
ROOT
ATOM      1  C   UNL     1       2.592   2.677   0.618  0.00  0.00    +0.008 C 
ATOM      2  C   UNL     1       2.253   1.545   1.605  0.00  0.00    -0.007 C 
ENDROOT
BRANCH   2   3
ATOM      3  C   UNL     1       3.145   0.276   1.390  0.00  0.00    -0.007 C 
ATOM      4  C   UNL     1       2.817  -0.812   2.432  0.00  0.00    +0.008 C 
BRANCH   3   5
ATOM      5  C   UNL     1       4.667   0.586   1.433  0.00  0.00    +0.038 C 
BRANCH   5   6
ATOM      6  C   UNL     1       5.535  -0.606   1.083  0.00  0.00    -0.043 A 
ATOM      7  C   UNL     1       5.409  -1.225  -0.176  0.00  0.00    +0.007 A 
ATOM      8  C   UNL     1       6.162  -2.355  -0.493  0.00  0.00    +0.049 A 
ATOM      9  C   UNL     1       7.054  -2.854   0.439  0.00  0.00    +0.158 A 
ATOM     10  C   UNL     1       7.206  -2.242   1.681  0.00  0.00    +0.158 A 
ATOM     11  C   UNL     1       6.457  -1.117   2.010  0.00  0.00    +0.052 A 
BRANCH   9  12
ATOM     12  O   UNL     1       7.787  -3.965   0.131  0.00  0.00    -0.503 OA
ATOM     13  H   UNL     1       8.332  -4.124   0.927  0.00  0.00    +0.292 HD
ENDBRANCH   9  12
BRANCH  10  14
ATOM     14  O   UNL     1       8.102  -2.794   2.555  0.00  0.00    -0.503 OA
ATOM     15  H   UNL     1       8.074  -2.279   3.380  0.00  0.00    +0.292 HD
ENDBRANCH  10  14
ENDBRANCH   5   6
ENDBRANCH   3   5
ENDBRANCH   2   3
BRANCH   2  16
ATOM     16  C   UNL     1       0.747   1.177   1.485  0.00  0.00    +0.038 C 
BRANCH  16  17
ATOM     17  C   UNL     1      -0.193   2.321   1.776  0.00  0.00    -0.043 A 
ATOM     18  C   UNL     1      -0.507   2.651   3.105  0.00  0.00    +0.007 A 
ATOM     19  C   UNL     1      -1.320   3.747   3.389  0.00  0.00    +0.049 A 
ATOM     20  C   UNL     1      -1.809   4.514   2.343  0.00  0.00    +0.158 A 
ATOM     21  C   UNL     1      -1.525   4.185   1.022  0.00  0.00    +0.158 A 
ATOM     22  C   UNL     1      -0.730   3.084   0.727  0.00  0.00    +0.052 A 
BRANCH  20  23
ATOM     23  O   UNL     1      -2.565   5.616   2.622  0.00  0.00    -0.503 OA
ATOM     24  H   UNL     1      -2.747   6.011   1.747  0.00  0.00    +0.292 HD
ENDBRANCH  20  23
BRANCH  21  25
ATOM     25  O   UNL     1      -2.039   4.986   0.039  0.00  0.00    -0.503 OA
ATOM     26  H   UNL     1      -1.765   4.621  -0.820  0.00  0.00    +0.292 HD
ENDBRANCH  21  25
ENDBRANCH  16  17
ENDBRANCH   2  16
TORSDOF 9
