REMARK  Name = 
REMARK  18 active torsions:
REMARK  status: ('A' for Active; 'I' for Inactive)
REMARK    1  A    between atoms: C_2  and  C_4
REMARK    2  A    between atoms: N_6  and  C_10
REMARK    3  A    between atoms: C_13  and  C_15
REMARK    4  A    between atoms: C_15  and  O_16
REMARK    5  A    between atoms: O_16  and  P_17
REMARK    6  A    between atoms: P_17  and  O_18
REMARK    7  A    between atoms: P_17  and  O_20
REMARK    8  A    between atoms: O_20  and  P_21
REMARK    9  A    between atoms: P_21  and  O_22
REMARK   10  A    between atoms: P_21  and  O_24
REMARK   11  A    between atoms: O_24  and  C_25
REMARK   12  A    between atoms: C_25  and  C_26
REMARK   13  A    between atoms: C_29  and  N_37
REMARK   14  A    between atoms: C_31  and  O_33
REMARK   15  A    between atoms: C_34  and  O_36
REMARK   16  A    between atoms: C_41  and  N_42
REMARK   17  A    between atoms: C_47  and  O_49
REMARK   18  A    between atoms: C_50  and  O_52
REMARK                            x       y       z     vdW  Elec       q    Type
REMARK                         _______ _______ _______ _____ _____    ______ ____
ROOT
ATOM      1  O   UNL     1       8.737   4.411   9.387  0.00  0.00    -0.186 OA
ENDROOT
BRANCH   1   2
ATOM      2  P   UNL     1       7.501   5.277   8.879  0.00  0.00    +0.483 P 
ATOM      3  O   UNL     1       7.457   5.594   7.422  0.00  0.00    -0.227 OA
BRANCH   2   4
ATOM      4  O   UNL     1       7.511   6.603   9.774  0.00  0.00    -0.302 OA
ATOM      5  H   UNL     1       6.814   7.225   9.497  0.00  0.00    +0.222 HD
ENDBRANCH   2   4
BRANCH   2   6
ATOM      6  O   UNL     1       6.218   4.500   9.445  0.00  0.00    -0.284 OA
BRANCH   6   7
ATOM      7  C   UNL     1       5.793   3.324   8.762  0.00  0.00    +0.206 C 
BRANCH   7  11
ATOM      8  C   UNL     1       6.287   0.705  10.527  0.00  0.00    +0.241 C 
ATOM      9  C   UNL     1       5.864   0.030   9.205  0.00  0.00    +0.193 C 
ATOM     10  C   UNL     1       6.395   0.930   8.093  0.00  0.00    +0.178 C 
ATOM     11  C   UNL     1       6.841   2.199   8.800  0.00  0.00    +0.178 C 
ATOM     12  O   UNL     1       7.159   1.795  10.141  0.00  0.00    -0.348 OA
BRANCH   8  17
ATOM     13  C   UNL     1       2.825   1.029  11.968  0.00  0.00    +0.032 C 
ATOM     14  C   UNL     1       2.790   2.509  12.269  0.00  0.00    +0.070 C 
ATOM     15  C   UNL     1       4.172   3.072  12.484  0.00  0.00    -0.007 C 
ATOM     16  C   UNL     1       5.240   2.410  12.019  0.00  0.00    +0.073 C 
ATOM     17  N   UNL     1       5.139   1.209  11.315  0.00  0.00    -0.285 N 
ATOM     18  C   UNL     1       3.956   0.474  11.490  0.00  0.00    +0.086 C 
BRANCH  13  22
ATOM     19  N   UNL     1       1.711  -1.013  12.618  0.00  0.00    -0.326 N 
ATOM     20  H   UNL     1       2.605  -1.422  12.846  0.00  0.00    +0.145 HD
ATOM     21  H   UNL     1       0.878  -1.468  12.968  0.00  0.00    +0.145 HD
ATOM     22  C   UNL     1       1.573   0.284  12.239  0.00  0.00    +0.239 C 
ATOM     23  O   UNL     1       0.477   0.830  12.228  0.00  0.00    -0.271 OA
ENDBRANCH  13  22
ENDBRANCH   8  17
BRANCH  10  24
ATOM     24  O   UNL     1       7.503   0.277   7.446  0.00  0.00    -0.386 OA
ATOM     25  H   UNL     1       8.337   0.652   7.786  0.00  0.00    +0.210 HD
ENDBRANCH  10  24
BRANCH   9  26
ATOM     26  O   UNL     1       6.410  -1.297   9.113  0.00  0.00    -0.385 OA
ATOM     27  H   UNL     1       7.242  -1.205   8.604  0.00  0.00    +0.210 HD
ENDBRANCH   9  26
ENDBRANCH   7  11
ENDBRANCH   6   7
ENDBRANCH   2   6
ENDBRANCH   1   2
BRANCH   1  28
ATOM     28  P   UNL     1      10.230   4.964   9.144  0.00  0.00    +0.483 P 
ATOM     29  O   UNL     1      11.248   3.956   9.679  0.00  0.00    -0.227 OA
BRANCH  28  30
ATOM     30  O   UNL     1      10.314   4.122   7.635  0.00  0.00    -0.302 OA
ATOM     31  H   UNL     1      11.132   3.589   7.724  0.00  0.00    +0.222 HD
ENDBRANCH  28  30
BRANCH  28  32
ATOM     32  O   UNL     1      10.146   5.806  10.653  0.00  0.00    -0.284 OA
BRANCH  32  33
ATOM     33  C   UNL     1      11.275   6.607  11.001  0.00  0.00    +0.206 C 
BRANCH  33  34
ATOM     34  C   UNL     1      11.572   7.698   9.966  0.00  0.00    +0.178 C 
ATOM     35  C   UNL     1      12.677   8.653  10.404  0.00  0.00    +0.178 C 
ATOM     36  C   UNL     1      12.233  10.037   9.902  0.00  0.00    +0.195 C 
ATOM     37  C   UNL     1      10.894   9.769   9.208  0.00  0.00    +0.253 C 
ATOM     38  O   UNL     1      10.418   8.511   9.734  0.00  0.00    -0.346 OA
BRANCH  37  39
ATOM     39  N   UNL     1       9.820  10.733   9.353  0.00  0.00    -0.286 N 
ATOM     40  C   UNL     1       9.882  12.097   9.481  0.00  0.00    +0.167 A 
ATOM     41  C   UNL     1       8.551  12.512   9.474  0.00  0.00    +0.147 A 
ATOM     42  C   UNL     1       8.292  13.894   9.607  0.00  0.00    +0.147 A 
ATOM     43  N   UNL     1       9.346  14.720   9.755  0.00  0.00    -0.219 NA
ATOM     44  C   UNL     1      10.592  14.187   9.733  0.00  0.00    +0.225 A 
ATOM     45  N   UNL     1       7.696  11.441   9.332  0.00  0.00    -0.231 NA
ATOM     46  N   UNL     1      10.962  12.889   9.592  0.00  0.00    -0.216 NA
ATOM     47  C   UNL     1       8.489  10.400   9.241  0.00  0.00    +0.203 A 
BRANCH  42  48
ATOM     48  N   UNL     1       7.011  14.409   9.611  0.00  0.00    -0.341 N 
ATOM     49  H   UNL     1       6.941  15.292  10.093  0.00  0.00    +0.144 HD
ATOM     50  H   UNL     1       6.295  13.710   9.812  0.00  0.00    +0.144 HD
ENDBRANCH  42  48
ENDBRANCH  37  39
BRANCH  35  51
ATOM     51  O   UNL     1      13.924   8.230   9.858  0.00  0.00    -0.386 OA
ATOM     52  H   UNL     1      14.349   9.036   9.497  0.00  0.00    +0.210 HD
ENDBRANCH  35  51
BRANCH  36  53
ATOM     53  O   UNL     1      13.226  10.575   9.018  0.00  0.00    -0.385 OA
ATOM     54  H   UNL     1      12.940  11.484   8.792  0.00  0.00    +0.210 HD
ENDBRANCH  36  53
ENDBRANCH  33  34
ENDBRANCH  32  33
ENDBRANCH  28  32
ENDBRANCH   1  28
TORSDOF 18
