REMARK  Name = 
REMARK  11 active torsions:
REMARK  status: ('A' for Active; 'I' for Inactive)
REMARK    1  A    between atoms: C_1  and  C_2
REMARK    2  A    between atoms: C_2  and  O_4
REMARK    3  A    between atoms: O_4  and  C_5
REMARK    4  A    between atoms: C_5  and  C_6
REMARK    5  A    between atoms: C_6  and  C_7
REMARK    6  A    between atoms: C_6  and  C_19
REMARK    7  A    between atoms: C_7  and  C_8
REMARK    8  A    between atoms: C_8  and  N_9
REMARK    9  A    between atoms: C_19  and  O_20
REMARK   10  A    between atoms: O_20  and  C_21
REMARK   11  A    between atoms: C_21  and  C_22
REMARK                            x       y       z     vdW  Elec       q    Type
REMARK                         _______ _______ _______ _____ _____    ______ ____
ROOT
ATOM      1  C   UNL     1       5.038   4.894   0.559  0.00  0.00    +0.125 C 
ENDROOT
BRANCH   1   2
ATOM      2  N   UNL     1       4.481   5.707   1.617  0.00  0.00    -0.315 N 
ATOM      3  C   UNL     1       5.105   6.004   2.797  0.00  0.00    +0.165 A 
ATOM      4  C   UNL     1       4.259   6.905   3.420  0.00  0.00    +0.126 A 
ATOM      5  C   UNL     1       4.691   7.381   4.650  0.00  0.00    +0.145 A 
ATOM      6  N   UNL     1       5.887   6.963   5.144  0.00  0.00    -0.221 NA
ATOM      7  C   UNL     1       6.625   6.102   4.420  0.00  0.00    +0.215 A 
ATOM      8  N   UNL     1       7.843   5.739   4.957  0.00  0.00    -0.327 N 
ATOM      9  H   UNL     1       8.129   4.834   4.615  0.00  0.00    +0.145 HD
ATOM     10  H   UNL     1       7.834   5.885   5.956  0.00  0.00    +0.145 HD
ATOM     11  N   UNL     1       3.144   7.150   2.652  0.00  0.00    -0.233 NA
ATOM     12  N   UNL     1       6.287   5.553   3.243  0.00  0.00    -0.195 NA
ATOM     13  C   UNL     1       3.318   6.425   1.565  0.00  0.00    +0.201 A 
ENDBRANCH   1   2
BRANCH   1  14
ATOM     14  C   UNL     1       4.657   3.418   0.674  0.00  0.00    +0.032 C 
BRANCH  14  15
ATOM     15  C   UNL     1       5.198   2.527  -0.473  0.00  0.00    +0.066 C 
BRANCH  15  16
ATOM     16  C   UNL     1       4.662   1.090  -0.323  0.00  0.00    +0.239 C 
BRANCH  16  17
ATOM     17  O   UNL     1       3.224   1.052  -0.364  0.00  0.00    -0.464 OA
BRANCH  17  19
ATOM     18  C   UNL     1       1.184   0.866  -1.513  0.00  0.00    +0.136 C 
ATOM     19  C   UNL     1       2.676   0.982  -1.607  0.00  0.00    +0.304 C 
ATOM     20  O   UNL     1       3.299   0.982  -2.658  0.00  0.00    -0.251 OA
ENDBRANCH  17  19
ENDBRANCH  16  17
ENDBRANCH  15  16
BRANCH  15  21
ATOM     21  C   UNL     1       6.738   2.464  -0.552  0.00  0.00    +0.239 C 
BRANCH  21  22
ATOM     22  O   UNL     1       7.352   3.750  -0.727  0.00  0.00    -0.464 OA
BRANCH  22  23
ATOM     23  C   UNL     1       7.285   4.306  -1.964  0.00  0.00    +0.304 C 
ATOM     24  O   UNL     1       6.816   3.766  -2.956  0.00  0.00    -0.251 OA
ATOM     25  C   UNL     1       7.811   5.711  -1.942  0.00  0.00    +0.136 C 
ENDBRANCH  22  23
ENDBRANCH  21  22
ENDBRANCH  15  21
ENDBRANCH  14  15
ENDBRANCH   1  14
TORSDOF 9
