REMARK  Name = 
REMARK  7 active torsions:
REMARK  status: ('A' for Active; 'I' for Inactive)
REMARK    1  A    between atoms: C_1  and  C_2
REMARK    2  A    between atoms: C_3  and  C_4
REMARK    3  A    between atoms: C_4  and  C_5
REMARK    4  A    between atoms: C_5  and  O_6
REMARK    5  A    between atoms: N_9  and  C_10
REMARK    6  A    between atoms: C_10  and  C_11
REMARK    7  A    between atoms: C_14  and  C_15
REMARK                            x       y       z     vdW  Elec       q    Type
REMARK                         _______ _______ _______ _____ _____    ______ ____
ROOT
ATOM      1  C   UNL     1       2.706   2.410   0.079  0.00  0.00    +0.399 C 
ENDROOT
BRANCH   1   2
ATOM      2  C   UNL     1       2.468   3.143   1.363  0.00  0.00    +0.075 A 
ATOM      3  C   UNL     1       3.472   3.594   2.202  0.00  0.00    +0.129 A 
ATOM      4  N   UNL     1       4.808   3.629   1.799  0.00  0.00    -0.343 N 
ATOM      5  H   UNL     1       4.930   4.356   1.098  0.00  0.00    +0.144 HD
ATOM      6  H   UNL     1       5.311   3.962   2.630  0.00  0.00    +0.144 HD
ATOM      7  N   UNL     1       3.228   4.086   3.422  0.00  0.00    -0.218 NA
ATOM      8  C   UNL     1       1.944   4.224   3.789  0.00  0.00    +0.128 A 
ATOM      9  C   UNL     1       1.630   4.643   5.194  0.00  0.00    +0.088 C 
ATOM     10  N   UNL     1       0.905   3.988   2.972  0.00  0.00    -0.240 NA
ATOM     11  C   UNL     1       1.191   3.454   1.777  0.00  0.00    +0.126 A 
ENDBRANCH   1   2
BRANCH   1  14
ATOM     12  C   UNL     1       1.091  -0.143   0.382  0.00  0.00    +0.122 C 
ATOM     13  C   UNL     1       2.576  -0.143   0.310  0.00  0.00    +0.191 A 
ATOM     14  N   UNL     1       3.289   1.061   0.265  0.00  0.00    -0.190 N 
ATOM     15  C   UNL     1       4.605   0.905   0.249  0.00  0.00    +0.357 A 
ATOM     16  S   UNL     1       5.051  -0.742   0.225  0.00  0.00    -0.027 S 
ATOM     17  C   UNL     1       3.411  -1.245   0.214  0.00  0.00    +0.064 A 
BRANCH  17  18
ATOM     18  C   UNL     1       3.071  -2.715   0.111  0.00  0.00    +0.076 C 
BRANCH  18  19
ATOM     19  C   UNL     1       3.060  -3.404   1.469  0.00  0.00    +0.161 C 
BRANCH  19  20
ATOM     20  O   UNL     1       2.094  -2.773   2.303  0.00  0.00    -0.395 OA
ATOM     21  H   UNL     1       2.339  -2.976   3.227  0.00  0.00    +0.209 HD
ENDBRANCH  19  20
ENDBRANCH  18  19
ENDBRANCH  17  18
ENDBRANCH   1  14
TORSDOF 5
