REMARK  Name = 
REMARK  17 active torsions:
REMARK  status: ('A' for Active; 'I' for Inactive)
REMARK    1  A    between atoms: C_1  and  N_2
REMARK    2  A    between atoms: N_2  and  C_3
REMARK    3  A    between atoms: C_3  and  C_4
REMARK    4  A    between atoms: C_4  and  O_5
REMARK    5  A    between atoms: C_4  and  C_6
REMARK    6  A    between atoms: C_8  and  O_9
REMARK    7  A    between atoms: O_9  and  C_10
REMARK    8  A    between atoms: C_10  and  C_12
REMARK    9  A    between atoms: C_12  and  C_13
REMARK   10  A    between atoms: C_12  and  C_14
REMARK   11  A    between atoms: C_12  and  C_15
REMARK   12  A    between atoms: C_16  and  O_17
REMARK   13  A    between atoms: O_17  and  C_18
REMARK   14  A    between atoms: C_18  and  C_20
REMARK   15  A    between atoms: C_20  and  C_21
REMARK   16  A    between atoms: C_20  and  C_22
REMARK   17  A    between atoms: C_20  and  C_23
REMARK                            x       y       z     vdW  Elec       q    Type
REMARK                         _______ _______ _______ _____ _____    ______ ____
ROOT
ATOM      1  C   UNL     1       4.995   1.920   1.987  0.00  0.00    -0.014 A 
ATOM      2  C   UNL     1       5.913   1.616   3.001  0.00  0.00    +0.010 A 
ATOM      3  C   UNL     1       6.347   2.600   3.899  0.00  0.00    +0.050 A 
ATOM      4  C   UNL     1       5.846   3.903   3.815  0.00  0.00    +0.174 A 
ATOM      5  C   UNL     1       4.941   4.227   2.798  0.00  0.00    +0.174 A 
ATOM      6  C   UNL     1       4.517   3.236   1.901  0.00  0.00    +0.056 A 
ENDROOT
BRANCH   1   7
ATOM      7  C   UNL     1       4.499   0.857   1.028  0.00  0.00    +0.158 C 
BRANCH   7   8
ATOM      8  O   UNL     1       4.835   1.204  -0.324  0.00  0.00    -0.386 OA
ATOM      9  H   UNL     1       4.899   2.171  -0.390  0.00  0.00    +0.210 HD
ENDBRANCH   7   8
BRANCH   7  10
ATOM     10  C   UNL     1       2.961   0.672   1.133  0.00  0.00    +0.116 C 
BRANCH  10  12
ATOM     11  C   UNL     1       1.015  -0.429   0.236  0.00  0.00    +0.101 C 
ATOM     12  N   UNL     1       2.467  -0.355   0.204  0.00  0.00    -0.316 NA
ATOM     13  H   UNL     1       2.791  -0.109  -0.736  0.00  0.00    +0.122 HD
ENDBRANCH  10  12
ENDBRANCH   7  10
ENDBRANCH   1   7
BRANCH   4  14
ATOM     14  O   UNL     1       6.282   4.926   4.696  0.00  0.00    -0.422 OA
BRANCH  14  15
ATOM     15  C   UNL     1       6.612   4.650   6.033  0.00  0.00    +0.318 C 
ATOM     16  O   UNL     1       6.422   3.581   6.601  0.00  0.00    -0.250 OA
BRANCH  15  17
ATOM     17  C   UNL     1       7.222   5.885   6.716  0.00  0.00    +0.060 C 
ATOM     18  C   UNL     1       8.454   6.373   5.943  0.00  0.00    +0.022 C 
ATOM     19  C   UNL     1       7.669   5.515   8.145  0.00  0.00    +0.022 C 
ATOM     20  C   UNL     1       6.166   6.991   6.801  0.00  0.00    +0.022 C 
ENDBRANCH  15  17
ENDBRANCH  14  15
ENDBRANCH   4  14
BRANCH   5  21
ATOM     21  O   UNL     1       4.338   5.501   2.792  0.00  0.00    -0.422 OA
BRANCH  21  22
ATOM     22  C   UNL     1       3.663   5.943   1.648  0.00  0.00    +0.318 C 
ATOM     23  O   UNL     1       4.050   5.770   0.498  0.00  0.00    -0.250 OA
BRANCH  22  24
ATOM     24  C   UNL     1       2.312   6.577   2.020  0.00  0.00    +0.060 C 
ATOM     25  C   UNL     1       1.194   5.620   1.573  0.00  0.00    +0.022 C 
ATOM     26  C   UNL     1       2.167   7.909   1.274  0.00  0.00    +0.022 C 
ATOM     27  C   UNL     1       2.178   6.823   3.531  0.00  0.00    +0.022 C 
ENDBRANCH  22  24
ENDBRANCH  21  22
ENDBRANCH   5  21
TORSDOF 10
