REMARK  Name = 
REMARK  9 active torsions:
REMARK  status: ('A' for Active; 'I' for Inactive)
REMARK    1  A    between atoms: C_1  and  C_2
REMARK    2  A    between atoms: C_2  and  C_3
REMARK    3  A    between atoms: C_2  and  N_4
REMARK    4  A    between atoms: N_4  and  C_5
REMARK    5  A    between atoms: C_5  and  C_6
REMARK    6  A    between atoms: C_6  and  O_7
REMARK    7  A    between atoms: C_6  and  C_8
REMARK    8  A    between atoms: C_8  and  O_9
REMARK    9  A    between atoms: O_9  and  C_10
REMARK                            x       y       z     vdW  Elec       q    Type
REMARK                         _______ _______ _______ _____ _____    ______ ____
ROOT
ATOM      1  O   UNL     1       6.975  -0.753  -4.087  0.00  0.00    -0.489 OA
ENDROOT
BRANCH   1   2
ATOM      2  C   UNL     1       8.344  -0.918  -4.166  0.00  0.00    +0.128 A 
ATOM      3  C   UNL     1       8.967  -0.661  -5.419  0.00  0.00    +0.024 A 
ATOM      4  C   UNL     1      10.369  -0.850  -5.532  0.00  0.00    -0.014 A 
ATOM      5  C   UNL     1      11.023  -0.609  -6.752  0.00  0.00    +0.008 A 
ATOM      6  C   UNL     1      10.314  -0.184  -7.870  0.00  0.00    +0.001 A 
ATOM      7  C   UNL     1       8.938   0.015  -7.783  0.00  0.00    +0.001 A 
ATOM      8  C   UNL     1      11.110  -1.283  -4.425  0.00  0.00    +0.009 A 
ATOM      9  C   UNL     1      10.488  -1.540  -3.211  0.00  0.00    +0.004 A 
ATOM     10  C   UNL     1       8.274  -0.219  -6.572  0.00  0.00    +0.012 A 
ATOM     11  C   UNL     1       9.115  -1.364  -3.084  0.00  0.00    +0.046 A 
ENDBRANCH   1   2
BRANCH   1  12
ATOM     12  C   UNL     1       6.444  -0.578  -2.763  0.00  0.00    +0.261 C 
BRANCH  12  13
ATOM     13  C   UNL     1       4.918  -0.456  -2.812  0.00  0.00    +0.166 C 
BRANCH  13  14
ATOM     14  O   UNL     1       4.350  -1.677  -3.313  0.00  0.00    -0.387 OA
ATOM     15  H   UNL     1       4.843  -1.891  -4.126  0.00  0.00    +0.210 HD
ENDBRANCH  13  14
BRANCH  13  16
ATOM     16  C   UNL     1       4.472   0.720  -3.691  0.00  0.00    +0.115 C 
BRANCH  16  17
ATOM     17  N   UNL     1       3.019   0.889  -3.582  0.00  0.00    -0.311 NA
ATOM     18  H   UNL     1       2.578  -0.010  -3.798  0.00  0.00    +0.122 HD
BRANCH  17  20
ATOM     19  C   UNL     1       0.967   1.940  -4.347  0.00  0.00    +0.023 C 
ATOM     20  C   UNL     1       2.493   1.942  -4.457  0.00  0.00    +0.048 C 
ATOM     21  C   UNL     1       3.035   3.320  -4.068  0.00  0.00    +0.023 C 
ENDBRANCH  17  20
ENDBRANCH  16  17
ENDBRANCH  13  16
ENDBRANCH  12  13
ENDBRANCH   1  12
TORSDOF 7
