REMARK  Name = 
REMARK  2 active torsions:
REMARK  status: ('A' for Active; 'I' for Inactive)
REMARK    1  A    between atoms: C_6  and  C_8
REMARK    2  A    between atoms: C_6  and  C_14
REMARK                            x       y       z     vdW  Elec       q    Type
REMARK                         _______ _______ _______ _____ _____    ______ ____
ROOT
ATOM      1  O   UNL     1       1.385  -0.218   0.668  0.00  0.00    -0.252 OA
ATOM      2  C   UNL     1       2.521  -0.081   0.254  0.00  0.00    +0.307 C 
ATOM      3  N   UNL     1       3.380  -1.106  -0.028  0.00  0.00    -0.278 N 
ATOM      4  H   UNL     1       3.080  -2.068   0.024  0.00  0.00    +0.152 HD
ATOM      5  C   UNL     1       4.660  -0.664  -0.563  0.00  0.00    +0.163 C 
ATOM      6  C   UNL     1       4.347   0.871  -0.588  0.00  0.00    +0.253 C 
ATOM      7  O   UNL     1       5.053   1.770  -1.032  0.00  0.00    -0.272 OA
ATOM      8  N   UNL     1       3.125   1.089  -0.031  0.00  0.00    -0.238 N 
ATOM      9  H   UNL     1       2.683   1.989   0.048  0.00  0.00    +0.159 HD
ENDROOT
BRANCH   5  10
ATOM     10  C   UNL     1       4.847  -1.309  -1.943  0.00  0.00    -0.011 A 
ATOM     11  C   UNL     1       5.134  -2.687  -2.037  0.00  0.00    +0.006 A 
ATOM     12  C   UNL     1       5.249  -3.322  -3.277  0.00  0.00    +0.000 A 
ATOM     13  C   UNL     1       5.076  -2.595  -4.451  0.00  0.00    +0.000 A 
ATOM     14  C   UNL     1       4.792  -1.235  -4.384  0.00  0.00    +0.000 A 
ATOM     15  C   UNL     1       4.677  -0.598  -3.144  0.00  0.00    +0.006 A 
ENDBRANCH   5  10
BRANCH   5  16
ATOM     16  C   UNL     1       5.817  -0.930   0.415  0.00  0.00    -0.011 A 
ATOM     17  C   UNL     1       7.072  -0.327   0.203  0.00  0.00    +0.006 A 
ATOM     18  C   UNL     1       8.121  -0.507   1.108  0.00  0.00    +0.000 A 
ATOM     19  C   UNL     1       7.945  -1.309   2.232  0.00  0.00    +0.000 A 
ATOM     20  C   UNL     1       6.723  -1.938   2.448  0.00  0.00    +0.000 A 
ATOM     21  C   UNL     1       5.669  -1.753   1.548  0.00  0.00    +0.006 A 
ENDBRANCH   5  16
TORSDOF 2
