REMARK  Name = 
REMARK  5 active torsions:
REMARK  status: ('A' for Active; 'I' for Inactive)
REMARK    1  A    between atoms: N_1  and  C_2
REMARK    2  A    between atoms: C_2  and  C_3
REMARK    3  A    between atoms: C_3  and  C_4
REMARK    4  A    between atoms: C_4  and  C_5
REMARK    5  A    between atoms: C_5  and  O_6
REMARK                            x       y       z     vdW  Elec       q    Type
REMARK                         _______ _______ _______ _____ _____    ______ ____
ROOT
ATOM      1  C   UNL     1       2.932   1.225  -0.689  0.00  0.00    -0.007 C 
ATOM      2  C   UNL     1       3.746   1.832   0.497  0.00  0.00    +0.009 C 
ATOM      3  C   UNL     1       2.889   2.487   1.579  0.00  0.00    +0.001 C 
ATOM      4  C   UNL     1       1.987   3.554   0.981  0.00  0.00    +0.000 C 
ATOM      5  C   UNL     1       1.097   2.967  -0.107  0.00  0.00    +0.001 C 
ATOM      6  C   UNL     1       1.915   2.281  -1.203  0.00  0.00    +0.009 C 
ENDROOT
BRANCH   1   7
ATOM      7  C   UNL     1       2.230  -0.072  -0.177  0.00  0.00    +0.085 C 
BRANCH   7   8
ATOM      8  N   UNL     1       1.381  -0.751  -1.146  0.00  0.00    -0.329 NA
ATOM      9  H   UNL     1       1.955  -1.194  -1.875  0.00  0.00    +0.118 HD
ATOM     10  H   UNL     1       0.921  -1.542  -0.693  0.00  0.00    +0.118 HD
ENDBRANCH   7   8
ENDBRANCH   1   7
BRANCH   1  11
ATOM     11  C   UNL     1       3.971   0.912  -1.805  0.00  0.00    +0.128 C 
BRANCH  11  12
ATOM     12  C   UNL     1       3.452   0.233  -3.048  0.00  0.00    +0.305 C 
ATOM     13  O   UNL     1       3.444  -0.983  -3.192  0.00  0.00    -0.251 OA
BRANCH  12  14
ATOM     14  O   UNL     1       2.998   1.075  -3.998  0.00  0.00    -0.481 OA
ATOM     15  H   UNL     1       3.021   2.015  -3.741  0.00  0.00    +0.295 HD
ENDBRANCH  12  14
ENDBRANCH  11  12
ENDBRANCH   1  11
TORSDOF 5
