REMARK  Name = 
REMARK  8 active torsions:
REMARK  status: ('A' for Active; 'I' for Inactive)
REMARK    1  A    between atoms: NZ_1  and  CE_2
REMARK    2  A    between atoms: CE_2  and  CD_3
REMARK    3  A    between atoms: CD_3  and  CG_4
REMARK    4  A    between atoms: CG_4  and  CB_5
REMARK    5  A    between atoms: CB_5  and  CA_6
REMARK    6  A    between atoms: CA_6  and  N_8
REMARK    7  A    between atoms: CA_6  and  C_9
REMARK    8  A    between atoms: C_9  and  O_10
REMARK                            x       y       z     vdW  Elec       q    Type
REMARK                         _______ _______ _______ _____ _____    ______ ____
ROOT
ATOM      1  CA  LYS A   1       6.556  -2.192  -1.857  0.00  0.00    +0.161 C 
ENDROOT
BRANCH   1   2
ATOM      2  N   LYS A   1       6.925  -3.256  -2.837  0.00  0.00    -0.318 NA
ATOM      3  H1  LYS A   1       7.941  -3.229  -2.970  0.00  0.00    +0.119 HD
ATOM      4  H2  LYS A   1       6.766  -4.163  -2.384  0.00  0.00    +0.119 HD
ENDBRANCH   1   2
BRANCH   1   5
ATOM      5  C   LYS A   1       5.025  -2.182  -1.727  0.00  0.00    +0.322 C 
ATOM      6  OXT LYS A   1       4.399  -1.709  -0.793  0.00  0.00    -0.249 OA
BRANCH   5   7
ATOM      7  O   LYS A   1       4.439  -2.748  -2.817  0.00  0.00    -0.480 OA
ATOM      8  H   LYS A   1       5.186  -3.044  -3.397  0.00  0.00    +0.295 HD
ENDBRANCH   5   7
ENDBRANCH   1   5
BRANCH   1   9
ATOM      9  CB  LYS A   1       7.014  -0.803  -2.319  0.00  0.00    +0.030 C 
BRANCH   9  10
ATOM     10  CG  LYS A   1       8.536  -0.654  -2.373  0.00  0.00    +0.003 C 
BRANCH  10  11
ATOM     11  CD  LYS A   1       8.949   0.748  -2.837  0.00  0.00    +0.015 C 
BRANCH  11  12
ATOM     12  CE  LYS A   1      10.468   0.923  -2.899  0.00  0.00    +0.077 C 
BRANCH  12  13
ATOM     13  NZ  LYS A   1      11.080  -0.003  -3.847  0.00  0.00    -0.330 NA
ATOM     14  HZ1 LYS A   1      10.717   0.177  -4.783  0.00  0.00    +0.118 HD
ATOM     15  HZ2 LYS A   1      12.083   0.174  -3.893  0.00  0.00    +0.118 HD
ENDBRANCH  12  13
ENDBRANCH  11  12
ENDBRANCH  10  11
ENDBRANCH   9  10
ENDBRANCH   1   9
TORSDOF 8
