REMARK  Name = 
REMARK  14 active torsions:
REMARK  status: ('A' for Active; 'I' for Inactive)
REMARK    1  A    between atoms: C_1  and  C_2
REMARK    2  A    between atoms: C_2  and  C_3
REMARK    3  A    between atoms: C_2  and  C_4
REMARK    4  A    between atoms: C_2  and  C_5
REMARK    5  A    between atoms: C_8  and  C_11
REMARK    6  A    between atoms: C_11  and  O_12
REMARK    7  A    between atoms: C_11  and  C_13
REMARK    8  A    between atoms: C_13  and  C_14
REMARK    9  A    between atoms: C_14  and  C_15
REMARK   10  A    between atoms: C_15  and  N_16
REMARK   11  A    between atoms: C_19  and  C_22
REMARK   12  A    between atoms: C_22  and  O_23
REMARK   13  A    between atoms: C_22  and  C_24
REMARK   14  A    between atoms: C_22  and  C_30
REMARK                            x       y       z     vdW  Elec       q    Type
REMARK                         _______ _______ _______ _____ _____    ______ ____
ROOT
ATOM      1  N   UNL     1       4.007   2.047  -9.736  0.00  0.00    -0.302 NA
ATOM      2  C   UNL     1       5.015   3.111  -9.822  0.00  0.00    +0.085 C 
ATOM      3  C   UNL     1       4.633   4.383  -9.071  0.00  0.00    +0.022 C 
ATOM      4  C   UNL     1       3.255   4.960  -9.485  0.00  0.00    +0.032 C 
ATOM      5  C   UNL     1       2.232   3.807  -9.413  0.00  0.00    +0.022 C 
ATOM      6  C   UNL     1       2.679   2.532 -10.132  0.00  0.00    +0.085 C 
ENDROOT
BRANCH   1   7
ATOM      7  C   UNL     1       4.011   1.371  -8.431  0.00  0.00    +0.084 C 
BRANCH   7   8
ATOM      8  C   UNL     1       3.282   0.021  -8.477  0.00  0.00    +0.018 C 
BRANCH   8   9
ATOM      9  C   UNL     1       3.697  -0.889  -9.638  0.00  0.00    +0.037 C 
BRANCH   9  10
ATOM     10  C   UNL     1       5.138  -1.423  -9.544  0.00  0.00    +0.145 C 
BRANCH  10  14
ATOM     11  C   UNL     1       5.712  -4.251 -12.777  0.00  0.00    -0.042 A 
ATOM     12  C   UNL     1       5.515  -2.884 -13.042  0.00  0.00    +0.004 A 
ATOM     13  C   UNL     1       5.372  -1.959 -12.009  0.00  0.00    +0.006 A 
ATOM     14  C   UNL     1       5.428  -2.376 -10.673  0.00  0.00    -0.019 A 
ATOM     15  C   UNL     1       5.708  -3.716 -10.397  0.00  0.00    +0.006 A 
ATOM     16  C   UNL     1       5.850  -4.638 -11.434  0.00  0.00    +0.004 A 
BRANCH  11  18
ATOM     17  C   UNL     1       5.838  -6.726 -13.456  0.00  0.00    +0.015 C 
ATOM     18  C   UNL     1       5.719  -5.261 -13.931  0.00  0.00    -0.013 C 
ATOM     19  C   UNL     1       4.390  -5.144 -14.713  0.00  0.00    +0.015 C 
ATOM     20  C   UNL     1       6.898  -4.976 -14.881  0.00  0.00    +0.015 C 
ENDBRANCH  11  18
ENDBRANCH  10  14
BRANCH  10  21
ATOM     21  O   UNL     1       6.127  -0.402  -9.569  0.00  0.00    -0.387 OA
ATOM     22  H   UNL     1       5.872   0.221 -10.271  0.00  0.00    +0.210 HD
ENDBRANCH  10  21
ENDBRANCH   9  10
ENDBRANCH   8   9
ENDBRANCH   7   8
ENDBRANCH   1   7
BRANCH   4  23
ATOM     23  C   UNL     1       3.244   5.761 -10.855  0.00  0.00    +0.119 C 
BRANCH  23  24
ATOM     24  C   UNL     1       4.379   6.805 -10.837  0.00  0.00    -0.011 A 
ATOM     25  C   UNL     1       4.374   7.854  -9.897  0.00  0.00    +0.007 A 
ATOM     26  C   UNL     1       5.476   8.700  -9.756  0.00  0.00    +0.000 A 
ATOM     27  C   UNL     1       6.598   8.525 -10.560  0.00  0.00    +0.000 A 
ATOM     28  C   UNL     1       6.608   7.524 -11.527  0.00  0.00    +0.000 A 
ATOM     29  C   UNL     1       5.506   6.678 -11.671  0.00  0.00    +0.007 A 
ENDBRANCH  23  24
BRANCH  23  30
ATOM     30  C   UNL     1       1.890   6.437 -11.189  0.00  0.00    -0.011 A 
ATOM     31  C   UNL     1       1.526   6.678 -12.531  0.00  0.00    +0.007 A 
ATOM     32  C   UNL     1       0.320   7.304 -12.859  0.00  0.00    +0.000 A 
ATOM     33  C   UNL     1      -0.540   7.730 -11.853  0.00  0.00    +0.000 A 
ATOM     34  C   UNL     1      -0.201   7.518 -10.522  0.00  0.00    +0.000 A 
ATOM     35  C   UNL     1       0.999   6.879 -10.193  0.00  0.00    +0.007 A 
ENDBRANCH  23  30
BRANCH  23  36
ATOM     36  O   UNL     1       3.522   4.819 -11.903  0.00  0.00    -0.379 OA
ATOM     37  H   UNL     1       2.672   4.481 -12.227  0.00  0.00    +0.211 HD
ENDBRANCH  23  36
ENDBRANCH   4  23
TORSDOF 11
