REMARK  Name = 
REMARK  10 active torsions:
REMARK  status: ('A' for Active; 'I' for Inactive)
REMARK    1  A    between atoms: C_1  and  C_2
REMARK    2  A    between atoms: C_2  and  C_3
REMARK    3  A    between atoms: C_4  and  C_5
REMARK    4  A    between atoms: N_10  and  C_11
REMARK    5  A    between atoms: C_11  and  C_12
REMARK    6  A    between atoms: C_12  and  C_13
REMARK    7  A    between atoms: C_16  and  S_19
REMARK    8  A    between atoms: S_19  and  N_22
REMARK    9  A    between atoms: N_25  and  C_26
REMARK   10  A    between atoms: C_29  and  C_30
REMARK                            x       y       z     vdW  Elec       q    Type
REMARK                         _______ _______ _______ _____ _____    ______ ____
ROOT
ATOM      1  C   UNL     1       1.927   5.929  -8.138  0.00  0.00    -0.046 A 
ATOM      2  C   UNL     1       2.077   7.190  -7.537  0.00  0.00    +0.005 A 
ATOM      3  C   UNL     1       1.923   8.364  -8.285  0.00  0.00    +0.029 A 
ATOM      4  C   UNL     1       1.587   8.287  -9.639  0.00  0.00    +0.109 A 
ATOM      5  C   UNL     1       1.385   7.045 -10.239  0.00  0.00    +0.029 A 
ATOM      6  C   UNL     1       1.536   5.878  -9.486  0.00  0.00    +0.005 A 
ENDROOT
BRANCH   4   7
ATOM      7  S   UNL     1       1.563   9.755 -10.644  0.00  0.00    +0.076 S 
ATOM      8  O   UNL     1       1.851   9.343 -12.006  0.00  0.00    -0.150 OA
ATOM      9  O   UNL     1       2.361  10.778 -10.008  0.00  0.00    -0.150 OA
BRANCH   7  10
ATOM     10  N   UNL     1      -0.029  10.235 -10.668  0.00  0.00    -0.169 N 
ATOM     11  H   UNL     1      -0.449  10.179 -11.585  0.00  0.00    +0.178 HD
ATOM     12  C   UNL     1      -0.762  10.551  -9.541  0.00  0.00    +0.319 C 
ATOM     13  N   UNL     1      -2.046  10.928  -9.823  0.00  0.00    -0.295 N 
ATOM     14  H   UNL     1      -2.274  11.180 -10.772  0.00  0.00    +0.151 HD
ATOM     15  O   UNL     1      -0.317  10.479  -8.409  0.00  0.00    -0.251 OA
BRANCH  13  16
ATOM     16  C   UNL     1      -2.971  11.268  -8.748  0.00  0.00    +0.074 C 
ATOM     17  C   UNL     1      -4.411  10.919  -9.135  0.00  0.00    +0.022 C 
ATOM     18  C   UNL     1      -5.038  11.925 -10.099  0.00  0.00    +0.005 C 
ATOM     19  C   UNL     1      -4.926  13.374  -9.609  0.00  0.00    -0.014 C 
ATOM     20  C   UNL     1      -5.854  13.644  -8.420  0.00  0.00    +0.007 C 
ATOM     21  C   UNL     1      -3.466  13.717  -9.284  0.00  0.00    +0.005 C 
ATOM     22  C   UNL     1      -2.823  12.731  -8.308  0.00  0.00    +0.022 C 
ENDBRANCH  13  16
ENDBRANCH   7  10
ENDBRANCH   4   7
BRANCH   1  23
ATOM     23  C   UNL     1       2.157   4.667  -7.326  0.00  0.00    +0.054 C 
BRANCH  23  24
ATOM     24  C   UNL     1       2.813   3.523  -8.115  0.00  0.00    +0.110 C 
BRANCH  24  30
ATOM     25  C   UNL     1       3.385  -0.968  -4.710  0.00  0.00    +0.015 C 
ATOM     26  C   UNL     1       3.610   0.163  -5.634  0.00  0.00    +0.250 C 
ATOM     27  O   UNL     1       4.589   0.893  -5.609  0.00  0.00    -0.270 OA
ATOM     28  N   UNL     1       2.525   0.219  -6.498  0.00  0.00    -0.218 N 
ATOM     29  C   UNL     1       2.136   1.292  -7.278  0.00  0.00    +0.309 C 
ATOM     30  N   UNL     1       3.028   2.333  -7.320  0.00  0.00    -0.299 N 
ATOM     31  H   UNL     1       3.895   2.234  -6.795  0.00  0.00    +0.150 HD
ATOM     32  O   UNL     1       1.055   1.323  -7.863  0.00  0.00    -0.252 OA
ATOM     33  C   UNL     1       1.645  -0.900  -6.299  0.00  0.00    +0.149 C 
ATOM     34  C   UNL     1       2.244  -1.558  -5.098  0.00  0.00    -0.047 C 
ATOM     35  C   UNL     1       1.548  -2.704  -4.451  0.00  0.00    +0.041 C 
BRANCH  25  37
ATOM     36  C   UNL     1       5.349  -2.233  -3.843  0.00  0.00    +0.009 C 
ATOM     37  C   UNL     1       4.270  -1.208  -3.540  0.00  0.00    +0.037 C 
ENDBRANCH  25  37
ENDBRANCH  24  30
ENDBRANCH  23  24
ENDBRANCH   1  23
TORSDOF 7
