REMARK  Name = 
REMARK  4 active torsions:
REMARK  status: ('A' for Active; 'I' for Inactive)
REMARK    1  A    between atoms: N_1  and  S_2
REMARK    2  A    between atoms: S_2  and  C_5
REMARK    3  A    between atoms: C_10  and  C_12
REMARK    4  A    between atoms: C_12  and  O_13
REMARK                            x       y       z     vdW  Elec       q    Type
REMARK                         _______ _______ _______ _____ _____    ______ ____
ROOT
ATOM      1  C   UNL     1       3.103  -1.669  -0.739  0.00  0.00    +0.124 A 
ATOM      2  C   UNL     1       2.530  -2.766  -0.072  0.00  0.00    +0.038 A 
ATOM      3  C   UNL     1       2.935  -4.087  -0.351  0.00  0.00    +0.009 A 
ATOM      4  C   UNL     1       3.964  -4.270  -1.289  0.00  0.00    +0.010 A 
ATOM      5  C   UNL     1       4.534  -3.178  -1.953  0.00  0.00    +0.022 A 
ATOM      6  C   UNL     1       4.101  -1.873  -1.690  0.00  0.00    +0.067 A 
ATOM      7 CL   UNL     1       4.867  -0.607  -2.579  0.00  0.00    -0.082 Cl
ENDROOT
BRANCH   3   8
ATOM      8  C   UNL     1       2.285  -5.256   0.374  0.00  0.00    +0.187 C 
ATOM      9  C   UNL     1       2.969  -5.680   1.640  0.00  0.00    +0.019 A 
ATOM     10  C   UNL     1       3.219  -7.052   1.592  0.00  0.00    +0.045 A 
ATOM     11  C   UNL     1       3.797  -7.750   2.636  0.00  0.00    +0.013 A 
ATOM     12  C   UNL     1       4.144  -7.022   3.775  0.00  0.00    +0.001 A 
ATOM     13  C   UNL     1       3.906  -5.637   3.840  0.00  0.00    +0.000 A 
ATOM     14  C   UNL     1       2.746  -7.547   0.297  0.00  0.00    +0.247 C 
ATOM     15  O   UNL     1       2.779  -8.700  -0.086  0.00  0.00    -0.270 OA
ATOM     16  C   UNL     1       3.311  -4.956   2.772  0.00  0.00    +0.009 A 
ATOM     17  N   UNL     1       2.267  -6.461  -0.401  0.00  0.00    -0.276 N 
ATOM     18  H   UNL     1       1.777  -6.587  -1.271  0.00  0.00    +0.152 HD
BRANCH   8  19
ATOM     19  O   UNL     1       0.929  -4.980   0.660  0.00  0.00    -0.364 OA
ATOM     20  H   UNL     1       0.537  -4.666  -0.169  0.00  0.00    +0.213 HD
ENDBRANCH   8  19
ENDBRANCH   3   8
BRANCH   1  21
ATOM     21  S   UNL     1       2.495  -0.055  -0.366  0.00  0.00    +0.057 S 
ATOM     22  O   UNL     1       2.108   0.604  -1.589  0.00  0.00    -0.153 OA
ATOM     23  O   UNL     1       1.597  -0.148   0.763  0.00  0.00    -0.153 OA
BRANCH  21  24
ATOM     24  N   UNL     1       3.846   0.738   0.231  0.00  0.00    -0.203 NA
ATOM     25  H   UNL     1       4.155   1.452  -0.431  0.00  0.00    +0.144 HD
ATOM     26  H   UNL     1       3.651   1.099   1.166  0.00  0.00    +0.144 HD
ENDBRANCH  21  24
ENDBRANCH   1  21
TORSDOF 4
