REMARK  Name = 
REMARK  2 active torsions:
REMARK  status: ('A' for Active; 'I' for Inactive)
REMARK    1  A    between atoms: C_1  and  C_2
REMARK    2  A    between atoms: C_8  and  C_9
REMARK                            x       y       z     vdW  Elec       q    Type
REMARK                         _______ _______ _______ _____ _____    ______ ____
ROOT
ATOM      1  C   UNL     1       0.941   0.131  -0.013  0.00  0.00    +0.088 C 
ATOM      2  C   UNL     1       2.419   0.084   0.094  0.00  0.00    +0.135 A 
ATOM      3  N   UNL     1       3.203  -1.058   0.151  0.00  0.00    -0.281 N 
ATOM      4  C   UNL     1       4.496  -0.595   0.031  0.00  0.00    +0.159 A 
ATOM      5  C   UNL     1       5.673  -1.491   0.064  0.00  0.00    +0.218 C 
ATOM      6  N   UNL     1       5.639  -2.415  -1.060  0.00  0.00    -0.275 NA
ATOM      7  C   UNL     1       4.689  -3.281  -1.170  0.00  0.00    +0.075 C 
ATOM      8  C   UNL     1       3.582  -3.474  -0.177  0.00  0.00    +0.026 A 
ATOM      9  C   UNL     1       3.235  -4.800   0.145  0.00  0.00    +0.032 A 
ATOM     10  C   UNL     1       2.130  -5.065   0.948  0.00  0.00    +0.042 A 
ATOM     11 CL   UNL     1       1.685  -6.691   1.283  0.00  0.00    -0.084 Cl
ATOM     12  C   UNL     1       1.377  -4.020   1.471  0.00  0.00    +0.022 A 
ATOM     13  C   UNL     1       1.731  -2.698   1.192  0.00  0.00    +0.028 A 
ATOM     14  N   UNL     1       4.497   0.720  -0.021  0.00  0.00    -0.132 NA
ATOM     15  C   UNL     1       2.831  -2.411   0.365  0.00  0.00    +0.059 A 
ATOM     16  N   UNL     1       3.199   1.144   0.018  0.00  0.00    -0.134 NA
ENDROOT
BRANCH   7  17
ATOM     17  C   UNL     1       4.706  -4.142  -2.402  0.00  0.00    +0.001 A 
ATOM     18  C   UNL     1       3.516  -4.557  -3.016  0.00  0.00    +0.010 A 
ATOM     19  C   UNL     1       3.560  -5.343  -4.169  0.00  0.00    +0.001 A 
ATOM     20  C   UNL     1       4.788  -5.702  -4.723  0.00  0.00    +0.000 A 
ATOM     21  C   UNL     1       5.974  -5.276  -4.127  0.00  0.00    +0.001 A 
ATOM     22  C   UNL     1       5.936  -4.496  -2.971  0.00  0.00    +0.010 A 
ENDBRANCH   7  17
TORSDOF 1
