REMARK  Name = 
REMARK  4 active torsions:
REMARK  status: ('A' for Active; 'I' for Inactive)
REMARK    1  A    between atoms: C_1  and  N_2
REMARK    2  A    between atoms: N_13  and  C_14
REMARK    3  A    between atoms: C_14  and  C_15
REMARK    4  A    between atoms: C_16  and  C_17
REMARK                            x       y       z     vdW  Elec       q    Type
REMARK                         _______ _______ _______ _____ _____    ______ ____
ROOT
ATOM      1  C   UNL     1       1.040  -0.028   0.163  0.00  0.00    +0.149 C 
ATOM      2  N   UNL     1       2.485   0.006   0.224  0.00  0.00    -0.346 N 
ATOM      3  C   UNL     1       3.288  -1.122   0.170  0.00  0.00    +0.050 A 
ATOM      4  C   UNL     1       4.616  -0.683   0.086  0.00  0.00    +0.012 A 
ATOM      5  C   UNL     1       5.646  -1.642   0.005  0.00  0.00    +0.011 A 
ATOM      6  C   UNL     1       5.328  -3.003   0.002  0.00  0.00    +0.001 A 
ATOM      7  C   UNL     1       4.001  -3.417   0.060  0.00  0.00    +0.002 A 
ATOM      8  C   UNL     1       4.585   0.738   0.038  0.00  0.00    +0.065 A 
ATOM      9  C   UNL     1       5.642   1.694  -0.292  0.00  0.00    +0.249 C 
ATOM     10  N   UNL     1       5.198   3.016  -0.317  0.00  0.00    -0.291 N 
ATOM     11  C   UNL     1       4.059   3.442   0.506  0.00  0.00    +0.114 C 
ATOM     12  C   UNL     1       2.820   2.550   0.284  0.00  0.00    +0.073 C 
ATOM     13  O   UNL     1       6.756   1.344  -0.668  0.00  0.00    -0.270 OA
ATOM     14  C   UNL     1       2.959  -2.488   0.145  0.00  0.00    +0.026 A 
ATOM     15  C   UNL     1       3.269   1.128   0.230  0.00  0.00    +0.033 A 
ENDROOT
BRANCH  10  16
ATOM     16  C   UNL     1       5.830   3.954  -1.222  0.00  0.00    +0.165 C 
BRANCH  16  17
ATOM     17  C   UNL     1       6.961   4.692  -0.592  0.00  0.00    +0.079 A 
ATOM     18  N   UNL     1       6.740   5.594   0.431  0.00  0.00    -0.239 NA
ATOM     19  C   UNL     1       7.916   6.106   0.707  0.00  0.00    +0.197 A 
ATOM     20  N   UNL     1       8.889   5.595  -0.102  0.00  0.00    -0.348 N 
ATOM     21  H   UNL     1       9.866   5.853  -0.088  0.00  0.00    +0.166 HD
ATOM     22  C   UNL     1       8.301   4.690  -0.946  0.00  0.00    +0.037 A 
ATOM     23  C   UNL     1       9.065   3.957  -1.982  0.00  0.00    +0.065 C 
ENDBRANCH  16  17
ENDBRANCH  10  16
TORSDOF 2
