REMARK  Name = 
REMARK  7 active torsions:
REMARK  status: ('A' for Active; 'I' for Inactive)
REMARK    1  A    between atoms: C_5  and  O_6
REMARK    2  A    between atoms: C_5  and  C_10
REMARK    3  A    between atoms: O_6  and  C_7
REMARK    4  A    between atoms: C_7  and  C_8
REMARK    5  A    between atoms: C_12  and  C_13
REMARK    6  A    between atoms: C_13  and  C_14
REMARK    7  A    between atoms: N_30  and  O_31
REMARK                            x       y       z     vdW  Elec       q    Type
REMARK                         _______ _______ _______ _____ _____    ______ ____
ROOT
ATOM      1  C   UNL     1      -0.000  -0.000  -0.000  0.00  0.00    +0.004 C 
ATOM      2  C   UNL     1      -0.000   0.000   0.000  0.00  0.00    -0.003 C 
ATOM      3  C   UNL     1      -0.000  -0.000  -0.000  0.00  0.00    -0.000 C 
ATOM      4  C   UNL     1      -0.000  -0.000  -0.000  0.00  0.00    +0.019 C 
ATOM      5  C   UNL     1      -0.000  -0.000  -0.000  0.00  0.00    -0.064 C 
ATOM      6  C   UNL     1      -0.000  -0.000  -0.000  0.00  0.00    +0.031 C 
ATOM      7  C   UNL     1      -0.000  -0.000  -0.000  0.00  0.00    +0.026 C 
ATOM      8  C   UNL     1      -0.000  -0.000  -0.000  0.00  0.00    +0.080 C 
ATOM      9  N   UNL     1      -0.000  -0.000  -0.000  0.00  0.00    -0.092 NA
ATOM     10  C   UNL     1      -0.000  -0.000  -0.000  0.00  0.00    +0.059 C 
ATOM     11  C   UNL     1      -0.000  -0.000  -0.000  0.00  0.00    +0.014 C 
ATOM     12  C   UNL     1      -0.000  -0.000  -0.000  0.00  0.00    +0.005 C 
ATOM     13  C   UNL     1      -0.000  -0.000  -0.000  0.00  0.00    +0.012 C 
ATOM     14  C   UNL     1      -0.000  -0.000  -0.000  0.00  0.00    +0.008 C 
ATOM     15  C   UNL     1      -0.000  -0.000  -0.000  0.00  0.00    +0.025 C 
ATOM     16  C   UNL     1      -0.000  -0.000  -0.000  0.00  0.00    +0.179 C 
ATOM     17  C   UNL     1      -0.000  -0.000  -0.000  0.00  0.00    +0.062 C 
ATOM     18  C   UNL     1      -0.000  -0.000  -0.000  0.00  0.00    +0.009 C 
ENDROOT
BRANCH   9  19
ATOM     19  O   UNL     1      -0.000  -0.000  -0.000  0.00  0.00    -0.409 OA
ATOM     20  H   UNL     1       0.000   0.000   0.000  0.00  0.00    +0.328 HD
ENDBRANCH   9  19
BRANCH  15  21
ATOM     21  C   UNL     1      -0.000  -0.000  -0.000  0.00  0.00    +0.009 C 
ATOM     22  C   UNL     1      -0.000  -0.000  -0.000  0.00  0.00    +0.004 C 
ENDBRANCH  15  21
BRANCH  16  23
ATOM     23  C   UNL     1      -0.000  -0.000  -0.000  0.00  0.00    -0.058 C 
ATOM     24  C   UNL     1      -0.000  -0.000  -0.000  0.00  0.00    +0.008 C 
ENDBRANCH  16  23
BRANCH  16  25
ATOM     25  O   UNL     1      -0.000  -0.000  -0.000  0.00  0.00    -0.445 OA
BRANCH  25  26
ATOM     26  C   UNL     1      -0.000  -0.000  -0.000  0.00  0.00    +0.305 C 
ATOM     27  O   UNL     1      -0.000  -0.000  -0.000  0.00  0.00    -0.251 OA
ATOM     28  C   UNL     1      -0.000  -0.000  -0.000  0.00  0.00    +0.136 C 
ENDBRANCH  25  26
ENDBRANCH  16  25
TORSDOF 5
