REMARK  Name = 
REMARK  24 active torsions:
REMARK  status: ('A' for Active; 'I' for Inactive)
REMARK    1  A    between atoms: C_2  and  O_3
REMARK    2  A    between atoms: O_3  and  C_4
REMARK    3  A    between atoms: C_4  and  C_5
REMARK    4  A    between atoms: C_5  and  N_6
REMARK    5  A    between atoms: C_7  and  C_9
REMARK    6  A    between atoms: C_9  and  N_10
REMARK    7  A    between atoms: N_10  and  C_11
REMARK    8  A    between atoms: N_10  and  C_33
REMARK    9  A    between atoms: C_11  and  C_12
REMARK   10  A    between atoms: C_12  and  N_13
REMARK   11  A    between atoms: N_13  and  C_14
REMARK   12  A    between atoms: N_13  and  C_29
REMARK   13  A    between atoms: C_14  and  C_15
REMARK   14  A    between atoms: C_15  and  N_16
REMARK   15  A    between atoms: N_16  and  C_17
REMARK   16  A    between atoms: N_16  and  C_21
REMARK   17  A    between atoms: C_17  and  C_18
REMARK   18  A    between atoms: C_21  and  C_22
REMARK   19  A    between atoms: N_24  and  C_25
REMARK   20  A    between atoms: C_25  and  C_26
REMARK   21  A    between atoms: C_26  and  O_27
REMARK   22  A    between atoms: O_27  and  C_28
REMARK   23  A    between atoms: C_29  and  C_30
REMARK   24  A    between atoms: C_33  and  C_34
REMARK                            x       y       z     vdW  Elec       q    Type
REMARK                         _______ _______ _______ _____ _____    ______ ____
ROOT
ATOM      1 GD   UNL     1      -1.311   0.947  -1.229  0.00  0.00    +0.000 Gd
ENDROOT
TORSDOF 0
REMARK  Name = 
REMARK  24 active torsions:
REMARK  status: ('A' for Active; 'I' for Inactive)
REMARK    1  A    between atoms: C_2  and  O_3
REMARK    2  A    between atoms: O_3  and  C_4
REMARK    3  A    between atoms: C_4  and  C_5
REMARK    4  A    between atoms: C_5  and  N_6
REMARK    5  A    between atoms: C_7  and  C_9
REMARK    6  A    between atoms: C_9  and  N_10
REMARK    7  A    between atoms: N_10  and  C_11
REMARK    8  A    between atoms: N_10  and  C_33
REMARK    9  A    between atoms: C_11  and  C_12
REMARK   10  A    between atoms: C_12  and  N_13
REMARK   11  A    between atoms: N_13  and  C_14
REMARK   12  A    between atoms: N_13  and  C_29
REMARK   13  A    between atoms: C_14  and  C_15
REMARK   14  A    between atoms: C_15  and  N_16
REMARK   15  A    between atoms: N_16  and  C_17
REMARK   16  A    between atoms: N_16  and  C_21
REMARK   17  A    between atoms: C_17  and  C_18
REMARK   18  A    between atoms: C_21  and  C_22
REMARK   19  A    between atoms: N_24  and  C_25
REMARK   20  A    between atoms: C_25  and  C_26
REMARK   21  A    between atoms: C_26  and  O_27
REMARK   22  A    between atoms: O_27  and  C_28
REMARK   23  A    between atoms: C_29  and  C_30
REMARK   24  A    between atoms: C_33  and  C_34
REMARK                            x       y       z     vdW  Elec       q    Type
REMARK                         _______ _______ _______ _____ _____    ______ ____
ROOT
ATOM      1  N   UNL     1       8.790   2.755  -0.523  0.00  0.00    +0.000 NA
ENDROOT
BRANCH   1   2
ATOM      2  C   UNL     1       8.224   1.917  -1.606  0.00  0.00    +0.000 C 
BRANCH   2   3
ATOM      3  C   UNL     1       6.735   2.050  -1.732  0.00  0.00    +0.000 C 
ATOM      4  O   UNL     1       6.021   1.068  -1.600  0.00  0.00    -0.500 OA
ATOM      5  O   UNL     1       6.184   3.242  -2.022  0.00  0.00    -0.500 OA
ENDBRANCH   2   3
ENDBRANCH   1   2
BRANCH   1   6
ATOM      6  C   UNL     1      10.279   2.793  -0.590  0.00  0.00    +0.000 C 
BRANCH   6   7
ATOM      7  C   UNL     1      11.027   1.466  -0.269  0.00  0.00    +0.000 C 
BRANCH   7   8
ATOM      8  N   UNL     1      10.802   0.346  -1.222  0.00  0.00    +0.000 NA
BRANCH   8   9
ATOM      9  C   UNL     1      11.179   0.662  -2.623  0.00  0.00    +0.000 C 
BRANCH   9  10
ATOM     10  C   UNL     1      10.770  -0.442  -3.560  0.00  0.00    +0.000 C 
ATOM     11  O   UNL     1      11.605  -1.017  -4.239  0.00  0.00    -0.500 OA
ATOM     12  O   UNL     1       9.474  -0.801  -3.649  0.00  0.00    -0.500 OA
ENDBRANCH   9  10
ENDBRANCH   8   9
BRANCH   8  13
ATOM     13  C   UNL     1      11.446  -0.895  -0.711  0.00  0.00    +0.000 C 
BRANCH  13  14
ATOM     14  C   UNL     1      12.958  -0.787  -0.622  0.00  0.00    +0.000 C 
ATOM     15  N   UNL     1      13.575  -0.805   0.585  0.00  0.00    +0.000 N 
ATOM     16  H   UNL     1      13.013  -0.935   1.441  0.00  0.00    +0.000 HD
ATOM     17  O   UNL     1      13.617  -0.667  -1.641  0.00  0.00    +0.000 OA
BRANCH  15  18
ATOM     18  C   UNL     1      15.014  -0.619   0.693  0.00  0.00    +0.000 C 
BRANCH  18  19
ATOM     19  C   UNL     1      15.480  -0.743   2.136  0.00  0.00    +0.000 C 
BRANCH  19  20
ATOM     20  O   UNL     1      15.179  -2.045   2.590  0.00  0.00    +0.000 OA
ATOM     21  C   UNL     1      15.616  -2.190   3.918  0.00  0.00    +0.000 C 
ENDBRANCH  19  20
ENDBRANCH  18  19
ENDBRANCH  15  18
ENDBRANCH  13  14
ENDBRANCH   8  13
ENDBRANCH   7   8
ENDBRANCH   6   7
ENDBRANCH   1   6
BRANCH   1  22
ATOM     22  C   UNL     1       8.233   2.384   0.803  0.00  0.00    +0.000 C 
BRANCH  22  23
ATOM     23  C   UNL     1       8.771   3.243   1.977  0.00  0.00    +0.000 C 
BRANCH  23  24
ATOM     24  N   UNL     1       8.096   2.950   3.273  0.00  0.00    +0.000 NA
BRANCH  24  25
ATOM     25  C   UNL     1       8.368   1.550   3.697  0.00  0.00    +0.000 C 
BRANCH  25  26
ATOM     26  C   UNL     1       7.692   1.189   4.991  0.00  0.00    +0.000 C 
ATOM     27  O   UNL     1       8.357   0.815   5.944  0.00  0.00    -0.500 OA
ATOM     28  O   UNL     1       6.352   1.261   5.098  0.00  0.00    -0.500 OA
ENDBRANCH  25  26
ENDBRANCH  24  25
BRANCH  24  29
ATOM     29  C   UNL     1       8.569   3.897   4.319  0.00  0.00    +0.000 C 
BRANCH  29  32
ATOM     30  N   UNL     1       6.885   5.672   3.874  0.00  0.00    +0.000 N 
ATOM     31  H   UNL     1       6.169   4.934   3.959  0.00  0.00    +0.000 HD
ATOM     32  C   UNL     1       8.191   5.327   4.020  0.00  0.00    +0.000 C 
ATOM     33  O   UNL     1       9.073   6.171   3.927  0.00  0.00    +0.000 OA
BRANCH  30  34
ATOM     34  C   UNL     1       6.477   7.043   3.618  0.00  0.00    +0.000 C 
BRANCH  34  35
ATOM     35  C   UNL     1       4.957   7.150   3.501  0.00  0.00    +0.000 C 
BRANCH  35  37
ATOM     36  C   UNL     1       2.967   6.742   4.582  0.00  0.00    +0.000 C 
ATOM     37  O   UNL     1       4.368   6.718   4.710  0.00  0.00    +0.000 OA
ENDBRANCH  35  37
ENDBRANCH  34  35
ENDBRANCH  30  34
ENDBRANCH  29  32
ENDBRANCH  24  29
ENDBRANCH  23  24
ENDBRANCH  22  23
ENDBRANCH   1  22
TORSDOF 22
