REMARK  Name = 
REMARK  7 active torsions:
REMARK  status: ('A' for Active; 'I' for Inactive)
REMARK    1  A    between atoms: CA_2  and  N_3
REMARK    2  A    between atoms: CA_2  and  C_4
REMARK    3  A    between atoms: CA_2  and  C_7
REMARK    4  A    between atoms: C_4  and  O_5
REMARK    5  A    between atoms: C_7  and  C_8
REMARK    6  A    between atoms: C_7  and  C_9
REMARK    7  A    between atoms: C_7  and  S_10
REMARK                            x       y       z     vdW  Elec       q    Type
REMARK                         _______ _______ _______ _____ _____    ______ ____
ROOT
ATOM      1  CA  UNL     1       2.136  -0.111  -0.041  0.00  0.00    +0.176 C 
ENDROOT
BRANCH   1   2
ATOM      2  N   UNL     1       2.773  -0.426   1.290  0.00  0.00    -0.317 NA
ATOM      3  H1  UNL     1       3.790  -0.365   1.152  0.00  0.00    +0.119 HD
ATOM      4  H2  UNL     1       2.586   0.360   1.924  0.00  0.00    +0.119 HD
ENDBRANCH   1   2
BRANCH   1   5
ATOM      5  C   UNL     1       2.534   1.276  -0.630  0.00  0.00    +0.033 C 
ATOM      6  C   UNL     1       2.043   2.459   0.216  0.00  0.00    +0.024 C 
ATOM      7  C   UNL     1       2.059   1.443  -2.082  0.00  0.00    +0.024 C 
BRANCH   5   8
ATOM      8  S   UNL     1       4.393   1.385  -0.662  0.00  0.00    -0.170 S 
ATOM      9  H   UNL     1       4.628   0.118  -1.040  0.00  0.00    +0.102 HD
ENDBRANCH   5   8
ENDBRANCH   1   5
BRANCH   1  10
ATOM     10  C   UNL     1       0.614  -0.309   0.132  0.00  0.00    +0.323 C 
ATOM     11  OXT UNL     1      -0.262   0.110  -0.607  0.00  0.00    -0.249 OA
BRANCH  10  12
ATOM     12  O   UNL     1       0.353  -1.085   1.218  0.00  0.00    -0.480 OA
ATOM     13  H   UNL     1       1.231  -1.293   1.627  0.00  0.00    +0.295 HD
ENDBRANCH  10  12
ENDBRANCH   1  10
TORSDOF 5
