REMARK  Name = 
REMARK  17 active torsions:
REMARK  status: ('A' for Active; 'I' for Inactive)
REMARK    1  A    between atoms: C_1  and  C_2
REMARK    2  A    between atoms: C_2  and  N_3
REMARK    3  A    between atoms: N_3  and  C_4
REMARK    4  A    between atoms: C_7  and  N_9
REMARK    5  A    between atoms: C_10  and  O_12
REMARK    6  A    between atoms: O_12  and  C_13
REMARK    7  A    between atoms: C_16  and  C_17
REMARK    8  A    between atoms: C_17  and  N_18
REMARK    9  A    between atoms: C_21  and  N_23
REMARK   10  A    between atoms: C_24  and  O_26
REMARK   11  A    between atoms: C_27  and  O_29
REMARK   12  A    between atoms: O_29  and  C_30
REMARK   13  A    between atoms: C_34  and  O_36
REMARK   14  A    between atoms: C_37  and  N_39
REMARK   15  A    between atoms: N_39  and  C_40
REMARK   16  A    between atoms: C_41  and  C_42
REMARK   17  A    between atoms: C_41  and  O_43
REMARK                            x       y       z     vdW  Elec       q    Type
REMARK                         _______ _______ _______ _____ _____    ______ ____
ROOT
ATOM      1  C   UNL     1       4.455   0.998   0.889  0.00  0.00    +0.087 C 
ATOM      2  C   UNL     1       5.074   2.340   1.356  0.00  0.00    +0.169 C 
ATOM      3  C   UNL     1       5.075   3.417   0.281  0.00  0.00    +0.175 C 
ATOM      4  C   UNL     1       5.171   3.100  -1.212  0.00  0.00    +0.170 C 
ATOM      5  C   UNL     1       4.474   1.763  -1.553  0.00  0.00    +0.084 C 
ATOM      6  C   UNL     1       4.879   0.662  -0.556  0.00  0.00    +0.042 C 
ENDROOT
BRANCH   5   7
ATOM      7  N   UNL     1       4.811   1.334  -2.925  0.00  0.00    -0.325 NA
ATOM      8  H   UNL     1       5.820   1.377  -3.069  0.00  0.00    +0.119 HD
ATOM      9  H   UNL     1       4.536   0.366  -3.078  0.00  0.00    +0.119 HD
ENDBRANCH   5   7
BRANCH   1  10
ATOM     10  N   UNL     1       4.853  -0.153   1.744  0.00  0.00    -0.311 NA
ATOM     11  H   UNL     1       4.429  -1.009   1.384  0.00  0.00    +0.122 HD
BRANCH  10  13
ATOM     12  C   UNL     1       4.904  -1.218   3.964  0.00  0.00    +0.020 C 
ATOM     13  C   UNL     1       4.487   0.002   3.155  0.00  0.00    +0.078 C 
ENDBRANCH  10  13
ENDBRANCH   1  10
BRANCH   3  14
ATOM     14  O   UNL     1       6.173   4.289   0.622  0.00  0.00    -0.387 OA
ATOM     15  H   UNL     1       5.819   4.953   1.248  0.00  0.00    +0.210 HD
ENDBRANCH   3  14
BRANCH   2  16
ATOM     16  O   UNL     1       4.269   2.849   2.465  0.00  0.00    -0.341 OA
BRANCH  16  17
ATOM     17  C   UNL     1       4.807   3.979   3.192  0.00  0.00    +0.284 C 
ATOM     18  C   UNL     1       4.094   4.136   4.567  0.00  0.00    +0.131 C 
ATOM     19  C   UNL     1       4.791   5.227   5.391  0.00  0.00    +0.048 C 
ATOM     20  C   UNL     1       2.573   4.421   4.321  0.00  0.00    +0.121 C 
ATOM     21  C   UNL     1       2.415   5.672   3.419  0.00  0.00    +0.160 C 
ATOM     22  C   UNL     1       3.309   5.590   2.186  0.00  0.00    +0.196 C 
ATOM     23  O   UNL     1       4.664   5.211   2.459  0.00  0.00    -0.346 OA
BRANCH  20  24
ATOM     24  N   UNL     1       1.966   3.157   3.799  0.00  0.00    -0.311 NA
ATOM     25  H   UNL     1       2.503   2.839   2.981  0.00  0.00    +0.122 HD
ATOM     26  C   UNL     1       0.562   3.237   3.455  0.00  0.00    +0.101 C 
ENDBRANCH  20  24
BRANCH  18  27
ATOM     27  O   UNL     1       4.218   2.912   5.319  0.00  0.00    -0.382 OA
ATOM     28  H   UNL     1       3.526   2.332   4.943  0.00  0.00    +0.210 HD
ENDBRANCH  18  27
BRANCH  21  29
ATOM     29  O   UNL     1       2.706   6.857   4.170  0.00  0.00    -0.388 OA
ATOM     30  H   UNL     1       2.852   7.593   3.549  0.00  0.00    +0.210 HD
ENDBRANCH  21  29
ENDBRANCH  16  17
ENDBRANCH   2  16
BRANCH   4  31
ATOM     31  O   UNL     1       4.546   4.204  -1.975  0.00  0.00    -0.333 OA
BRANCH  31  32
ATOM     32  C   UNL     1       5.133   5.501  -1.665  0.00  0.00    +0.324 C 
ATOM     33  C   UNL     1       4.435   6.731  -2.345  0.00  0.00    +0.124 C 
ATOM     34  C   UNL     1       5.427   7.786  -2.869  0.00  0.00    +0.055 C 
ATOM     35  C   UNL     1       6.801   7.279  -3.147  0.00  0.00    +0.017 C 
ATOM     36  C   UNL     1       7.277   6.156  -2.600  0.00  0.00    +0.111 C 
ATOM     37  O   UNL     1       6.536   5.386  -1.771  0.00  0.00    -0.465 OA
BRANCH  33  38
ATOM     38  N   UNL     1       3.344   6.423  -3.294  0.00  0.00    -0.322 NA
ATOM     39  H   UNL     1       3.153   7.220  -3.890  0.00  0.00    +0.119 HD
ATOM     40  H   UNL     1       3.644   5.647  -3.881  0.00  0.00    +0.119 HD
ENDBRANCH  33  38
BRANCH  36  41
ATOM     41  C   UNL     1       8.667   5.585  -2.747  0.00  0.00    +0.152 C 
BRANCH  41  42
ATOM     42  N   UNL     1       9.574   6.318  -3.618  0.00  0.00    -0.324 NA
ATOM     43  H   UNL     1      10.467   5.829  -3.618  0.00  0.00    +0.119 HD
ATOM     44  H   UNL     1       9.219   6.248  -4.570  0.00  0.00    +0.119 HD
ENDBRANCH  41  42
ENDBRANCH  36  41
ENDBRANCH  31  32
ENDBRANCH   4  31
TORSDOF 14
