REMARK  Name = 
REMARK  3 active torsions:
REMARK  status: ('A' for Active; 'I' for Inactive)
REMARK    1  A    between atoms: C_2  and  C_5
REMARK    2  A    between atoms: C_5  and  N_6
REMARK    3  A    between atoms: C_14  and  C_19
REMARK                            x       y       z     vdW  Elec       q    Type
REMARK                         _______ _______ _______ _____ _____    ______ ____
ROOT
ATOM      1  N   UNL     1       4.321  -0.411  -1.295  0.00  0.00    -0.261 N 
ATOM      2  C   UNL     1       4.959  -1.653  -1.341  0.00  0.00    +0.241 C 
ATOM      3  O   UNL     1       4.314  -2.703  -1.386  0.00  0.00    -0.273 OA
ATOM      4  C   UNL     1       6.478  -1.651  -1.395  0.00  0.00    +0.238 C 
ATOM      5  N   UNL     1       6.981  -1.291  -0.073  0.00  0.00    -0.273 NA
ATOM      6  C   UNL     1       6.823  -0.077   0.335  0.00  0.00    +0.075 C 
ATOM      7  C   UNL     1       6.216   1.009  -0.497  0.00  0.00    +0.023 A 
ATOM      8  C   UNL     1       6.875   2.252  -0.499  0.00  0.00    +0.032 A 
ATOM      9  C   UNL     1       6.310   3.345  -1.144  0.00  0.00    +0.042 A 
ATOM     10  C   UNL     1       5.103   3.209  -1.817  0.00  0.00    +0.022 A 
ATOM     11  C   UNL     1       4.461   1.965  -1.854  0.00  0.00    +0.025 A 
ATOM     12 CL   UNL     1       7.094   4.874  -1.087  0.00  0.00    -0.084 Cl
ATOM     13  C   UNL     1       5.005   0.840  -1.206  0.00  0.00    +0.046 A 
ENDROOT
BRANCH   6  14
ATOM     14  C   UNL     1       7.302   0.243   1.724  0.00  0.00    +0.001 A 
ATOM     15  C   UNL     1       8.363  -0.500   2.259  0.00  0.00    +0.010 A 
ATOM     16  C   UNL     1       8.863  -0.205   3.528  0.00  0.00    +0.001 A 
ATOM     17  C   UNL     1       8.302   0.829   4.275  0.00  0.00    +0.000 A 
ATOM     18  C   UNL     1       7.222   1.551   3.766  0.00  0.00    +0.001 A 
ATOM     19  C   UNL     1       6.713   1.252   2.499  0.00  0.00    +0.010 A 
ENDBRANCH   6  14
BRANCH   1  20
ATOM     20  C   UNL     1       2.849  -0.452  -1.329  0.00  0.00    +0.226 C 
BRANCH  20  22
ATOM     21  F   UNL     1       3.128  -1.261  -3.585  0.00  0.00    -0.169 F 
ATOM     22  C   UNL     1       2.219  -0.951  -2.635  0.00  0.00    +0.406 C 
ATOM     23  F   UNL     1       1.431  -2.030  -2.432  0.00  0.00    -0.169 F 
ATOM     24  F   UNL     1       1.428   0.022  -3.158  0.00  0.00    -0.169 F 
ENDBRANCH  20  22
ENDBRANCH   1  20
TORSDOF 3
