REMARK  Name = 
REMARK  7 active torsions:
REMARK  status: ('A' for Active; 'I' for Inactive)
REMARK    1  A    between atoms: C_9  and  C_11
REMARK    2  A    between atoms: C_11  and  C_12
REMARK    3  A    between atoms: C_21  and  C_22
REMARK    4  A    between atoms: C_21  and  N_23
REMARK    5  A    between atoms: C_24  and  C_26
REMARK    6  A    between atoms: N_29  and  C_30
REMARK    7  A    between atoms: C_47  and  O_48
REMARK                            x       y       z     vdW  Elec       q    Type
REMARK                         _______ _______ _______ _____ _____    ______ ____
ROOT
ATOM      1  C   UNL     1       0.091   0.326   0.790  0.00  0.00    +0.156 C 
ATOM      2  C   UNL     1      -0.651  -1.869  -1.906  0.00  0.00    +0.269 C 
ATOM      3  N   UNL     1       0.091   0.326   0.790  0.00  0.00    -0.233 N 
ATOM      4  C   UNL     1       0.091   0.326   0.790  0.00  0.00    +0.271 C 
ATOM      5  O   UNL     1       0.091   0.326   0.790  0.00  0.00    -0.270 OA
ATOM      6  C   UNL     1       0.091   0.326   0.790  0.00  0.00    +0.215 C 
ATOM      7  C   UNL     1       0.091   0.326   0.790  0.00  0.00    +0.074 C 
ATOM      8  C   UNL     1       0.091   0.326   0.790  0.00  0.00    +0.171 C 
ATOM      9  C   UNL     1       0.091   0.326   0.790  0.00  0.00    +0.237 C 
ATOM     10  O   UNL     1       0.091   0.326   0.790  0.00  0.00    -0.274 OA
ATOM     11  O   UNL     1       0.034  -1.118  -1.924  0.00  0.00    -0.299 OA
ATOM     12  N   UNL     1       0.091   0.326   0.790  0.00  0.00    -0.290 N 
ATOM     13  C   UNL     1       0.091   0.326   0.790  0.00  0.00    +0.108 C 
ATOM     14  C   UNL     1       0.091   0.326   0.790  0.00  0.00    +0.021 C 
ATOM     15  C   UNL     1       0.091   0.326   0.790  0.00  0.00    +0.031 C 
ENDROOT
BRANCH   6  16
ATOM     16  N   UNL     1       0.091   0.326   0.790  0.00  0.00    -0.280 N 
ATOM     17  H   UNL     1       0.211   0.755   1.831  0.00  0.00    +0.152 HD
ATOM     18  C   UNL     1       0.091   0.326   0.790  0.00  0.00    +0.220 C 
ATOM     19  O   UNL     1       0.091   0.326   0.790  0.00  0.00    -0.275 OA
BRANCH  18  20
ATOM     20  C   UNL     1       0.091   0.326   0.790  0.00  0.00    +0.090 C 
ATOM     21  C   UNL     1       0.445   1.012   3.257  0.00  0.00    +0.023 C 
ATOM     22  C   UNL     1       0.089   0.337   2.340  0.00  0.00    +0.038 C 
ATOM     23  C   UNL     1       0.091   0.326   0.790  0.00  0.00    +0.068 C 
ATOM     24  C   UNL     1       0.091   0.326   0.790  0.00  0.00    +0.056 C 
ATOM     25  C   UNL     1       0.091   0.326   0.790  0.00  0.00    -0.021 A 
ATOM     26  C   UNL     1       0.091   0.326   0.790  0.00  0.00    +0.006 A 
ATOM     27  C   UNL     1       0.091   0.326   0.790  0.00  0.00    +0.047 A 
ATOM     28  C   UNL     1       0.091   0.326   0.790  0.00  0.00    +0.026 A 
ATOM     29  C   UNL     1       0.091   0.326   0.790  0.00  0.00    +0.002 A 
ATOM     30  C   UNL     1       0.091   0.326   0.790  0.00  0.00    +0.004 A 
ATOM     31  N   UNL     1       0.091   0.326   0.790  0.00  0.00    -0.360 N 
ATOM     32  H   UNL     1       0.150   0.537   1.303  0.00  0.00    +0.165 HD
ATOM     33  C   UNL     1       0.091   0.326   0.790  0.00  0.00    +0.087 A 
ATOM     34  N   UNL     1       0.091   0.326   0.790  0.00  0.00    -0.301 NA
ATOM     35  C   UNL     1       0.091   0.326   0.790  0.00  0.00    +0.105 C 
ATOM     36  C   UNL     1       0.091   0.326   0.790  0.00  0.00    -0.033 A 
ATOM     37  C   UNL     1       0.091   0.326   0.790  0.00  0.00    +0.097 C 
ENDBRANCH  18  20
ENDBRANCH   6  16
BRANCH   2  38
ATOM     38  O   UNL     1      -1.300  -3.871  -3.979  0.00  0.00    -0.348 OA
ATOM     39  H   UNL     1      -1.721  -5.146  -5.806  0.00  0.00    +0.214 HD
ENDBRANCH   2  38
BRANCH   8  40
ATOM     40  C   UNL     1       0.091   0.326   0.790  0.00  0.00    +0.067 C 
BRANCH  40  41
ATOM     41  C   UNL     1       0.091   0.326   0.790  0.00  0.00    -0.045 A 
ATOM     42  C   UNL     1       0.091   0.326   0.790  0.00  0.00    +0.004 A 
ATOM     43  C   UNL     1       0.091   0.326   0.790  0.00  0.00    +0.000 A 
ATOM     44  C   UNL     1       0.091   0.326   0.790  0.00  0.00    +0.000 A 
ATOM     45  C   UNL     1       0.091   0.326   0.790  0.00  0.00    +0.000 A 
ATOM     46  C   UNL     1       0.091   0.326   0.790  0.00  0.00    +0.004 A 
ENDBRANCH  40  41
ENDBRANCH   8  40
TORSDOF 5
