REMARK  Name = 
REMARK  42 active torsions:
REMARK  status: ('A' for Active; 'I' for Inactive)
REMARK    1  A    between atoms: C_1  and  C_2
REMARK    2  A    between atoms: C_2  and  C_3
REMARK    3  A    between atoms: C_3  and  C_4
REMARK    4  A    between atoms: C_3  and  C_5
REMARK    5  A    between atoms: C_5  and  C_6
REMARK    6  A    between atoms: C_6  and  C_7
REMARK    7  A    between atoms: C_7  and  C_8
REMARK    8  A    between atoms: C_8  and  C_9
REMARK    9  A    between atoms: N_11  and  C_12
REMARK   10  A    between atoms: C_12  and  C_13
REMARK   11  A    between atoms: C_12  and  C_16
REMARK   12  A    between atoms: C_13  and  C_14
REMARK   13  A    between atoms: C_14  and  N_15
REMARK   14  A    between atoms: N_18  and  C_19
REMARK   15  A    between atoms: C_19  and  C_20
REMARK   16  A    between atoms: C_19  and  C_23
REMARK   17  A    between atoms: C_20  and  C_21
REMARK   18  A    between atoms: C_20  and  O_22
REMARK   19  A    between atoms: N_25  and  C_26
REMARK   20  A    between atoms: C_26  and  C_27
REMARK   21  A    between atoms: C_26  and  C_30
REMARK   22  A    between atoms: C_27  and  C_28
REMARK   23  A    between atoms: C_28  and  N_29
REMARK   24  A    between atoms: N_32  and  C_33
REMARK   25  A    between atoms: C_39  and  C_83
REMARK   26  A    between atoms: C_43  and  C_44
REMARK   27  A    between atoms: C_44  and  C_45
REMARK   28  A    between atoms: C_45  and  N_46
REMARK   29  A    between atoms: C_50  and  C_51
REMARK   30  A    between atoms: C_51  and  C_52
REMARK   31  A    between atoms: C_52  and  N_53
REMARK   32  A    between atoms: C_57  and  C_58
REMARK   33  A    between atoms: C_58  and  C_59
REMARK   34  A    between atoms: C_59  and  C_60
REMARK   35  A    between atoms: C_59  and  C_61
REMARK   36  A    between atoms: C_65  and  C_66
REMARK   37  A    between atoms: C_66  and  C_67
REMARK   38  A    between atoms: C_76  and  C_77
REMARK   39  A    between atoms: C_77  and  C_78
REMARK   40  A    between atoms: C_78  and  N_79
REMARK   41  A    between atoms: C_83  and  C_84
REMARK   42  A    between atoms: C_83  and  O_85
REMARK                            x       y       z     vdW  Elec       q    Type
REMARK                         _______ _______ _______ _____ _____    ______ ____
ROOT
ATOM      1  C   UNL     1      21.295   5.531  -8.032  0.00  0.00    +0.160 C 
ATOM      2  C   UNL     1      21.835   3.491  -8.252  0.00  0.00    +0.234 C 
ATOM      3  O   UNL     1      20.835   2.783  -7.851  0.00  0.00    -0.274 OA
ATOM      4  N   UNL     1      23.011   1.990  -8.723  0.00  0.00    -0.302 N 
ATOM      5  H   UNL     1      22.205   1.478  -8.282  0.00  0.00    +0.150 HD
ATOM      6  C   UNL     1      23.653   0.139  -9.086  0.00  0.00    +0.160 C 
ATOM      7  C   UNL     1      23.996  -1.514  -8.312  0.00  0.00    +0.234 C 
ATOM      8  O   UNL     1      23.398  -2.552  -8.624  0.00  0.00    -0.274 OA
ATOM      9  N   UNL     1      24.992  -1.686  -7.318  0.00  0.00    -0.302 N 
ATOM     10  H   UNL     1      25.993  -1.830  -7.579  0.00  0.00    +0.150 HD
ATOM     11  C   UNL     1      24.789  -0.537  -6.535  0.00  0.00    +0.163 C 
ATOM     12  C   UNL     1      25.785   0.255  -7.461  0.00  0.00    +0.234 C 
ATOM     13  O   UNL     1      26.735  -0.263  -8.052  0.00  0.00    -0.274 OA
ATOM     14  N   UNL     1      25.504   1.523  -7.701  0.00  0.00    -0.302 N 
ATOM     15  H   UNL     1      25.336   2.052  -6.850  0.00  0.00    +0.150 HD
ATOM     16  C   UNL     1      26.120   2.242  -8.810  0.00  0.00    +0.159 C 
ATOM     17  C   UNL     1      25.946   3.581  -8.208  0.00  0.00    +0.234 C 
ATOM     18  O   UNL     1      26.138   3.733  -6.993  0.00  0.00    -0.274 OA
ATOM     19  N   UNL     1      25.592   4.595  -9.028  0.00  0.00    -0.302 N 
ATOM     20  H   UNL     1      25.641   4.560 -10.043  0.00  0.00    +0.150 HD
ATOM     21  C   UNL     1      25.410   5.826  -8.345  0.00  0.00    +0.160 C 
ATOM     22  C   UNL     1      25.689   7.008  -9.248  0.00  0.00    +0.234 C 
ATOM     23  O   UNL     1      26.190   6.888 -10.362  0.00  0.00    -0.274 OA
ATOM     24  N   UNL     1      25.440   8.211  -8.644  0.00  0.00    -0.302 N 
ATOM     25  H   UNL     1      25.107   8.266  -7.682  0.00  0.00    +0.150 HD
ATOM     26  C   UNL     1      25.947   9.439  -9.197  0.00  0.00    +0.160 C 
ATOM     27  C   UNL     1      25.450  10.548  -8.303  0.00  0.00    +0.234 C 
ATOM     28  O   UNL     1      25.085  10.359  -7.139  0.00  0.00    -0.274 OA
ATOM     29  N   UNL     1      25.397  11.756  -8.910  0.00  0.00    -0.300 N 
ATOM     30  H   UNL     1      25.906  11.951  -9.769  0.00  0.00    +0.150 HD
ATOM     31  C   UNL     1      24.595  12.809  -8.321  0.00  0.00    +0.187 C 
ATOM     32  C   UNL     1      22.968  12.114  -8.489  0.00  0.00    +0.236 C 
ATOM     33  O   UNL     1      22.049  12.882  -8.782  0.00  0.00    -0.274 OA
ATOM     34  N   UNL     1      22.786  10.618  -8.143  0.00  0.00    -0.314 N 
ATOM     35  H   UNL     1      23.367  10.487  -7.315  0.00  0.00    +0.149 HD
ATOM     36  C   UNL     1      21.571   9.284  -8.185  0.00  0.00    +0.106 C 
ATOM     37  C   UNL     1      21.970   7.390  -8.125  0.00  0.00    +0.050 C 
ENDROOT
BRANCH   1  39
ATOM     38  C   UNL     1      19.301   7.718  -6.637  0.00  0.00    +0.234 C 
ATOM     39  N   UNL     1      20.140   6.298  -6.744  0.00  0.00    -0.302 N 
ATOM     40  H   UNL     1      20.431   6.067  -5.805  0.00  0.00    +0.150 HD
ATOM     41  O   UNL     1      19.120   8.380  -7.673  0.00  0.00    -0.274 OA
BRANCH  38  42
ATOM     42  C   UNL     1      18.428   8.379  -5.079  0.00  0.00    +0.160 C 
BRANCH  42  44
ATOM     43  C   UNL     1      16.988   9.737  -3.062  0.00  0.00    +0.236 C 
ATOM     44  N   UNL     1      17.472   9.698  -4.437  0.00  0.00    -0.302 N 
ATOM     45  H   UNL     1      16.980  10.299  -5.092  0.00  0.00    +0.150 HD
ATOM     46  O   UNL     1      17.563   9.018  -2.229  0.00  0.00    -0.274 OA
BRANCH  43  47
ATOM     47  C   UNL     1      15.678  10.669  -2.451  0.00  0.00    +0.187 C 
BRANCH  47  49
ATOM     48  C   UNL     1      14.853  12.957  -3.204  0.00  0.00    +0.234 C 
ATOM     49  N   UNL     1      14.918  11.578  -3.323  0.00  0.00    -0.300 N 
ATOM     50  H   UNL     1      14.160  11.151  -3.834  0.00  0.00    +0.150 HD
ATOM     51  O   UNL     1      15.333  13.577  -2.259  0.00  0.00    -0.274 OA
BRANCH  48  52
ATOM     52  C   UNL     1      14.133  13.675  -4.394  0.00  0.00    +0.160 C 
BRANCH  52  54
ATOM     53  C   UNL     1      13.210  15.980  -4.703  0.00  0.00    +0.214 C 
ATOM     54  N   UNL     1      14.130  15.124  -4.145  0.00  0.00    -0.304 N 
ATOM     55  H   UNL     1      14.818  15.483  -3.489  0.00  0.00    +0.149 HD
ATOM     56  O   UNL     1      12.277  15.591  -5.401  0.00  0.00    -0.276 OA
BRANCH  53  57
ATOM     57  C   UNL     1      13.422  17.452  -4.392  0.00  0.00    +0.096 C 
BRANCH  57  58
ATOM     58  C   UNL     1      14.758  17.963  -4.929  0.00  0.00    +0.009 C 
BRANCH  58  59
ATOM     59  C   UNL     1      14.918  19.455  -4.658  0.00  0.00    +0.001 C 
BRANCH  59  60
ATOM     60  C   UNL     1      16.245  19.996  -5.202  0.00  0.00    +0.003 C 
BRANCH  60  61
ATOM     61  C   UNL     1      16.422  21.506  -4.934  0.00  0.00    -0.014 C 
ATOM     62  C   UNL     1      15.282  22.318  -5.559  0.00  0.00    +0.007 C 
BRANCH  61  64
ATOM     63  C   UNL     1      18.078  23.439  -5.158  0.00  0.00    +0.004 C 
ATOM     64  C   UNL     1      17.794  21.973  -5.461  0.00  0.00    -0.000 C 
ENDBRANCH  61  64
ENDBRANCH  60  61
ENDBRANCH  59  60
ENDBRANCH  58  59
ENDBRANCH  57  58
ENDBRANCH  53  57
ENDBRANCH  52  54
BRANCH  52  65
ATOM     65  C   UNL     1      14.850  13.366  -5.732  0.00  0.00    +0.046 C 
BRANCH  65  66
ATOM     66  C   UNL     1      14.720  11.901  -6.162  0.00  0.00    +0.080 C 
BRANCH  66  67
ATOM     67  N   UNL     1      15.487  11.546  -7.337  0.00  0.00    -0.330 NA
ATOM     68  H   UNL     1      15.415  10.540  -7.497  0.00  0.00    +0.118 HD
ATOM     69  H   UNL     1      15.096  11.991  -8.164  0.00  0.00    +0.118 HD
ENDBRANCH  66  67
ENDBRANCH  65  66
ENDBRANCH  52  65
ENDBRANCH  48  52
ENDBRANCH  47  49
BRANCH  47  70
ATOM     70  C   UNL     1      14.626   9.751  -1.683  0.00  0.00    +0.141 C 
ATOM     71  C   UNL     1      13.443  10.474  -0.984  0.00  0.00    +0.040 C 
BRANCH  70  72
ATOM     72  O   UNL     1      14.043   8.818  -2.605  0.00  0.00    -0.390 OA
ATOM     73  H   UNL     1      13.531   9.299  -3.271  0.00  0.00    +0.210 HD
ENDBRANCH  70  72
ENDBRANCH  47  70
ENDBRANCH  43  47
ENDBRANCH  42  44
BRANCH  42  74
ATOM     74  C   UNL     1      17.357   7.322  -4.976  0.00  0.00    +0.046 C 
BRANCH  74  75
ATOM     75  C   UNL     1      16.300   7.600  -6.054  0.00  0.00    +0.080 C 
BRANCH  75  76
ATOM     76  N   UNL     1      15.700   6.324  -6.384  0.00  0.00    -0.330 NA
ATOM     77  H   UNL     1      15.075   6.429  -7.177  0.00  0.00    +0.118 HD
ATOM     78  H   UNL     1      16.448   5.701  -6.696  0.00  0.00    +0.118 HD
ENDBRANCH  75  76
ENDBRANCH  74  75
ENDBRANCH  42  74
ENDBRANCH  38  42
ENDBRANCH   1  39
BRANCH  31  79
ATOM     79  C   UNL     1      25.192  14.171  -8.997  0.00  0.00    +0.141 C 
ATOM     80  C   UNL     1      24.842  15.557  -8.445  0.00  0.00    +0.040 C 
BRANCH  79  81
ATOM     81  O   UNL     1      26.665  14.129  -8.970  0.00  0.00    -0.390 OA
ATOM     82  H   UNL     1      26.996  14.525  -8.140  0.00  0.00    +0.210 HD
ENDBRANCH  79  81
ENDBRANCH  31  79
BRANCH  26  83
ATOM     83  C   UNL     1      27.463   9.505  -9.170  0.00  0.00    +0.046 C 
BRANCH  83  84
ATOM     84  C   UNL     1      27.975   9.422  -7.727  0.00  0.00    +0.080 C 
BRANCH  84  85
ATOM     85  N   UNL     1      29.423   9.445  -7.712  0.00  0.00    -0.330 NA
ATOM     86  H   UNL     1      29.736   9.355  -6.747  0.00  0.00    +0.118 HD
ATOM     87  H   UNL     1      29.772   8.628  -8.209  0.00  0.00    +0.118 HD
ENDBRANCH  84  85
ENDBRANCH  83  84
ENDBRANCH  26  83
BRANCH  21  88
ATOM     88  C   UNL     1      24.019   5.803  -7.807  0.00  0.00    +0.046 C 
BRANCH  88  89
ATOM     89  C   UNL     1      23.662   4.867  -6.661  0.00  0.00    +0.080 C 
BRANCH  89  90
ATOM     90  N   UNL     1      24.388   5.267  -5.484  0.00  0.00    -0.330 NA
ATOM     91  H   UNL     1      24.117   4.643  -4.728  0.00  0.00    +0.118 HD
ATOM     92  H   UNL     1      25.369   5.033  -5.674  0.00  0.00    +0.118 HD
ENDBRANCH  89  90
ENDBRANCH  88  89
ENDBRANCH  21  88
BRANCH  16  93
ATOM     93  C   UNL     1      27.619   2.089  -8.965  0.00  0.00    +0.034 C 
BRANCH  93  94
ATOM     94  C   UNL     1      28.252   3.230  -9.759  0.00  0.00    -0.015 C 
ATOM     95  C   UNL     1      27.866   3.120 -11.232  0.00  0.00    +0.007 C 
ATOM     96  C   UNL     1      29.744   3.163  -9.510  0.00  0.00    +0.007 C 
ENDBRANCH  93  94
ENDBRANCH  16  93
BRANCH  11  97
ATOM     97  C   UNL     1      23.081  -0.663  -6.367  0.00  0.00    +0.067 C 
BRANCH  97  98
ATOM     98  C   UNL     1      22.827  -1.938  -5.531  0.00  0.00    -0.045 A 
ATOM     99  C   UNL     1      22.302  -3.186  -5.986  0.00  0.00    +0.004 A 
ATOM    100  C   UNL     1      22.639  -4.372  -5.313  0.00  0.00    +0.000 A 
ATOM    101  C   UNL     1      23.601  -4.323  -4.309  0.00  0.00    +0.000 A 
ATOM    102  C   UNL     1      24.107  -3.099  -3.887  0.00  0.00    +0.000 A 
ATOM    103  C   UNL     1      23.604  -1.919  -4.389  0.00  0.00    +0.004 A 
ENDBRANCH  97  98
ENDBRANCH  11  97
BRANCH   6 104
ATOM    104  C   UNL     1      25.048  -0.929 -10.076  0.00  0.00    +0.046 C 
BRANCH 104 105
ATOM    105  C   UNL     1      26.290  -2.396  -9.704  0.00  0.00    +0.080 C 
BRANCH 105 106
ATOM    106  N   UNL     1      27.624  -2.780  -8.978  0.00  0.00    -0.330 NA
ATOM    107  H   UNL     1      27.709  -3.827  -8.948  0.00  0.00    +0.118 HD
ATOM    108  H   UNL     1      28.482  -2.596  -9.518  0.00  0.00    +0.118 HD
ENDBRANCH 105 106
ENDBRANCH 104 105
ENDBRANCH   6 104
TORSDOF 36
