REMARK  Name = 
REMARK  11 active torsions:
REMARK  status: ('A' for Active; 'I' for Inactive)
REMARK    1  A    between atoms: C_1  and  C_2
REMARK    2  A    between atoms: C_2  and  C_3
REMARK    3  A    between atoms: C_2  and  N_4
REMARK    4  A    between atoms: N_4  and  C_5
REMARK    5  A    between atoms: C_5  and  C_6
REMARK    6  A    between atoms: C_6  and  O_7
REMARK    7  A    between atoms: C_6  and  C_8
REMARK    8  A    between atoms: C_8  and  O_9
REMARK    9  A    between atoms: O_9  and  C_10
REMARK   10  A    between atoms: C_13  and  C_14
REMARK   11  A    between atoms: C_14  and  C_15
REMARK                            x       y       z     vdW  Elec       q    Type
REMARK                         _______ _______ _______ _____ _____    ______ ____
ROOT
ATOM      1  C   UNL     1       8.267   4.191  -1.216  0.00  0.00    +0.121 A 
ATOM      2  C   UNL     1       8.871   5.429  -1.454  0.00  0.00    +0.046 A 
ATOM      3  C   UNL     1      10.266   5.569  -1.378  0.00  0.00    +0.007 A 
ATOM      4  C   UNL     1      11.073   4.471  -1.051  0.00  0.00    -0.038 A 
ATOM      5  C   UNL     1      10.470   3.226  -0.875  0.00  0.00    +0.007 A 
ATOM      6  C   UNL     1       9.082   3.086  -0.958  0.00  0.00    +0.046 A 
ENDROOT
BRANCH   1   7
ATOM      7  O   UNL     1       6.892   4.166  -1.235  0.00  0.00    -0.489 OA
BRANCH   7   8
ATOM      8  C   UNL     1       6.312   2.895  -0.900  0.00  0.00    +0.261 C 
BRANCH   8   9
ATOM      9  C   UNL     1       4.785   2.975  -0.812  0.00  0.00    +0.166 C 
BRANCH   9  10
ATOM     10  O   UNL     1       4.236   3.409  -2.064  0.00  0.00    -0.387 OA
ATOM     11  H   UNL     1       4.743   4.201  -2.320  0.00  0.00    +0.210 HD
ENDBRANCH   9  10
BRANCH   9  12
ATOM     12  C   UNL     1       4.328   3.910   0.321  0.00  0.00    +0.115 C 
BRANCH  12  13
ATOM     13  N   UNL     1       2.875   3.790   0.498  0.00  0.00    -0.311 NA
ATOM     14  H   UNL     1       2.433   3.951  -0.411  0.00  0.00    +0.122 HD
BRANCH  13  16
ATOM     15  C   UNL     1       0.800   4.561   1.488  0.00  0.00    +0.023 C 
ATOM     16  C   UNL     1       2.325   4.701   1.505  0.00  0.00    +0.048 C 
ATOM     17  C   UNL     1       2.852   4.388   2.907  0.00  0.00    +0.023 C 
ENDBRANCH  13  16
ENDBRANCH  12  13
ENDBRANCH   9  12
ENDBRANCH   8   9
ENDBRANCH   7   8
ENDBRANCH   1   7
BRANCH   4  18
ATOM     18  C   UNL     1      12.560   4.619  -0.811  0.00  0.00    +0.130 C 
BRANCH  18  19
ATOM     19  C   UNL     1      13.511   4.280  -1.943  0.00  0.00    +0.215 C 
ATOM     20  O   UNL     1      14.729   4.258  -1.780  0.00  0.00    -0.276 OA
ATOM     21  N   UNL     1      12.997   3.997  -3.169  0.00  0.00    -0.329 N 
ATOM     22  H   UNL     1      13.656   3.800  -3.911  0.00  0.00    +0.145 HD
ATOM     23  H   UNL     1      12.016   4.084  -3.398  0.00  0.00    +0.145 HD
ENDBRANCH  18  19
ENDBRANCH   4  18
TORSDOF 9
