REMARK  Name = 
REMARK  16 active torsions:
REMARK  status: ('A' for Active; 'I' for Inactive)
REMARK    1  A    between atoms: C_1  and  N_2
REMARK    2  A    between atoms: C_3  and  C_5
REMARK    3  A    between atoms: C_5  and  N_7
REMARK    4  A    between atoms: C_5  and  C_23
REMARK    5  A    between atoms: C_8  and  C_10
REMARK    6  A    between atoms: C_10  and  C_12
REMARK    7  A    between atoms: C_10  and  C_16
REMARK    8  A    between atoms: C_12  and  C_13
REMARK    9  A    between atoms: C_13  and  C_14
REMARK   10  A    between atoms: C_13  and  C_15
REMARK   11  A    between atoms: C_16  and  O_18
REMARK   12  A    between atoms: C_16  and  C_19
REMARK   13  A    between atoms: N_21  and  O_22
REMARK   14  A    between atoms: C_23  and  C_24
REMARK   15  A    between atoms: C_23  and  C_25
REMARK   16  A    between atoms: C_23  and  C_26
REMARK                            x       y       z     vdW  Elec       q    Type
REMARK                         _______ _______ _______ _____ _____    ______ ____
ROOT
ATOM      1  N   UNL     1       6.047   0.613  -6.182  0.00  0.00    -0.303 N 
ATOM      2  H   UNL     1       6.950   0.361  -5.792  0.00  0.00    +0.149 HD
ATOM      3  C   UNL     1       5.060   1.025  -5.317  0.00  0.00    +0.220 C 
ATOM      4  O   UNL     1       3.901   1.180  -5.688  0.00  0.00    -0.275 OA
ENDROOT
BRANCH   1   5
ATOM      5  C   UNL     1       5.816   0.312  -7.604  0.00  0.00    +0.164 C 
BRANCH   5   9
ATOM      6  C   UNL     1       3.490  -2.706  -7.193  0.00  0.00    +0.128 C 
ATOM      7  N   UNL     1       4.159  -1.444  -7.024  0.00  0.00    -0.317 N 
ATOM      8  H   UNL     1       3.678  -0.670  -6.564  0.00  0.00    +0.148 HD
ATOM      9  C   UNL     1       5.297  -1.152  -7.752  0.00  0.00    +0.234 C 
ATOM     10  O   UNL     1       5.785  -1.982  -8.520  0.00  0.00    -0.274 OA
ENDBRANCH   5   9
BRANCH   5  11
ATOM     11  C   UNL     1       7.084   0.644  -8.461  0.00  0.00    -0.011 C 
ATOM     12  C   UNL     1       8.289  -0.252  -8.106  0.00  0.00    +0.013 C 
ATOM     13  C   UNL     1       7.498   2.114  -8.227  0.00  0.00    +0.013 C 
ATOM     14  C   UNL     1       6.778   0.518  -9.968  0.00  0.00    +0.013 C 
ENDBRANCH   5  11
ENDBRANCH   1   5
BRANCH   3  15
ATOM     15  C   UNL     1       5.532   1.205  -3.872  0.00  0.00    +0.113 C 
BRANCH  15  16
ATOM     16  C   UNL     1       6.244   2.563  -3.679  0.00  0.00    +0.214 C 
BRANCH  16  17
ATOM     17  C   UNL     1       7.581   2.614  -4.441  0.00  0.00    +0.265 C 
ATOM     18  N   UNL     1       8.002   3.887  -4.762  0.00  0.00    -0.195 N 
ATOM     19  H   UNL     1       7.303   4.602  -4.953  0.00  0.00    +0.182 HD
ATOM     20  O   UNL     1       8.258   1.616  -4.699  0.00  0.00    -0.271 OA
BRANCH  18  21
ATOM     21  O   UNL     1       9.166   3.948  -5.566  0.00  0.00    -0.295 OA
ATOM     22  H   UNL     1       9.395   3.003  -5.698  0.00  0.00    +0.241 HD
ENDBRANCH  18  21
ENDBRANCH  16  17
BRANCH  16  23
ATOM     23  O   UNL     1       5.390   3.663  -3.969  0.00  0.00    -0.382 OA
ATOM     24  H   UNL     1       5.667   4.412  -3.409  0.00  0.00    +0.210 HD
ENDBRANCH  16  23
ENDBRANCH  15  16
BRANCH  15  25
ATOM     25  C   UNL     1       4.360   1.020  -2.882  0.00  0.00    +0.018 C 
BRANCH  25  26
ATOM     26  C   UNL     1       3.711  -0.387  -2.923  0.00  0.00    -0.016 C 
ATOM     27  C   UNL     1       2.522  -0.450  -1.962  0.00  0.00    +0.007 C 
ATOM     28  C   UNL     1       4.696  -1.510  -2.592  0.00  0.00    +0.007 C 
ENDBRANCH  25  26
ENDBRANCH  15  25
ENDBRANCH   3  15
TORSDOF 10
