REMARK  Name = 
REMARK  13 active torsions:
REMARK  status: ('A' for Active; 'I' for Inactive)
REMARK    1  A    between atoms: C_1  and  C_2
REMARK    2  A    between atoms: C_2  and  N_3
REMARK    3  A    between atoms: N_3  and  C_4
REMARK    4  A    between atoms: N_3  and  C_5
REMARK    5  A    between atoms: N_3  and  C_7
REMARK    6  A    between atoms: C_5  and  C_6
REMARK    7  A    between atoms: C_7  and  C_8
REMARK    8  A    between atoms: C_8  and  O_9
REMARK    9  A    between atoms: O_9  and  C_10
REMARK   10  A    between atoms: C_10  and  C_12
REMARK   11  A    between atoms: C_12  and  O_13
REMARK   12  A    between atoms: C_12  and  C_14
REMARK   13  A    between atoms: C_12  and  C_20
REMARK                            x       y       z     vdW  Elec       q    Type
REMARK                         _______ _______ _______ _____ _____    ______ ____
ROOT
ATOM      1  C   UNL     1       8.506   3.330  -2.381  0.00  0.00    +0.190 C 
ENDROOT
BRANCH   1   2
ATOM      2  C   UNL     1       9.016   4.572  -3.135  0.00  0.00    -0.005 A 
ATOM      3  C   UNL     1       8.706   4.778  -4.494  0.00  0.00    +0.007 A 
ATOM      4  C   UNL     1       9.037   5.968  -5.146  0.00  0.00    +0.000 A 
ATOM      5  C   UNL     1       9.676   6.988  -4.452  0.00  0.00    +0.000 A 
ATOM      6  C   UNL     1       9.999   6.812  -3.111  0.00  0.00    +0.000 A 
ATOM      7  C   UNL     1       9.679   5.616  -2.463  0.00  0.00    +0.007 A 
ENDBRANCH   1   2
BRANCH   1   8
ATOM      8  C   UNL     1       9.218   1.974  -2.723  0.00  0.00    +0.036 C 
ATOM      9  C   UNL     1       9.273   1.496  -4.186  0.00  0.00    +0.007 C 
ATOM     10  C   UNL     1       8.021   0.784  -4.686  0.00  0.00    +0.000 C 
ATOM     11  C   UNL     1       7.586  -0.344  -3.758  0.00  0.00    +0.000 C 
ATOM     12  C   UNL     1       7.498   0.096  -2.303  0.00  0.00    +0.000 C 
ATOM     13  C   UNL     1       8.774   0.786  -1.830  0.00  0.00    +0.007 C 
ENDBRANCH   1   8
BRANCH   1  14
ATOM     14  C   UNL     1       6.946   3.355  -2.514  0.00  0.00    +0.344 C 
ATOM     15  O   UNL     1       6.281   3.218  -3.531  0.00  0.00    -0.247 OA
BRANCH  14  16
ATOM     16  O   UNL     1       6.369   3.667  -1.309  0.00  0.00    -0.457 OA
BRANCH  16  17
ATOM     17  C   UNL     1       5.304   4.623  -1.402  0.00  0.00    +0.283 C 
BRANCH  17  18
ATOM     18  C   UNL     1       3.979   4.133  -2.018  0.00  0.00    +0.174 C 
BRANCH  18  19
ATOM     19  N   UNL     1       3.222   2.974  -1.242  0.00  0.00    +0.243 N 
ATOM     20  C   UNL     1       2.899   3.467   0.164  0.00  0.00    +0.192 C 
BRANCH  19  22
ATOM     21  C   UNL     1       0.900   1.810  -1.501  0.00  0.00    +0.060 C 
ATOM     22  C   UNL     1       1.933   2.760  -2.079  0.00  0.00    +0.129 C 
ENDBRANCH  19  22
BRANCH  19  23
ATOM     23  C   UNL     1       4.142   1.745  -1.217  0.00  0.00    +0.129 C 
ATOM     24  C   UNL     1       3.571   0.474  -0.621  0.00  0.00    +0.060 C 
ENDBRANCH  19  23
ENDBRANCH  18  19
ENDBRANCH  17  18
ENDBRANCH  16  17
ENDBRANCH  14  16
ENDBRANCH   1  14
BRANCH   1  25
ATOM     25  O   UNL     1       8.819   3.554  -0.977  0.00  0.00    -0.373 OA
ATOM     26  H   UNL     1       8.126   3.127  -0.446  0.00  0.00    +0.211 HD
ENDBRANCH   1  25
TORSDOF 10
