REMARK  Name = 
REMARK  12 active torsions:
REMARK  status: ('A' for Active; 'I' for Inactive)
REMARK    1  A    between atoms: N_16  and  C_17
REMARK    2  A    between atoms: N_16  and  C_18
REMARK    3  A    between atoms: C_27  and  O_28
REMARK    4  A    between atoms: O_28  and  C_29
REMARK    5  A    between atoms: N_34  and  C_35
REMARK    6  A    between atoms: N_34  and  C_36
REMARK    7  A    between atoms: C_39  and  O_40
REMARK    8  A    between atoms: O_40  and  C_41
REMARK    9  A    between atoms: C_45  and  O_46
REMARK   10  A    between atoms: O_46  and  C_47
REMARK   11  A    between atoms: C_48  and  O_49
REMARK   12  A    between atoms: O_49  and  C_50
REMARK                            x       y       z     vdW  Elec       q    Type
REMARK                         _______ _______ _______ _____ _____    ______ ____
ROOT
ATOM      1  I   UNL     1      -0.452  -1.896  -1.175  0.00  0.00    +0.000 I 
ENDROOT
TORSDOF 0
REMARK  Name = 
REMARK  12 active torsions:
REMARK  status: ('A' for Active; 'I' for Inactive)
REMARK    1  A    between atoms: N_16  and  C_17
REMARK    2  A    between atoms: N_16  and  C_18
REMARK    3  A    between atoms: C_27  and  O_28
REMARK    4  A    between atoms: O_28  and  C_29
REMARK    5  A    between atoms: N_34  and  C_35
REMARK    6  A    between atoms: N_34  and  C_36
REMARK    7  A    between atoms: C_39  and  O_40
REMARK    8  A    between atoms: O_40  and  C_41
REMARK    9  A    between atoms: C_45  and  O_46
REMARK   10  A    between atoms: O_46  and  C_47
REMARK   11  A    between atoms: C_48  and  O_49
REMARK   12  A    between atoms: O_49  and  C_50
REMARK                            x       y       z     vdW  Elec       q    Type
REMARK                         _______ _______ _______ _____ _____    ______ ____
ROOT
ATOM      1  I   UNL     1      -0.934  -0.037   2.339  0.00  0.00    +0.000 I 
ENDROOT
TORSDOF 0
REMARK  Name = 
REMARK  12 active torsions:
REMARK  status: ('A' for Active; 'I' for Inactive)
REMARK    1  A    between atoms: N_16  and  C_17
REMARK    2  A    between atoms: N_16  and  C_18
REMARK    3  A    between atoms: C_27  and  O_28
REMARK    4  A    between atoms: O_28  and  C_29
REMARK    5  A    between atoms: N_34  and  C_35
REMARK    6  A    between atoms: N_34  and  C_36
REMARK    7  A    between atoms: C_39  and  O_40
REMARK    8  A    between atoms: O_40  and  C_41
REMARK    9  A    between atoms: C_45  and  O_46
REMARK   10  A    between atoms: O_46  and  C_47
REMARK   11  A    between atoms: C_48  and  O_49
REMARK   12  A    between atoms: O_49  and  C_50
REMARK                            x       y       z     vdW  Elec       q    Type
REMARK                         _______ _______ _______ _____ _____    ______ ____
ROOT
ATOM      1  C   UNL     1       2.905   0.437   0.104  0.00  0.00    +0.101 C 
ATOM      2  C   UNL     1       4.079   0.330   1.243  0.00  0.00    +0.008 A 
ATOM      3  C   UNL     1       5.359  -0.338   1.289  0.00  0.00    +0.059 A 
ATOM      4  C   UNL     1       6.184  -0.134   2.484  0.00  0.00    +0.170 A 
ATOM      5  C   UNL     1       5.279  -0.746   3.486  0.00  0.00    +0.162 A 
ATOM      6  C   UNL     1       4.142   0.106   3.685  0.00  0.00    +0.053 A 
ATOM      7  O   UNL     1       6.849   1.257   2.662  0.00  0.00    -0.449 OA
ATOM      8  C   UNL     1       8.250   1.815   2.477  0.00  0.00    +0.170 A 
ATOM      9  C   UNL     1       9.161   3.114   2.709  0.00  0.00    +0.162 A 
ATOM     10  C   UNL     1      10.624   2.893   2.655  0.00  0.00    +0.050 A 
ATOM     11  C   UNL     1      11.166   1.678   2.360  0.00  0.00    +0.007 A 
ATOM     12  C   UNL     1      10.294   0.697   1.995  0.00  0.00    -0.038 A 
ATOM     13  C   UNL     1      10.709  -0.584   1.665  0.00  0.00    +0.095 C 
ATOM     14  C   UNL     1      11.025  -0.606   0.138  0.00  0.00    +0.105 C 
ATOM     15  C   UNL     1      10.386  -1.954  -0.256  0.00  0.00    +0.050 A 
ATOM     16  C   UNL     1      11.195  -3.076  -0.163  0.00  0.00    -0.027 A 
ATOM     17  C   UNL     1      10.711  -4.346  -0.233  0.00  0.00    +0.054 A 
ATOM     18  C   UNL     1       9.364  -4.563  -0.347  0.00  0.00    +0.165 A 
ATOM     19  C   UNL     1       8.480  -3.514  -0.486  0.00  0.00    +0.205 A 
ATOM     20  C   UNL     1      12.648  -2.980   0.038  0.00  0.00    +0.087 C 
ATOM     21  C   UNL     1      13.116  -1.622   0.368  0.00  0.00    +0.138 C 
ATOM     22  C   UNL     1       8.983  -2.115  -0.516  0.00  0.00    +0.182 A 
ATOM     23  O   UNL     1       8.336  -0.889  -0.755  0.00  0.00    -0.452 OA
ATOM     24  C   UNL     1       7.090  -0.614  -1.211  0.00  0.00    +0.129 A 
ATOM     25  C   UNL     1       6.329  -1.670  -1.564  0.00  0.00    +0.046 A 
ATOM     26  C   UNL     1       4.996  -1.685  -1.605  0.00  0.00    +0.007 A 
ATOM     27  C   UNL     1       4.395  -0.485  -1.598  0.00  0.00    -0.041 A 
ATOM     28  C   UNL     1       5.145   0.683  -1.706  0.00  0.00    +0.007 A 
ATOM     29  C   UNL     1       6.510   0.654  -1.370  0.00  0.00    +0.046 A 
ATOM     30  N   UNL     1      12.510  -0.415  -0.355  0.00  0.00    +0.245 N 
ATOM     31  C   UNL     1      12.129   0.254  -1.683  0.00  0.00    +0.193 C 
ATOM     32  C   UNL     1      13.795   0.414  -0.237  0.00  0.00    +0.193 C 
ATOM     33  C   UNL     1       8.945   0.976   1.674  0.00  0.00    +0.054 A 
ATOM     34  C   UNL     1       3.672   0.792   2.506  0.00  0.00    -0.030 A 
ATOM     35  C   UNL     1       2.672   1.916   2.517  0.00  0.00    +0.086 C 
ATOM     36  C   UNL     1       1.839   2.252   1.171  0.00  0.00    +0.138 C 
ATOM     37  N   UNL     1       2.547   1.919  -0.100  0.00  0.00    +0.245 N 
ATOM     38  C   UNL     1       1.666   2.024  -1.300  0.00  0.00    +0.193 C 
ATOM     39  C   UNL     1       3.562   2.946  -0.296  0.00  0.00    +0.193 C 
ATOM     40  C   UNL     1       2.997  -0.440  -1.250  0.00  0.00    +0.094 C 
ENDROOT
BRANCH   5  41
ATOM     41  O   UNL     1       5.287  -2.130   3.859  0.00  0.00    -0.491 OA
ATOM     42  C   UNL     1       4.379  -3.231   4.173  0.00  0.00    +0.277 C 
ENDBRANCH   5  41
BRANCH   9  43
ATOM     43  O   UNL     1       8.806   4.424   3.097  0.00  0.00    -0.491 OA
ATOM     44  C   UNL     1       9.676   5.460   2.768  0.00  0.00    +0.277 C 
ENDBRANCH   9  43
BRANCH  18  45
ATOM     45  O   UNL     1       8.844  -5.809  -0.345  0.00  0.00    -0.491 OA
ATOM     46  C   UNL     1       9.521  -6.971  -0.422  0.00  0.00    +0.277 C 
ENDBRANCH  18  45
BRANCH  19  47
ATOM     47  O   UNL     1       7.186  -3.997  -0.554  0.00  0.00    -0.488 OA
ATOM     48  C   UNL     1       6.749  -4.871  -1.569  0.00  0.00    +0.277 C 
ENDBRANCH  19  47
TORSDOF 4
