REMARK  Name = 
REMARK  3 active torsions:
REMARK  status: ('A' for Active; 'I' for Inactive)
REMARK    1  A    between atoms: N_6  and  C_10
REMARK    2  A    between atoms: C_14  and  C_16
REMARK    3  A    between atoms: C_16  and  O_17
REMARK                            x       y       z     vdW  Elec       q    Type
REMARK                         _______ _______ _______ _____ _____    ______ ____
ROOT
ATOM      1  N   UNL     1       8.232   0.470  -5.253  0.00  0.00    -0.341 N 
ATOM      2  H   UNL     1       8.664   1.304  -5.634  0.00  0.00    +0.144 HD
ATOM      3  H   UNL     1       7.601  -0.021  -5.876  0.00  0.00    +0.144 HD
ATOM      4  C   UNL     1       7.839   0.493  -3.943  0.00  0.00    +0.159 A 
ATOM      5  C   UNL     1       8.454   1.440  -2.994  0.00  0.00    +0.179 A 
ATOM      6  F   UNL     1       9.352   2.323  -3.463  0.00  0.00    -0.200 F 
ATOM      7  C   UNL     1       8.085   1.358  -1.722  0.00  0.00    +0.135 A 
ATOM      8  N   UNL     1       7.127   0.446  -1.319  0.00  0.00    -0.269 N 
ATOM      9  C   UNL     1       6.499  -0.394  -2.264  0.00  0.00    +0.352 A 
ATOM     10  O   UNL     1       5.595  -1.157  -1.931  0.00  0.00    -0.244 OA
ATOM     11  N   UNL     1       6.916  -0.346  -3.578  0.00  0.00    -0.175 NA
ENDROOT
BRANCH   8  12
ATOM     12  C   UNL     1       6.718   0.288   0.083  0.00  0.00    +0.235 C 
ATOM     13  O   UNL     1       7.354  -0.891   0.609  0.00  0.00    -0.340 OA
ATOM     14  C   UNL     1       8.422  -0.577   1.514  0.00  0.00    +0.203 C 
ATOM     15  S   UNL     1       8.578   1.211   1.712  0.00  0.00    -0.123 S 
ATOM     16  C   UNL     1       6.932   1.468   1.037  0.00  0.00    +0.126 C 
BRANCH  14  17
ATOM     17  C   UNL     1       9.703  -1.263   1.016  0.00  0.00    +0.198 C 
BRANCH  17  18
ATOM     18  O   UNL     1      10.012  -0.907  -0.333  0.00  0.00    -0.392 OA
ATOM     19  H   UNL     1       9.208  -1.112  -0.848  0.00  0.00    +0.210 HD
ENDBRANCH  17  18
ENDBRANCH  14  17
ENDBRANCH   8  12
TORSDOF 3
