REMARK  Name = 
REMARK  2 active torsions:
REMARK  status: ('A' for Active; 'I' for Inactive)
REMARK    1  A    between atoms: C_1  and  N_2
REMARK    2  A    between atoms: C_6  and  C_12
REMARK                            x       y       z     vdW  Elec       q    Type
REMARK                         _______ _______ _______ _____ _____    ______ ____
ROOT
ATOM      1  C   UNL     1       1.214   0.000  -0.084  0.00  0.00    +0.179 C 
ATOM      2  N   UNL     1       2.659  -0.058  -0.078  0.00  0.00    -0.199 N 
ATOM      3  C   UNL     1       3.278  -1.294  -0.074  0.00  0.00    +0.353 A 
ATOM      4  O   UNL     1       2.773  -2.407  -0.075  0.00  0.00    -0.244 OA
ATOM      5  N   UNL     1       4.651  -1.157  -0.067  0.00  0.00    -0.232 N 
ATOM      6  C   UNL     1       5.289   0.050  -0.065  0.00  0.00    +0.197 A 
ATOM      7  C   UNL     1       6.638  -0.253  -0.055  0.00  0.00    +0.171 A 
ATOM      8  N   UNL     1       6.823  -1.634  -0.053  0.00  0.00    -0.228 NA
ATOM      9  N   UNL     1       4.566   1.189  -0.071  0.00  0.00    -0.110 NA
ATOM     10  C   UNL     1       5.607  -2.138  -0.060  0.00  0.00    +0.210 A 
ATOM     11  N   UNL     1       3.314   1.151  -0.077  0.00  0.00    -0.060 NA
ENDROOT
BRANCH   7  12
ATOM     12  C   UNL     1       7.746   0.695  -0.048  0.00  0.00    +0.264 C 
ATOM     13  O   UNL     1       7.625   1.914  -0.050  0.00  0.00    -0.269 OA
ATOM     14  N   UNL     1       8.975   0.098  -0.039  0.00  0.00    -0.324 N 
ATOM     15  H   UNL     1       9.803   0.672  -0.033  0.00  0.00    +0.145 HD
ATOM     16  H   UNL     1       9.041  -0.913  -0.037  0.00  0.00    +0.145 HD
ENDBRANCH   7  12
TORSDOF 1
