REMARK  Name = 
REMARK  3 active torsions:
REMARK  status: ('A' for Active; 'I' for Inactive)
REMARK    1  A    between atoms: C_4  and  O_14
REMARK    2  A    between atoms: O_14  and  C_15
REMARK    3  A    between atoms: C_15  and  C_17
REMARK                            x       y       z     vdW  Elec       q    Type
REMARK                         _______ _______ _______ _____ _____    ______ ____
ROOT
ATOM      1  O   UNL     1       0.648   1.991  -0.247  0.00  0.00    -0.458 OA
ENDROOT
BRANCH   1  10
ATOM      2  C   UNL     1       2.965  -0.008  -0.190  0.00  0.00    +0.062 C 
ATOM      3  N   UNL     1       3.229  -0.215   1.272  0.00  0.00    -0.289 NA
ATOM      4  C   UNL     1       1.896  -0.015   1.847  0.00  0.00    +0.062 C 
ATOM      5  C   UNL     1       0.966  -1.081   1.085  0.00  0.00    +0.030 C 
ATOM      6  C   UNL     1       1.842  -2.063   0.114  0.00  0.00    +0.059 C 
ATOM      7  C   UNL     1       2.894  -2.639   1.020  0.00  0.00    +0.150 C 
ATOM      8  O   UNL     1       3.104  -3.841   1.139  0.00  0.00    -0.296 OA
ATOM      9  C   UNL     1       1.777   1.547   1.736  0.00  0.00    +0.063 C 
ATOM     10  C   UNL     1       1.974   2.171   0.316  0.00  0.00    +0.180 C 
ATOM     11  C   UNL     1       3.721  -1.558   1.693  0.00  0.00    +0.159 C 
ATOM     12  C   UNL     1       2.759  -1.304  -0.927  0.00  0.00    +0.030 C 
ATOM     13  C   UNL     1       3.107   1.456  -0.535  0.00  0.00    +0.063 C 
ENDBRANCH   1  10
BRANCH   1  14
ATOM     14  C   UNL     1       0.308   2.664  -1.366  0.00  0.00    +0.341 C 
ATOM     15  O   UNL     1       1.087   3.341  -2.024  0.00  0.00    -0.245 OA
BRANCH  14  16
ATOM     16  C   UNL     1      -1.097   2.478  -1.699  0.00  0.00    +0.084 A 
ATOM     17  C   UNL     1      -1.768   2.971  -2.854  0.00  0.00    +0.014 A 
ATOM     18  C   UNL     1      -3.116   2.621  -2.744  0.00  0.00    +0.047 A 
ATOM     19  C   UNL     1      -4.068   2.976  -3.708  0.00  0.00    +0.026 A 
ATOM     20  C   UNL     1      -3.623   3.698  -4.820  0.00  0.00    +0.002 A 
ATOM     21  C   UNL     1      -2.283   4.048  -4.965  0.00  0.00    +0.001 A 
ATOM     22  N   UNL     1      -3.261   1.917  -1.568  0.00  0.00    -0.360 N 
ATOM     23  H   UNL     1      -4.131   1.541  -1.230  0.00  0.00    +0.165 HD
ATOM     24  C   UNL     1      -1.349   3.692  -3.990  0.00  0.00    +0.011 A 
ATOM     25  C   UNL     1      -2.054   1.825  -0.935  0.00  0.00    +0.098 A 
ENDBRANCH  14  16
ENDBRANCH   1  14
TORSDOF 3
