REMARK  Name = 
REMARK  12 active torsions:
REMARK  status: ('A' for Active; 'I' for Inactive)
REMARK    1  A    between atoms: C_1  and  O_2
REMARK    2  A    between atoms: O_2  and  C_3
REMARK    3  A    between atoms: C_8  and  C_10
REMARK    4  A    between atoms: C_10  and  C_11
REMARK    5  A    between atoms: C_10  and  O_12
REMARK    6  A    between atoms: C_10  and  C_13
REMARK    7  A    between atoms: C_13  and  C_14
REMARK    8  A    between atoms: C_13  and  C_15
REMARK    9  A    between atoms: C_13  and  C_16
REMARK   10  A    between atoms: N_29  and  C_30
REMARK   11  A    between atoms: C_30  and  C_31
REMARK   12  A    between atoms: C_34  and  O_35
REMARK                            x       y       z     vdW  Elec       q    Type
REMARK                         _______ _______ _______ _____ _____    ______ ____
ROOT
ATOM      1  C   UNL     1       0.758  -2.032   0.472  0.00  0.00    +0.112 C 
ATOM      2  C   UNL     1      -0.946  -1.351   1.096  0.00  0.00    +0.217 C 
ATOM      3  C   UNL     1      -1.554  -0.198   0.212  0.00  0.00    +0.047 C 
ATOM      4  C   UNL     1      -2.089   1.343   0.510  0.00  0.00    +0.031 C 
ATOM      5  C   UNL     1      -1.764   2.590  -0.514  0.00  0.00    +0.086 C 
ATOM      6  N   UNL     1      -0.871   2.371  -1.738  0.00  0.00    -0.298 NA
ATOM      7  C   UNL     1      -0.819   0.835  -1.904  0.00  0.00    +0.068 C 
ATOM      8  C   UNL     1      -2.352   0.471  -2.400  0.00  0.00    +0.055 C 
ATOM      9  C   UNL     1      -3.313  -0.367  -1.498  0.00  0.00    -0.038 A 
ATOM     10  C   UNL     1      -4.566  -0.875  -1.771  0.00  0.00    +0.008 A 
ATOM     11  C   UNL     1      -5.058  -1.960  -0.985  0.00  0.00    +0.049 A 
ATOM     12  C   UNL     1      -4.294  -2.531   0.058  0.00  0.00    +0.159 A 
ATOM     13  C   UNL     1      -3.105  -1.923   0.397  0.00  0.00    +0.166 A 
ATOM     14  C   UNL     1      -2.762  -0.812  -0.302  0.00  0.00    +0.012 A 
ATOM     15  C   UNL     1      -0.512  -0.296  -0.842  0.00  0.00    +0.000 C 
ATOM     16  C   UNL     1       0.701   0.249   0.325  0.00  0.00    +0.018 C 
ATOM     17  C   UNL     1      -0.637  -1.924  -1.431  0.00  0.00    +0.012 C 
ATOM     18  O   UNL     1      -2.081  -2.350   1.220  0.00  0.00    -0.481 OA
ATOM     19  C   UNL     1       1.563  -0.812   1.006  0.00  0.00    +0.057 C 
ATOM     20  C   UNL     1       0.111  -2.918  -0.535  0.00  0.00    +0.040 C 
ENDROOT
BRANCH   1  22
ATOM     21  C   UNL     1       1.774  -1.490  -2.163  0.00  0.00    +0.194 C 
ATOM     22  O   UNL     1       1.793  -1.699  -0.731  0.00  0.00    -0.373 OA
ENDBRANCH   1  22
BRANCH  12  23
ATOM     23  O   UNL     1      -4.721  -3.681   0.637  0.00  0.00    -0.503 OA
ATOM     24  H   UNL     1      -3.998  -3.976   1.224  0.00  0.00    +0.292 HD
ENDBRANCH  12  23
BRANCH  19  25
ATOM     25  C   UNL     1       3.137  -0.203   0.809  0.00  0.00    +0.074 C 
ATOM     26  C   UNL     1       3.195   1.055   1.748  0.00  0.00    +0.042 C 
BRANCH  25  27
ATOM     27  C   UNL     1       4.477  -1.057   0.928  0.00  0.00    -0.009 C 
ATOM     28  C   UNL     1       4.562  -2.130  -0.181  0.00  0.00    +0.013 C 
ATOM     29  C   UNL     1       4.702  -1.751   2.276  0.00  0.00    +0.013 C 
ATOM     30  C   UNL     1       5.726  -0.127   0.685  0.00  0.00    +0.013 C 
ENDBRANCH  25  27
BRANCH  25  31
ATOM     31  O   UNL     1       3.270   0.354  -0.530  0.00  0.00    -0.388 OA
ATOM     32  H   UNL     1       3.936   1.072  -0.531  0.00  0.00    +0.210 HD
ENDBRANCH  25  31
ENDBRANCH  19  25
BRANCH   6  33
ATOM     33  C   UNL     1       0.462   3.076  -1.437  0.00  0.00    +0.088 C 
BRANCH  33  34
ATOM     34  C   UNL     1       1.797   2.628  -1.978  0.00  0.00    +0.003 C 
ATOM     35  C   UNL     1       2.936   3.646  -1.825  0.00  0.00    +0.005 C 
ATOM     36  C   UNL     1       2.614   3.055  -3.141  0.00  0.00    +0.005 C 
ENDBRANCH  33  34
ENDBRANCH   6  33
TORSDOF 7
