REMARK  Name = 
REMARK  11 active torsions:
REMARK  status: ('A' for Active; 'I' for Inactive)
REMARK    1  A    between atoms: N_1  and  C_2
REMARK    2  A    between atoms: C_2  and  C_3
REMARK    3  A    between atoms: C_3  and  C_4
REMARK    4  A    between atoms: C_4  and  C_5
REMARK    5  A    between atoms: C_5  and  O_6
REMARK    6  A    between atoms: C_5  and  P_7
REMARK    7  A    between atoms: C_5  and  P_11
REMARK    8  A    between atoms: P_7  and  O_8
REMARK    9  A    between atoms: P_7  and  O_9
REMARK   10  A    between atoms: P_11  and  O_12
REMARK   11  A    between atoms: P_11  and  O_13
REMARK                            x       y       z     vdW  Elec       q    Type
REMARK                         _______ _______ _______ _____ _____    ______ ____
ROOT
ATOM      1  C   UNL     1       5.009   0.933   2.623  0.00  0.00    +0.267 C 
ENDROOT
BRANCH   1   2
ATOM      2  P   UNL     1       6.839   0.933   2.623  0.00  0.00    +0.371 P 
ATOM      3  O   UNL     1       8.387   0.933   2.623  0.00  0.00    -0.255 OA
BRANCH   2   4
ATOM      4  O   UNL     1       6.719   2.003   3.894  0.00  0.00    -0.322 OA
ATOM      5  H   UNL     1       6.203   2.778   3.561  0.00  0.00    +0.220 HD
ENDBRANCH   2   4
BRANCH   2   6
ATOM      6  O   UNL     1       6.872   2.150   1.513  0.00  0.00    -0.322 OA
ATOM      7  H   UNL     1       7.819   2.405   1.449  0.00  0.00    +0.220 HD
ENDBRANCH   2   6
ENDBRANCH   1   2
BRANCH   1   8
ATOM      8  P   UNL     1       4.403  -0.136   4.007  0.00  0.00    +0.371 P 
ATOM      9  O   UNL     1       4.982  -1.503   4.079  0.00  0.00    -0.255 OA
BRANCH   8  10
ATOM     10  O   UNL     1       2.805  -0.118   3.817  0.00  0.00    -0.322 OA
ATOM     11  H   UNL     1       2.363  -0.812   4.344  0.00  0.00    +0.220 HD
ENDBRANCH   8  10
BRANCH   8  12
ATOM     12  O   UNL     1       4.546   0.737   5.351  0.00  0.00    -0.322 OA
ATOM     13  H   UNL     1       5.256   1.419   5.306  0.00  0.00    +0.220 HD
ENDBRANCH   8  12
ENDBRANCH   1   8
BRANCH   1  14
ATOM     14  O   UNL     1       4.489   2.277   2.874  0.00  0.00    -0.367 OA
ATOM     15  H   UNL     1       3.522   2.161   2.982  0.00  0.00    +0.212 HD
ENDBRANCH   1  14
BRANCH   1  16
ATOM     16  C   UNL     1       4.401   0.361   1.309  0.00  0.00    +0.061 C 
BRANCH  16  17
ATOM     17  C   UNL     1       4.637   1.170   0.028  0.00  0.00    +0.019 C 
BRANCH  17  18
ATOM     18  C   UNL     1       3.882   0.609  -1.181  0.00  0.00    +0.078 C 
BRANCH  18  19
ATOM     19  N   UNL     1       2.438   0.648  -0.991  0.00  0.00    -0.330 NA
ATOM     20  H   UNL     1       2.134   1.614  -0.876  0.00  0.00    +0.118 HD
ATOM     21  H   UNL     1       1.978   0.308  -1.836  0.00  0.00    +0.118 HD
ENDBRANCH  18  19
ENDBRANCH  17  18
ENDBRANCH  16  17
ENDBRANCH   1  16
TORSDOF 11
