REMARK  Name = 
REMARK  4 active torsions:
REMARK  status: ('A' for Active; 'I' for Inactive)
REMARK    1  A    between atoms: O5*_1  and  C5*_2
REMARK    2  A    between atoms: C5*_2  and  C4*_3
REMARK    3  A    between atoms: C1*_6  and  N_12
REMARK    4  A    between atoms: C3*_9  and  O3*_11
REMARK                            x       y       z     vdW  Elec       q    Type
REMARK                         _______ _______ _______ _____ _____    ______ ____
ROOT
ATOM      1  C4* UNL     1       3.050   1.379  -0.476  0.00  0.00    +0.175 C 
ATOM      2  C3* UNL     1       4.502   1.631  -0.080  0.00  0.00    +0.150 C 
ATOM      3  C2* UNL     1       4.618   3.142   0.015  0.00  0.00    +0.088 C 
ATOM      4  C1* UNL     1       3.210   3.646  -0.282  0.00  0.00    +0.226 C 
ATOM      5  O4* UNL     1       2.323   2.543  -0.047  0.00  0.00    -0.348 OA
ENDROOT
BRANCH   4   6
ATOM      6  N   UNL     1       2.818   4.807   0.507  0.00  0.00    -0.273 N 
ATOM      7  C   UNL     1       3.161   6.056   0.012  0.00  0.00    +0.331 A 
ATOM      8  O   UNL     1       3.797   6.236  -1.023  0.00  0.00    -0.246 OA
ATOM      9  N   UNL     1       2.739   7.124   0.758  0.00  0.00    -0.274 N 
ATOM     10  H   UNL     1       2.934   8.040   0.386  0.00  0.00    +0.173 HD
ATOM     11  C   UNL     1       2.002   7.069   1.909  0.00  0.00    +0.267 A 
ATOM     12  O   UNL     1       1.598   8.097   2.447  0.00  0.00    -0.267 OA
ATOM     13  C   UNL     1       1.735   5.704   2.441  0.00  0.00    +0.094 A 
ATOM     14  I   UNL     1       0.733   5.476   4.208  0.00  0.00    -0.037 I 
ATOM     15  C   UNL     1       2.157   4.661   1.715  0.00  0.00    +0.113 A 
ENDBRANCH   4   6
BRANCH   2  16
ATOM     16  O3* UNL     1       5.388   1.104  -1.061  0.00  0.00    -0.389 OA
ATOM     17  H3* UNL     1       6.295   1.225  -0.730  0.00  0.00    +0.210 HD
ENDBRANCH   2  16
BRANCH   1  18
ATOM     18  C5* UNL     1       2.454   0.108   0.129  0.00  0.00    +0.190 C 
BRANCH  18  19
ATOM     19  O5* UNL     1       2.630   0.071   1.545  0.00  0.00    -0.392 OA
ATOM     20  H5* UNL     1       2.255  -0.773   1.851  0.00  0.00    +0.210 HD
ENDBRANCH  18  19
ENDBRANCH   1  18
TORSDOF 4
