REMARK  Name = 
REMARK  1 active torsions:
REMARK  status: ('A' for Active; 'I' for Inactive)
REMARK    1  A    between atoms: N_1  and  C_2
REMARK                            x       y       z     vdW  Elec       q    Type
REMARK                         _______ _______ _______ _____ _____    ______ ____
ROOT
ATOM      1  C   UNL     1       2.356  -0.054   0.041  0.00  0.00    +0.168 C 
ATOM      2  C   UNL     1       2.977  -1.262   0.701  0.00  0.00    +0.255 C 
ATOM      3  O   UNL     1       2.554  -2.407   0.693  0.00  0.00    -0.272 OA
ATOM      4  N   UNL     1       4.154  -0.850   1.287  0.00  0.00    -0.193 N 
ATOM      5  H   UNL     1       4.659  -1.416   1.956  0.00  0.00    +0.182 HD
ATOM      6  O   UNL     1       4.237   0.563   1.347  0.00  0.00    -0.278 OA
ATOM      7  C   UNL     1       2.942   1.030   0.940  0.00  0.00    +0.218 C 
ENDROOT
BRANCH   1   8
ATOM      8  N   UNL     1       2.787   0.044  -1.368  0.00  0.00    -0.318 NA
ATOM      9  H   UNL     1       2.482   0.934  -1.758  0.00  0.00    +0.119 HD
ATOM     10  H   UNL     1       3.808   0.058  -1.396  0.00  0.00    +0.119 HD
ENDBRANCH   1   8
TORSDOF 1
