REMARK  Name = 
REMARK  8 active torsions:
REMARK  status: ('A' for Active; 'I' for Inactive)
REMARK    1  A    between atoms: O_1  and  C_2
REMARK    2  A    between atoms: C_2  and  C_3
REMARK    3  A    between atoms: C_3  and  N_4
REMARK    4  A    between atoms: C_6  and  O_8
REMARK    5  A    between atoms: C_9  and  O_11
REMARK    6  A    between atoms: C_12  and  O_14
REMARK    7  A    between atoms: C_15  and  C_17
REMARK    8  A    between atoms: C_17  and  O_18
REMARK                            x       y       z     vdW  Elec       q    Type
REMARK                         _______ _______ _______ _____ _____    ______ ____
ROOT
ATOM      1  N   UNL     1       4.312  -1.071  -0.717  0.00  0.00    -0.290 NA
ATOM      2  C   UNL     1       4.932   0.222  -0.258  0.00  0.00    +0.113 C 
ATOM      3  C   UNL     1       4.597   1.418  -1.178  0.00  0.00    +0.165 C 
ATOM      4  C   UNL     1       5.005   1.121  -2.627  0.00  0.00    +0.174 C 
ATOM      5  C   UNL     1       4.484  -0.242  -3.113  0.00  0.00    +0.159 C 
ATOM      6  C   UNL     1       4.806  -1.345  -2.084  0.00  0.00    +0.119 C 
ENDROOT
BRANCH   3   7
ATOM      7  O   UNL     1       5.272   2.610  -0.756  0.00  0.00    -0.388 OA
ATOM      8  H   UNL     1       5.179   3.235  -1.504  0.00  0.00    +0.210 HD
ENDBRANCH   3   7
BRANCH   4   9
ATOM      9  O   UNL     1       4.498   2.207  -3.428  0.00  0.00    -0.387 OA
ATOM     10  H   UNL     1       4.053   1.816  -4.201  0.00  0.00    +0.210 HD
ENDBRANCH   4   9
BRANCH   5  11
ATOM     11  O   UNL     1       5.088  -0.537  -4.377  0.00  0.00    -0.388 OA
ATOM     12  H   UNL     1       4.801  -1.427  -4.650  0.00  0.00    +0.210 HD
ENDBRANCH   5  11
BRANCH   1  13
ATOM     13  C   UNL     1       2.829  -1.046  -0.652  0.00  0.00    +0.112 C 
BRANCH  13  14
ATOM     14  C   UNL     1       2.144  -2.388  -0.970  0.00  0.00    +0.171 C 
BRANCH  14  15
ATOM     15  O   UNL     1       0.731  -2.220  -0.896  0.00  0.00    -0.394 OA
ATOM     16  H   UNL     1       0.331  -3.098  -1.017  0.00  0.00    +0.209 HD
ENDBRANCH  14  15
ENDBRANCH  13  14
ENDBRANCH   1  13
BRANCH   2  17
ATOM     17  C   UNL     1       4.652   0.546   1.221  0.00  0.00    +0.177 C 
BRANCH  17  18
ATOM     18  O   UNL     1       4.927  -0.601   2.030  0.00  0.00    -0.393 OA
ATOM     19  H   UNL     1       4.741  -1.371   1.460  0.00  0.00    +0.209 HD
ENDBRANCH  17  18
ENDBRANCH   2  17
TORSDOF 8
