REMARK  Name = 
REMARK  14 active torsions:
REMARK  status: ('A' for Active; 'I' for Inactive)
REMARK    1  A    between atoms: C_4  and  C_6
REMARK    2  A    between atoms: C_7  and  O_8
REMARK    3  A    between atoms: C_7  and  C_13
REMARK    4  A    between atoms: O_8  and  C_9
REMARK    5  A    between atoms: C_9  and  C_11
REMARK    6  A    between atoms: C_11  and  C_12
REMARK    7  A    between atoms: C_13  and  C_15
REMARK    8  A    between atoms: C_15  and  O_16
REMARK    9  A    between atoms: O_16  and  C_17
REMARK   10  A    between atoms: C_17  and  C_19
REMARK   11  A    between atoms: C_19  and  C_20
REMARK   12  A    between atoms: C_21  and  C_22
REMARK   13  A    between atoms: C_24  and  O_26
REMARK   14  A    between atoms: C_39  and  C_40
REMARK                            x       y       z     vdW  Elec       q    Type
REMARK                         _______ _______ _______ _____ _____    ______ ____
ROOT
ATOM      1  C   UNL     1      -0.000  -0.000  -0.000  0.00  0.00    +0.005 C 
ATOM      2  C   UNL     1      -0.000  -0.000  -0.000  0.00  0.00    +0.018 C 
ATOM      3  C   UNL     1      -0.000  -0.000  -0.000  0.00  0.00    +0.010 C 
ATOM      4  C   UNL     1      -0.000  -0.000   0.000  0.00  0.00    +0.032 C 
ATOM      5  C   UNL     1      -0.000  -0.000   0.000  0.00  0.00    -0.055 C 
ATOM      6  C   UNL     1      -0.000  -0.000   0.000  0.00  0.00    +0.029 C 
ATOM      7  C   UNL     1      -0.000  -0.000   0.000  0.00  0.00    +0.022 C 
ATOM      8  C   UNL     1      -0.000  -0.000   0.000  0.00  0.00    -0.011 C 
ATOM      9  C   UNL     1      -0.000  -0.000  -0.000  0.00  0.00    +0.047 C 
ATOM     10  C   UNL     1      -0.000  -0.000   0.000  0.00  0.00    +0.179 C 
ATOM     11  O   UNL     1      -0.000  -0.000   0.000  0.00  0.00    -0.288 OA
ATOM     12  C   UNL     1      -0.000  -0.000   0.000  0.00  0.00    +0.051 C 
ATOM     13  C   UNL     1      -0.000  -0.000  -0.000  0.00  0.00    +0.086 C 
ATOM     14 CL   UNL     1      -0.000  -0.000   0.000  0.00  0.00    -0.114 Cl
ATOM     15  C   UNL     1      -0.000  -0.000   0.000  0.00  0.00    +0.137 C 
ATOM     16  C   UNL     1      -0.000  -0.000  -0.000  0.00  0.00    +0.044 C 
ATOM     17  C   UNL     1      -0.000  -0.000  -0.000  0.00  0.00    +0.021 C 
ATOM     18  C   UNL     1      -0.000  -0.000   0.000  0.00  0.00    +0.016 C 
ATOM     19  C   UNL     1      -0.000  -0.000  -0.000  0.00  0.00    +0.182 C 
ATOM     20  C   UNL     1      -0.000  -0.000   0.000  0.00  0.00    +0.038 C 
ATOM     21  C   UNL     1      -0.000  -0.000  -0.000  0.00  0.00    +0.012 C 
ATOM     22  C   UNL     1      -0.000  -0.000   0.000  0.00  0.00    +0.012 C 
ENDROOT
BRANCH  15  23
ATOM     23  O   UNL     1      -0.000  -0.000  -0.000  0.00  0.00    -0.390 OA
ATOM     24  H   UNL     1       0.000   0.000   0.000  0.00  0.00    +0.210 HD
ENDBRANCH  15  23
BRANCH  19  25
ATOM     25  C   UNL     1      -0.000  -0.000  -0.000  0.00  0.00    +0.214 C 
ATOM     26  O   UNL     1      -0.000  -0.000  -0.000  0.00  0.00    -0.289 OA
BRANCH  25  27
ATOM     27  C   UNL     1      -0.000  -0.000  -0.000  0.00  0.00    +0.310 C 
BRANCH  27  28
ATOM     28  O   UNL     1      -0.000  -0.000  -0.000  0.00  0.00    -0.457 OA
BRANCH  28  29
ATOM     29  C   UNL     1      -0.000  -0.000  -0.000  0.00  0.00    +0.307 C 
ATOM     30  O   UNL     1      -0.000  -0.000  -0.000  0.00  0.00    -0.251 OA
BRANCH  29  31
ATOM     31  C   UNL     1      -0.000  -0.000  -0.000  0.00  0.00    +0.117 C 
ATOM     32  C   UNL     1      -0.000  -0.000  -0.000  0.00  0.00    +0.015 C 
ENDBRANCH  29  31
ENDBRANCH  28  29
ENDBRANCH  27  28
ENDBRANCH  25  27
ENDBRANCH  19  25
BRANCH  19  33
ATOM     33  O   UNL     1      -0.000  -0.000   0.000  0.00  0.00    -0.449 OA
BRANCH  33  34
ATOM     34  C   UNL     1      -0.000  -0.000  -0.000  0.00  0.00    +0.308 C 
ATOM     35  O   UNL     1      -0.000  -0.000  -0.000  0.00  0.00    -0.251 OA
BRANCH  34  36
ATOM     36  C   UNL     1      -0.000  -0.000  -0.000  0.00  0.00    +0.117 C 
ATOM     37  C   UNL     1      -0.000  -0.000  -0.000  0.00  0.00    +0.015 C 
ENDBRANCH  34  36
ENDBRANCH  33  34
ENDBRANCH  19  33
TORSDOF 9
