REMARK  Name = 
REMARK  9 active torsions:
REMARK  status: ('A' for Active; 'I' for Inactive)
REMARK    1  A    between atoms: O_1  and  C_2
REMARK    2  A    between atoms: C_2  and  C_3
REMARK    3  A    between atoms: C_2  and  P_10
REMARK    4  A    between atoms: C_2  and  P_14
REMARK    5  A    between atoms: C_3  and  C_4
REMARK    6  A    between atoms: P_10  and  O_11
REMARK    7  A    between atoms: P_10  and  O_12
REMARK    8  A    between atoms: P_14  and  O_15
REMARK    9  A    between atoms: P_14  and  O_16
REMARK                            x       y       z     vdW  Elec       q    Type
REMARK                         _______ _______ _______ _____ _____    ______ ____
ROOT
ATOM      1  C   UNL     1       2.504  -0.054   0.007  0.00  0.00    +0.271 C 
ENDROOT
BRANCH   1   2
ATOM      2  O   UNL     1       1.033   0.020  -0.028  0.00  0.00    -0.367 OA
ATOM      3  H   UNL     1       0.729  -0.053  -0.947  0.00  0.00    +0.212 HD
ENDBRANCH   1   2
BRANCH   1   4
ATOM      4  P   UNL     1       3.114   0.165   1.719  0.00  0.00    +0.371 P 
ATOM      5  O   UNL     1       3.630   0.349   3.167  0.00  0.00    -0.255 OA
BRANCH   4   6
ATOM      6  O   UNL     1       2.184  -1.131   2.169  0.00  0.00    -0.322 OA
ATOM      7  H   UNL     1       1.737  -0.883   3.000  0.00  0.00    +0.220 HD
ENDBRANCH   4   6
BRANCH   4   8
ATOM      8  O   UNL     1       1.886   1.243   2.008  0.00  0.00    -0.322 OA
ATOM      9  H   UNL     1       2.176   1.823   2.738  0.00  0.00    +0.220 HD
ENDBRANCH   4   8
ENDBRANCH   1   4
BRANCH   1  10
ATOM     10  P   UNL     1       3.114   1.319  -1.037  0.00  0.00    +0.371 P 
ATOM     11  O   UNL     1       3.630   2.481  -1.922  0.00  0.00    -0.255 OA
BRANCH  10  12
ATOM     12  O   UNL     1       4.641   0.719  -0.900  0.00  0.00    -0.322 OA
ATOM     13  H   UNL     1       5.238   1.363  -1.340  0.00  0.00    +0.220 HD
ENDBRANCH  10  12
BRANCH  10  14
ATOM     14  O   UNL     1       3.261   2.339   0.235  0.00  0.00    -0.322 OA
ATOM     15  H   UNL     1       3.571   3.198  -0.123  0.00  0.00    +0.220 HD
ENDBRANCH  10  14
ENDBRANCH   1  10
BRANCH   1  16
ATOM     16  C   UNL     1       2.897  -1.459  -0.538  0.00  0.00    +0.097 C 
BRANCH  16  17
ATOM     17  C   UNL     1       2.415  -1.785  -1.932  0.00  0.00    -0.025 A 
ATOM     18  C   UNL     1       3.201  -1.564  -3.059  0.00  0.00    +0.007 A 
ATOM     19  C   UNL     1       2.707  -1.894  -4.315  0.00  0.00    +0.020 A 
ATOM     20  C   UNL     1       1.438  -2.439  -4.408  0.00  0.00    +0.111 A 
ATOM     21  N   UNL     1       0.644  -2.670  -3.349  0.00  0.00    -0.263 NA
ATOM     22  C   UNL     1       1.155  -2.353  -2.128  0.00  0.00    +0.114 A 
ENDBRANCH  16  17
ENDBRANCH   1  16
TORSDOF 9
