REMARK  Name = 
REMARK  19 active torsions:
REMARK  status: ('A' for Active; 'I' for Inactive)
REMARK    1  A    between atoms: C_1  and  C_2
REMARK    2  A    between atoms: C_2  and  C_3
REMARK    3  A    between atoms: C_3  and  O_5
REMARK    4  A    between atoms: O_5  and  C_6
REMARK    5  A    between atoms: C_6  and  O_7
REMARK    6  A    between atoms: C_6  and  C_39
REMARK    7  A    between atoms: O_7  and  P_8
REMARK    8  A    between atoms: P_8  and  C_10
REMARK    9  A    between atoms: P_8  and  C_20
REMARK   10  A    between atoms: C_10  and  C_11
REMARK   11  A    between atoms: C_11  and  C_12
REMARK   12  A    between atoms: C_12  and  C_13
REMARK   13  A    between atoms: C_13  and  C_14
REMARK   14  A    between atoms: C_20  and  C_21
REMARK   15  A    between atoms: C_25  and  C_33
REMARK   16  A    between atoms: C_28  and  C_30
REMARK   17  A    between atoms: C_30  and  O_31
REMARK   18  A    between atoms: C_39  and  C_40
REMARK   19  A    between atoms: C_39  and  C_41
REMARK                            x       y       z     vdW  Elec       q    Type
REMARK                         _______ _______ _______ _____ _____    ______ ____
ROOT
ATOM      1  P   UNL     1       2.755  -2.196  -3.128  0.00  0.00    +0.216 P 
ATOM      2  O   UNL     1       2.690  -1.631  -4.557  0.00  0.00    -0.290 OA
ENDROOT
BRANCH   1   3
ATOM      3  O   UNL     1       4.485  -2.196  -3.128  0.00  0.00    -0.286 OA
BRANCH   3   4
ATOM      4  C   UNL     1       4.997  -0.959  -2.608  0.00  0.00    +0.319 C 
BRANCH   4   5
ATOM      5  C   UNL     1       6.535  -0.973  -2.538  0.00  0.00    +0.052 C 
ATOM      6  C   UNL     1       7.193  -1.056  -3.915  0.00  0.00    +0.013 C 
ATOM      7  C   UNL     1       7.029  -2.113  -1.648  0.00  0.00    +0.013 C 
ENDBRANCH   4   5
BRANCH   4   8
ATOM      8  O   UNL     1       4.602   0.175  -3.400  0.00  0.00    -0.434 OA
BRANCH   8   9
ATOM      9  C   UNL     1       3.739   1.038  -2.814  0.00  0.00    +0.309 C 
ATOM     10  O   UNL     1       3.299   0.925  -1.674  0.00  0.00    -0.251 OA
BRANCH   9  12
ATOM     11  C   UNL     1       1.954   1.777  -4.360  0.00  0.00    +0.015 C 
ATOM     12  C   UNL     1       3.303   2.128  -3.755  0.00  0.00    +0.117 C 
ENDBRANCH   9  12
ENDBRANCH   8   9
ENDBRANCH   4   8
ENDBRANCH   3   4
ENDBRANCH   1   3
BRANCH   1  13
ATOM     13  C   UNL     1       0.925  -2.196  -3.128  0.00  0.00    +0.193 C 
BRANCH  13  14
ATOM     14  C   UNL     1       0.367  -2.777  -1.851  0.00  0.00    +0.226 C 
ATOM     15  N   UNL     1      -0.995  -2.989  -1.756  0.00  0.00    -0.287 N 
ATOM     16  C   UNL     1      -2.066  -2.498  -2.638  0.00  0.00    +0.185 C 
ATOM     17  C   UNL     1      -3.235  -3.476  -2.417  0.00  0.00    +0.039 C 
ATOM     18  C   UNL     1      -2.690  -4.613  -1.523  0.00  0.00    +0.012 C 
ATOM     19  C   UNL     1      -1.558  -3.898  -0.768  0.00  0.00    +0.112 C 
ATOM     20  O   UNL     1       1.115  -3.062  -0.917  0.00  0.00    -0.275 OA
BRANCH  18  21
ATOM     21  C   UNL     1      -2.235  -5.860  -2.344  0.00  0.00    -0.006 C 
ATOM     22  C   UNL     1      -3.407  -6.560  -3.077  0.00  0.00    +0.004 C 
ATOM     23  C   UNL     1      -4.361  -7.294  -2.134  0.00  0.00    +0.000 C 
ATOM     24  C   UNL     1      -3.626  -8.280  -1.232  0.00  0.00    +0.000 C 
ATOM     25  C   UNL     1      -2.449  -7.631  -0.511  0.00  0.00    +0.000 C 
ATOM     26  C   UNL     1      -1.515  -6.929  -1.495  0.00  0.00    +0.004 C 
ENDBRANCH  18  21
BRANCH  16  27
ATOM     27  C   UNL     1      -2.523  -1.085  -2.233  0.00  0.00    +0.325 C 
ATOM     28  O   UNL     1      -3.439  -0.484  -2.773  0.00  0.00    -0.249 OA
BRANCH  27  29
ATOM     29  O   UNL     1      -1.847  -0.565  -1.183  0.00  0.00    -0.479 OA
ATOM     30  H   UNL     1      -1.196  -1.197  -0.816  0.00  0.00    +0.295 HD
ENDBRANCH  27  29
ENDBRANCH  16  27
ENDBRANCH  13  14
ENDBRANCH   1  13
BRANCH   1  31
ATOM     31  C   UNL     1       2.794  -4.117  -3.250  0.00  0.00    +0.098 C 
BRANCH  31  32
ATOM     32  C   UNL     1       2.788  -4.687  -4.660  0.00  0.00    +0.010 C 
BRANCH  32  33
ATOM     33  C   UNL     1       4.014  -4.342  -5.495  0.00  0.00    +0.005 C 
BRANCH  33  34
ATOM     34  C   UNL     1       5.340  -4.803  -4.884  0.00  0.00    +0.035 C 
BRANCH  34  35
ATOM     35  C   UNL     1       6.574  -4.405  -5.661  0.00  0.00    -0.047 A 
ATOM     36  C   UNL     1       7.829  -4.759  -5.144  0.00  0.00    +0.003 A 
ATOM     37  C   UNL     1       9.001  -4.379  -5.799  0.00  0.00    +0.000 A 
ATOM     38  C   UNL     1       8.933  -3.640  -6.978  0.00  0.00    +0.000 A 
ATOM     39  C   UNL     1       7.696  -3.272  -7.497  0.00  0.00    +0.000 A 
ATOM     40  C   UNL     1       6.525  -3.651  -6.842  0.00  0.00    +0.003 A 
ENDBRANCH  34  35
ENDBRANCH  33  34
ENDBRANCH  32  33
ENDBRANCH  31  32
ENDBRANCH   1  31
TORSDOF 16
