REMARK  Name = 
REMARK  4 active torsions:
REMARK  status: ('A' for Active; 'I' for Inactive)
REMARK    1  A    between atoms: O5*_1  and  C5*_2
REMARK    2  A    between atoms: C5*_2  and  C4*_3
REMARK    3  A    between atoms: C1*_6  and  N_12
REMARK    4  A    between atoms: C3*_9  and  O3*_11
REMARK                            x       y       z     vdW  Elec       q    Type
REMARK                         _______ _______ _______ _____ _____    ______ ____
ROOT
ATOM      1  C4* UNL     1       2.874  -0.312   1.578  0.00  0.00    +0.175 C 
ATOM      2  C3* UNL     1       2.688  -1.777   1.969  0.00  0.00    +0.150 C 
ATOM      3  C2* UNL     1       2.260  -1.740   3.426  0.00  0.00    +0.088 C 
ATOM      4  C1* UNL     1       2.293  -0.259   3.785  0.00  0.00    +0.226 C 
ATOM      5  O4* UNL     1       2.145   0.457   2.552  0.00  0.00    -0.348 OA
ENDROOT
BRANCH   4   6
ATOM      6  N   UNL     1       1.272   0.145   4.743  0.00  0.00    -0.271 N 
ATOM      7  C   UNL     1       1.589   0.047   6.094  0.00  0.00    +0.331 A 
ATOM      8  O   UNL     1       2.653  -0.394   6.521  0.00  0.00    -0.246 OA
ATOM      9  N   UNL     1       0.624   0.486   6.968  0.00  0.00    -0.273 N 
ATOM     10  H   UNL     1       0.856   0.459   7.948  0.00  0.00    +0.174 HD
ATOM     11  C   UNL     1      -0.606   0.989   6.634  0.00  0.00    +0.289 A 
ATOM     12  O   UNL     1      -1.397   1.398   7.475  0.00  0.00    -0.265 OA
ATOM     13  C   UNL     1      -0.900   0.994   5.188  0.00  0.00    +0.204 A 
ATOM     14  F   UNL     1      -2.110   1.433   4.798  0.00  0.00    -0.198 F 
ATOM     15  C   UNL     1       0.027   0.581   4.322  0.00  0.00    +0.137 A 
ENDBRANCH   4   6
BRANCH   2  16
ATOM     16  O3* UNL     1       3.912  -2.489   1.814  0.00  0.00    -0.389 OA
ATOM     17  H3* UNL     1       3.729  -3.428   1.996  0.00  0.00    +0.210 HD
ENDBRANCH   2  16
BRANCH   1  18
ATOM     18  C5* UNL     1       2.395   0.020   0.166  0.00  0.00    +0.190 C 
BRANCH  18  19
ATOM     19  O5* UNL     1       1.028  -0.349  -0.017  0.00  0.00    -0.392 OA
ATOM     20  H5* UNL     1       0.746   0.040  -0.864  0.00  0.00    +0.210 HD
ENDBRANCH  18  19
ENDBRANCH   1  18
TORSDOF 4
