REMARK  Name = 
REMARK  12 active torsions:
REMARK  status: ('A' for Active; 'I' for Inactive)
REMARK    1  A    between atoms: C_3  and  O_30
REMARK    2  A    between atoms: C_6  and  C_8
REMARK    3  A    between atoms: C_13  and  C_15
REMARK    4  A    between atoms: C_16  and  C_18
REMARK    5  A    between atoms: C_18  and  C_19
REMARK    6  A    between atoms: C_19  and  C_20
REMARK    7  A    between atoms: C_23  and  O_25
REMARK    8  A    between atoms: O_30  and  C_31
REMARK    9  A    between atoms: C_31  and  C_33
REMARK   10  A    between atoms: C_33  and  C_35
REMARK   11  A    between atoms: C_33  and  C_36
REMARK   12  A    between atoms: C_36  and  C_37
REMARK                            x       y       z     vdW  Elec       q    Type
REMARK                         _______ _______ _______ _____ _____    ______ ____
ROOT
ATOM      1  C   UNL     1       2.958   3.575   5.499  0.00  0.00    +0.063 C 
ATOM      2  C   UNL     1       1.499   4.026   5.034  0.00  0.00    +0.007 C 
ATOM      3  C   UNL     1       0.421   3.430   6.018  0.00  0.00    +0.012 C 
ATOM      4  C   UNL     1       0.040   1.971   5.733  0.00  0.00    +0.012 C 
ATOM      5  C   UNL     1       0.784   3.534   7.463  0.00  0.00    -0.023 C 
ATOM      6  C   UNL     1       2.028   3.704   7.902  0.00  0.00    -0.000 C 
ATOM      7  C   UNL     1       3.166   3.807   7.019  0.00  0.00    -0.044 C 
ATOM      8  C   UNL     1       4.347   4.121   7.590  0.00  0.00    -0.020 C 
ATOM      9  C   UNL     1       5.595   4.401   6.815  0.00  0.00    +0.012 C 
ATOM     10  C   UNL     1       6.502   5.395   7.555  0.00  0.00    +0.012 C 
ATOM     11  C   UNL     1       5.190   4.983   5.478  0.00  0.00    +0.052 C 
ATOM     12  C   UNL     1       4.202   4.095   4.699  0.00  0.00    +0.185 C 
ENDROOT
BRANCH   2  13
ATOM     13  C   UNL     1       0.997   3.759   3.554  0.00  0.00    +0.008 C 
BRANCH  13  14
ATOM     14  C   UNL     1      -0.313   4.543   3.282  0.00  0.00    +0.045 C 
BRANCH  14  15
ATOM     15  C   UNL     1      -1.172   4.284   2.039  0.00  0.00    +0.179 C 
ATOM     16  O   UNL     1      -0.623   4.853   0.853  0.00  0.00    -0.461 OA
ATOM     17  C   UNL     1      -1.512   4.937  -0.181  0.00  0.00    +0.310 C 
ATOM     18  O   UNL     1      -1.566   5.930  -0.899  0.00  0.00    -0.251 OA
ATOM     19  C   UNL     1      -2.282   3.673  -0.494  0.00  0.00    +0.152 C 
ATOM     20  C   UNL     1      -2.662   2.832   0.716  0.00  0.00    +0.129 C 
ATOM     21  C   UNL     1      -1.567   2.841   1.785  0.00  0.00    +0.076 C 
BRANCH  20  22
ATOM     22  O   UNL     1      -3.919   3.250   1.254  0.00  0.00    -0.391 OA
ATOM     23  H   UNL     1      -3.820   4.017   1.841  0.00  0.00    +0.210 HD
ENDBRANCH  20  22
ENDBRANCH  14  15
ENDBRANCH  13  14
ENDBRANCH   2  13
BRANCH  12  24
ATOM     24  O   UNL     1       3.845   4.930   3.597  0.00  0.00    -0.461 OA
BRANCH  24  25
ATOM     25  C   UNL     1       3.897   4.387   2.358  0.00  0.00    +0.310 C 
ATOM     26  O   UNL     1       4.106   3.204   2.128  0.00  0.00    -0.251 OA
BRANCH  25  27
ATOM     27  C   UNL     1       3.582   5.434   1.298  0.00  0.00    +0.094 C 
ATOM     28  C   UNL     1       3.138   6.776   1.916  0.00  0.00    +0.019 C 
BRANCH  27  29
ATOM     29  C   UNL     1       4.801   5.642   0.397  0.00  0.00    +0.011 C 
ATOM     30  C   UNL     1       5.158   4.406  -0.415  0.00  0.00    +0.004 C 
ENDBRANCH  27  29
ENDBRANCH  25  27
ENDBRANCH  24  25
ENDBRANCH  12  24
TORSDOF 8
