REMARK  Name = 
REMARK  2 active torsions:
REMARK  status: ('A' for Active; 'I' for Inactive)
REMARK    1  A    between atoms: C_1  and  C_2
REMARK    2  A    between atoms: N_13  and  C_14
REMARK                            x       y       z     vdW  Elec       q    Type
REMARK                         _______ _______ _______ _____ _____    ______ ____
ROOT
ATOM      1  C   UNL     1       0.922   0.956  -0.371  0.00  0.00    +0.046 C 
ATOM      2  C   UNL     1       2.181   0.292   0.088  0.00  0.00    -0.022 A 
ATOM      3  C   UNL     1       3.250   1.042   0.572  0.00  0.00    +0.025 A 
ATOM      4  C   UNL     1       4.361   0.368   1.057  0.00  0.00    +0.113 A 
ATOM      5  N   UNL     1       4.427  -0.980   1.186  0.00  0.00    -0.236 NA
ATOM      6  C   UNL     1       3.392  -1.714   0.727  0.00  0.00    +0.159 A 
ATOM      7  N   UNL     1       3.364  -3.128   0.939  0.00  0.00    -0.305 N 
ATOM      8  C   UNL     1       2.197  -3.950   0.918  0.00  0.00    +0.148 A 
ATOM      9  N   UNL     1       2.103  -4.919   1.870  0.00  0.00    -0.237 NA
ATOM     10  C   UNL     1       1.236  -5.941   1.690  0.00  0.00    +0.113 A 
ATOM     11  C   UNL     1       0.540  -6.148   0.521  0.00  0.00    +0.021 A 
ATOM     12  C   UNL     1       0.568  -5.129  -0.417  0.00  0.00    +0.018 A 
ATOM     13  C   UNL     1       1.294  -3.963  -0.148  0.00  0.00    +0.082 A 
ATOM     14  C   UNL     1       0.873  -2.753  -0.876  0.00  0.00    +0.260 A 
ATOM     15  O   UNL     1      -0.270  -2.670  -1.298  0.00  0.00    -0.267 OA
ATOM     16  N   UNL     1       1.808  -1.771  -1.099  0.00  0.00    -0.319 N 
ATOM     17  H   UNL     1       2.595  -2.251  -1.531  0.00  0.00    +0.169 HD
ATOM     18  C   UNL     1       2.340  -1.097   0.030  0.00  0.00    +0.088 A 
ENDROOT
BRANCH   7  19
ATOM     19  C   UNL     1       4.586  -3.834   0.459  0.00  0.00    +0.091 C 
ATOM     20  C   UNL     1       5.892  -3.842   1.201  0.00  0.00    +0.027 C 
ATOM     21  C   UNL     1       5.093  -5.105   1.093  0.00  0.00    +0.027 C 
ENDBRANCH   7  19
TORSDOF 1
