REMARK  Name = 
REMARK  5 active torsions:
REMARK  status: ('A' for Active; 'I' for Inactive)
REMARK    1  A    between atoms: C_1  and  C_2
REMARK    2  A    between atoms: C_9  and  C_11
REMARK    3  A    between atoms: C_14  and  N_15
REMARK    4  A    between atoms: C_16  and  C_18
REMARK    5  A    between atoms: C_23  and  C_24
REMARK                            x       y       z     vdW  Elec       q    Type
REMARK                         _______ _______ _______ _____ _____    ______ ____
ROOT
ATOM      1  C   UNL     1       8.217  -0.488   3.708  0.00  0.00    +0.037 A 
ATOM      2  C   UNL     1       7.481  -1.664   3.877  0.00  0.00    +0.015 A 
ATOM      3  C   UNL     1       8.054  -2.771   4.519  0.00  0.00    +0.024 A 
ATOM      4  C   UNL     1       9.295  -2.658   5.152  0.00  0.00    +0.034 A 
ATOM      5  C   UNL     1       9.947  -1.424   5.135  0.00  0.00    +0.024 A 
ATOM      6  C   UNL     1       9.423  -0.353   4.405  0.00  0.00    +0.015 A 
ENDROOT
BRANCH   1  21
ATOM      7  C   UNL     1       1.076   0.776   0.034  0.00  0.00    +0.086 C 
ATOM      8  C   UNL     1       2.535   0.521   0.080  0.00  0.00    +0.105 A 
ATOM      9  N   UNL     1       3.453   1.462  -0.324  0.00  0.00    -0.345 N 
ATOM     10  H   UNL     1       3.237   2.382  -0.684  0.00  0.00    +0.167 HD
ATOM     11  C   UNL     1       4.694   0.917  -0.156  0.00  0.00    +0.045 A 
ATOM     12  C   UNL     1       5.986   1.565  -0.454  0.00  0.00    +0.075 C 
ATOM     13  C   UNL     1       6.819   1.640   0.826  0.00  0.00    +0.120 C 
ATOM     14  N   UNL     1       7.146   0.401   1.558  0.00  0.00    -0.266 N 
ATOM     15  C   UNL     1       6.856  -0.893   0.997  0.00  0.00    +0.046 A 
ATOM     16  C   UNL     1       5.551  -1.280   0.596  0.00  0.00    +0.023 A 
ATOM     17  C   UNL     1       5.262  -2.640   0.385  0.00  0.00    +0.012 A 
ATOM     18  C   UNL     1       6.253  -3.611   0.506  0.00  0.00    +0.001 A 
ATOM     19  C   UNL     1       7.561  -3.226   0.776  0.00  0.00    +0.002 A 
ATOM     20  C   UNL     1       7.863  -1.878   0.992  0.00  0.00    +0.024 A 
ATOM     21  C   UNL     1       7.844   0.624   2.779  0.00  0.00    +0.251 C 
ATOM     22  O   UNL     1       8.174   1.761   3.118  0.00  0.00    -0.270 OA
ATOM     23  C   UNL     1       4.479  -0.335   0.360  0.00  0.00    +0.094 A 
ATOM     24  N   UNL     1       3.135  -0.584   0.477  0.00  0.00    -0.232 NA
ENDBRANCH   1  21
BRANCH   4  25
ATOM     25  N   UNL     1       9.854  -3.809   5.752  0.00  0.00    -0.281 N 
ATOM     26  H   UNL     1       9.473  -4.692   5.445  0.00  0.00    +0.155 HD
ATOM     27  C   UNL     1      10.760  -3.786   6.807  0.00  0.00    +0.249 C 
ATOM     28  O   UNL     1      11.098  -2.767   7.399  0.00  0.00    -0.270 OA
BRANCH  27  29
ATOM     29  C   UNL     1      11.252  -5.101   7.333  0.00  0.00    +0.045 A 
ATOM     30  C   UNL     1      12.512  -5.225   7.984  0.00  0.00    -0.006 A 
ATOM     31  C   UNL     1      12.762  -6.461   8.633  0.00  0.00    +0.009 A 
ATOM     32  C   UNL     1      11.844  -7.512   8.645  0.00  0.00    +0.001 A 
ATOM     33  C   UNL     1      10.648  -7.388   7.961  0.00  0.00    +0.001 A 
ATOM     34  C   UNL     1      10.351  -6.194   7.310  0.00  0.00    +0.013 A 
BRANCH  30  35
ATOM     35  C   UNL     1      13.598  -4.191   8.028  0.00  0.00    -0.017 A 
ATOM     36  C   UNL     1      14.416  -4.052   9.172  0.00  0.00    +0.008 A 
ATOM     37  C   UNL     1      15.513  -3.183   9.208  0.00  0.00    +0.001 A 
ATOM     38  C   UNL     1      15.801  -2.385   8.110  0.00  0.00    +0.000 A 
ATOM     39  C   UNL     1      14.991  -2.460   6.982  0.00  0.00    +0.001 A 
ATOM     40  C   UNL     1      13.919  -3.365   6.934  0.00  0.00    +0.008 A 
ENDBRANCH  30  35
ENDBRANCH  27  29
ENDBRANCH   4  25
TORSDOF 4
