REMARK  Name = 
REMARK  13 active torsions:
REMARK  status: ('A' for Active; 'I' for Inactive)
REMARK    1  A    between atoms: C_1  and  O_2
REMARK    2  A    between atoms: O_2  and  C_3
REMARK    3  A    between atoms: C_12  and  O_13
REMARK    4  A    between atoms: C_17  and  O_18
REMARK    5  A    between atoms: C_17  and  C_36
REMARK    6  A    between atoms: C_20  and  O_22
REMARK    7  A    between atoms: O_22  and  C_23
REMARK    8  A    between atoms: C_26  and  N_28
REMARK    9  A    between atoms: C_29  and  O_31
REMARK   10  A    between atoms: C_32  and  C_34
REMARK   11  A    between atoms: C_36  and  C_38
REMARK   12  A    between atoms: C_38  and  O_39
REMARK   13  A    between atoms: C_40  and  O_41
REMARK                            x       y       z     vdW  Elec       q    Type
REMARK                         _______ _______ _______ _____ _____    ______ ____
ROOT
ATOM      1  C   UNL     1       2.993   1.240   0.076  0.00  0.00    +0.132 A 
ATOM      2  C   UNL     1       4.406   1.272   0.045  0.00  0.00    +0.075 A 
ATOM      3  C   UNL     1       5.240   0.037  -0.023  0.00  0.00    +0.202 C 
ATOM      4  C   UNL     1       6.723   0.122  -0.097  0.00  0.00    +0.078 A 
ATOM      5  C   UNL     1       7.344   1.369  -0.049  0.00  0.00    +0.078 A 
ATOM      6  C   UNL     1       6.522   2.605   0.051  0.00  0.00    +0.198 C 
ATOM      7  O   UNL     1       7.009   3.728   0.108  0.00  0.00    -0.286 OA
ATOM      8  C   UNL     1       8.747   1.434  -0.076  0.00  0.00    +0.132 A 
ATOM      9  C   UNL     1       9.544   0.270  -0.159  0.00  0.00    +0.007 A 
ATOM     10  C   UNL     1      11.065   0.424  -0.138  0.00  0.00    +0.082 C 
ATOM     11  C   UNL     1      11.776  -0.897  -0.388  0.00  0.00    +0.133 C 
ATOM     12  C   UNL     1      11.104  -1.912   0.551  0.00  0.00    +0.079 C 
ATOM     13  C   UNL     1       9.753  -2.327  -0.026  0.00  0.00    +0.158 C 
ATOM     14  C   UNL     1       8.921  -1.017  -0.169  0.00  0.00    +0.030 A 
ATOM     15  C   UNL     1       7.514  -1.057  -0.160  0.00  0.00    +0.134 A 
ATOM     16  O   UNL     1       4.747  -1.088  -0.009  0.00  0.00    -0.286 OA
ATOM     17  C   UNL     1       5.053   2.508   0.082  0.00  0.00    +0.037 A 
ATOM     18  C   UNL     1       4.321   3.704   0.142  0.00  0.00    +0.012 A 
ATOM     19  C   UNL     1       2.934   3.673   0.164  0.00  0.00    +0.004 A 
ATOM     20  C   UNL     1       2.275   2.447   0.131  0.00  0.00    +0.046 A 
ENDROOT
BRANCH   1  22
ATOM     21  C   UNL     1       0.960  -0.029   0.041  0.00  0.00    +0.277 C 
ATOM     22  O   UNL     1       2.381   0.016   0.048  0.00  0.00    -0.494 OA
ENDBRANCH   1  22
BRANCH   8  23
ATOM     23  O   UNL     1       9.337   2.665   0.033  0.00  0.00    -0.506 OA
ATOM     24  H   UNL     1      10.301   2.641  -0.012  0.00  0.00    +0.292 HD
ENDBRANCH   8  23
BRANCH  11  25
ATOM     25  O   UNL     1      11.673  -1.159  -1.795  0.00  0.00    -0.381 OA
ATOM     26  H   UNL     1      10.919  -1.765  -1.951  0.00  0.00    +0.211 HD
ENDBRANCH  11  25
BRANCH  11  27
ATOM     27  C   UNL     1      13.268  -0.830  -0.053  0.00  0.00    +0.190 C 
ATOM     28  O   UNL     1      13.680  -0.512   1.067  0.00  0.00    -0.292 OA
BRANCH  27  29
ATOM     29  C   UNL     1      14.249  -1.178  -1.173  0.00  0.00    +0.233 C 
BRANCH  29  30
ATOM     30  O   UNL     1      15.584  -1.301  -0.703  0.00  0.00    -0.387 OA
ATOM     31  H   UNL     1      15.608  -0.856   0.168  0.00  0.00    +0.210 HD
ENDBRANCH  29  30
ENDBRANCH  27  29
ENDBRANCH  11  27
BRANCH  15  32
ATOM     32  O   UNL     1       6.937  -2.309  -0.168  0.00  0.00    -0.506 OA
ATOM     33  H   UNL     1       5.958  -2.196  -0.128  0.00  0.00    +0.292 HD
ENDBRANCH  15  32
BRANCH  13  34
ATOM     34  O   UNL     1       9.953  -3.017  -1.286  0.00  0.00    -0.343 OA
BRANCH  34  35
ATOM     35  C   UNL     1      10.530  -4.363  -1.174  0.00  0.00    +0.253 C 
ATOM     36  O   UNL     1      11.845  -4.285  -0.642  0.00  0.00    -0.346 OA
ATOM     37  C   UNL     1      12.801  -5.334  -0.819  0.00  0.00    +0.148 C 
ATOM     38  C   UNL     1      12.983  -6.180   0.438  0.00  0.00    +0.041 C 
ATOM     39  C   UNL     1      12.630  -6.156  -2.099  0.00  0.00    +0.160 C 
ATOM     40  C   UNL     1      11.889  -5.301  -3.130  0.00  0.00    +0.087 C 
ATOM     41  C   UNL     1      10.493  -4.971  -2.588  0.00  0.00    +0.082 C 
BRANCH  40  42
ATOM     42  N   UNL     1      11.793  -6.020  -4.415  0.00  0.00    -0.325 NA
ATOM     43  H   UNL     1      11.022  -6.686  -4.380  0.00  0.00    +0.119 HD
ATOM     44  H   UNL     1      11.528  -5.352  -5.141  0.00  0.00    +0.119 HD
ENDBRANCH  40  42
BRANCH  39  45
ATOM     45  O   UNL     1      11.887  -7.358  -1.859  0.00  0.00    -0.388 OA
ATOM     46  H   UNL     1      11.881  -7.822  -2.717  0.00  0.00    +0.210 HD
ENDBRANCH  39  45
ENDBRANCH  34  35
ENDBRANCH  13  34
TORSDOF 11
