REMARK  Name = 
REMARK  4 active torsions:
REMARK  status: ('A' for Active; 'I' for Inactive)
REMARK    1  A    between atoms: C_7  and  O_8
REMARK    2  A    between atoms: C_16  and  O_17
REMARK    3  A    between atoms: N_20  and  C_21
REMARK    4  A    between atoms: C_21  and  C_22
REMARK                            x       y       z     vdW  Elec       q    Type
REMARK                         _______ _______ _______ _____ _____    ______ ____
ROOT
ATOM      1  C   UNL     1      -0.000  -0.000  -0.000  0.00  0.00    +0.093 C 
ATOM      2  N   UNL     1      -0.000  -0.000  -0.000  0.00  0.00    -0.296 NA
ATOM      3  C   UNL     1      -0.000  -0.000   0.000  0.00  0.00    +0.086 C 
ATOM      4  C   UNL     1      -0.000  -0.000   0.000  0.00  0.00    +0.030 C 
ATOM      5  C   UNL     1      -0.000  -0.000  -0.000  0.00  0.00    +0.027 C 
ATOM      6  C   UNL     1      -0.000  -0.000  -0.000  0.00  0.00    +0.014 C 
ATOM      7  C   UNL     1      -0.000  -0.000  -0.000  0.00  0.00    +0.001 C 
ATOM      8  C   UNL     1      -0.000  -0.000  -0.000  0.00  0.00    +0.003 C 
ATOM      9  C   UNL     1      -0.000  -0.000  -0.000  0.00  0.00    +0.037 C 
ATOM     10  C   UNL     1      -0.000  -0.000   0.000  0.00  0.00    -0.032 A 
ATOM     11  C   UNL     1      -0.000  -0.000  -0.000  0.00  0.00    +0.050 A 
ATOM     12  C   UNL     1      -0.000  -0.000  -0.000  0.00  0.00    +0.117 A 
ATOM     13  C   UNL     1      -0.000  -0.000  -0.000  0.00  0.00    +0.045 A 
ATOM     14  C   UNL     1      -0.000  -0.000   0.000  0.00  0.00    +0.007 A 
ATOM     15  C   UNL     1      -0.000  -0.000  -0.000  0.00  0.00    -0.042 A 
ATOM     16  C   UNL     1      -0.000  -0.000   0.000  0.00  0.00    +0.091 C 
ATOM     17  C   UNL     1      -0.000  -0.000  -0.000  0.00  0.00    +0.057 C 
ENDROOT
BRANCH  12  18
ATOM     18  O   UNL     1      -0.000  -0.000  -0.000  0.00  0.00    -0.507 OA
ATOM     19  H   UNL     1       0.000   0.000   0.000  0.00  0.00    +0.292 HD
ENDBRANCH  12  18
BRANCH  16  20
ATOM     20  O   UNL     1      -0.000  -0.000   0.000  0.00  0.00    -0.386 OA
ATOM     21  H   UNL     1       0.000   0.000   0.000  0.00  0.00    +0.210 HD
ENDBRANCH  16  20
BRANCH   2  22
ATOM     22  C   UNL     1      -0.000  -0.000   0.000  0.00  0.00    +0.088 C 
BRANCH  22  23
ATOM     23  C   UNL     1      -0.000  -0.000  -0.000  0.00  0.00    +0.003 C 
ATOM     24  C   UNL     1      -0.000  -0.000   0.000  0.00  0.00    +0.005 C 
ATOM     25  C   UNL     1      -0.000  -0.000  -0.000  0.00  0.00    +0.001 C 
ATOM     26  C   UNL     1      -0.000  -0.000   0.000  0.00  0.00    +0.005 C 
ENDBRANCH  22  23
ENDBRANCH   2  22
TORSDOF 4
