REMARK  Name = 
REMARK  14 active torsions:
REMARK  status: ('A' for Active; 'I' for Inactive)
REMARK    1  A    between atoms: C_1  and  C_2
REMARK    2  A    between atoms: C_2  and  O_3
REMARK    3  A    between atoms: O_3  and  C_4
REMARK    4  A    between atoms: C_5  and  C_32
REMARK    5  A    between atoms: C_8  and  C_9
REMARK    6  A    between atoms: C_9  and  C_10
REMARK    7  A    between atoms: N_12  and  C_13
REMARK    8  A    between atoms: C_13  and  C_15
REMARK    9  A    between atoms: C_13  and  C_19
REMARK   10  A    between atoms: C_15  and  C_16
REMARK   11  A    between atoms: C_16  and  C_17
REMARK   12  A    between atoms: C_16  and  C_18
REMARK   13  A    between atoms: C_24  and  N_25
REMARK   14  A    between atoms: C_32  and  O_33
REMARK                            x       y       z     vdW  Elec       q    Type
REMARK                         _______ _______ _______ _____ _____    ______ ____
ROOT
ATOM      1  C   UNL     1       7.035  -2.235   1.645  0.00  0.00    +0.218 C 
ATOM      2  N   UNL     1       7.443  -3.281   0.835  0.00  0.00    -0.308 N 
ATOM      3  H   UNL     1       8.181  -3.103   0.171  0.00  0.00    +0.149 HD
ATOM      4  O   UNL     1       6.012  -2.248   2.324  0.00  0.00    -0.275 OA
ENDROOT
BRANCH   1   5
ATOM      5  C   UNL     1       7.960  -1.034   1.671  0.00  0.00    +0.131 C 
BRANCH   5   8
ATOM      6  C   UNL     1       8.665   1.416  -1.180  0.00  0.00    +0.135 A 
ATOM      7  C   UNL     1       8.804   0.405  -0.209  0.00  0.00    +0.050 A 
ATOM      8  C   UNL     1       7.723  -0.026   0.572  0.00  0.00    -0.035 A 
ATOM      9  C   UNL     1       6.473   0.564   0.372  0.00  0.00    +0.005 A 
ATOM     10  C   UNL     1       6.313   1.564  -0.593  0.00  0.00    +0.019 A 
ATOM     11  C   UNL     1       7.398   2.000  -1.377  0.00  0.00    +0.100 A 
BRANCH  11  12
ATOM     12  C   UNL     1       7.100   3.088  -2.358  0.00  0.00    +0.340 C 
ATOM     13  O   UNL     1       5.982   3.559  -2.503  0.00  0.00    -0.245 OA
BRANCH  12  14
ATOM     14  O   UNL     1       8.148   3.538  -3.081  0.00  0.00    -0.477 OA
ATOM     15  H   UNL     1       8.982   3.073  -2.868  0.00  0.00    +0.295 HD
ENDBRANCH  12  14
ENDBRANCH  11  12
BRANCH   6  16
ATOM     16  O   UNL     1       9.718   1.867  -1.945  0.00  0.00    -0.491 OA
BRANCH  16  18
ATOM     17  C   UNL     1      12.037   1.911  -2.594  0.00  0.00    +0.048 C 
ATOM     18  C   UNL     1      11.002   1.285  -1.681  0.00  0.00    +0.226 C 
ENDBRANCH  16  18
ENDBRANCH   6  16
ENDBRANCH   5   8
ENDBRANCH   1   5
BRANCH   2  19
ATOM     19  C   UNL     1       6.623  -4.494   0.666  0.00  0.00    +0.105 C 
BRANCH  19  20
ATOM     20  C   UNL     1       7.413  -5.818   0.662  0.00  0.00    -0.006 A 
ATOM     21  C   UNL     1       6.843  -7.088   1.003  0.00  0.00    +0.035 A 
ATOM     22  C   UNL     1       7.661  -8.227   0.764  0.00  0.00    +0.023 A 
ATOM     23  C   UNL     1       8.939  -8.163   0.205  0.00  0.00    +0.002 A 
ATOM     24  C   UNL     1       9.478  -6.935  -0.114  0.00  0.00    +0.000 A 
ATOM     25  C   UNL     1       8.728  -5.784   0.113  0.00  0.00    +0.007 A 
BRANCH  21  26
ATOM     26  N   UNL     1       5.568  -7.314   1.527  0.00  0.00    -0.330 N 
ATOM     27  C   UNL     1       4.848  -6.403   2.414  0.00  0.00    +0.105 C 
ATOM     28  C   UNL     1       4.336  -7.115   3.663  0.00  0.00    +0.019 C 
ATOM     29  C   UNL     1       3.572  -8.389   3.350  0.00  0.00    +0.003 C 
ATOM     30  C   UNL     1       4.393  -9.283   2.424  0.00  0.00    +0.019 C 
ATOM     31  C   UNL     1       4.793  -8.523   1.159  0.00  0.00    +0.105 C 
ENDBRANCH  21  26
ENDBRANCH  19  20
BRANCH  19  32
ATOM     32  C   UNL     1       5.756  -4.425  -0.604  0.00  0.00    +0.030 C 
BRANCH  32  33
ATOM     33  C   UNL     1       4.718  -3.286  -0.644  0.00  0.00    -0.015 C 
ATOM     34  C   UNL     1       3.657  -3.386   0.455  0.00  0.00    +0.007 C 
ATOM     35  C   UNL     1       4.011  -3.307  -2.003  0.00  0.00    +0.007 C 
ENDBRANCH  32  33
ENDBRANCH  19  32
ENDBRANCH   2  19
TORSDOF 11
