REMARK  Name = 
REMARK  16 active torsions:
REMARK  status: ('A' for Active; 'I' for Inactive)
REMARK    1  A    between atoms: N_10  and  C_11
REMARK    2  A    between atoms: C_11  and  C_12
REMARK    3  A    between atoms: C_12  and  O_14
REMARK    4  A    between atoms: C_12  and  C_15
REMARK    5  A    between atoms: C_15  and  C_17
REMARK    6  A    between atoms: C_15  and  N_25
REMARK    7  A    between atoms: C_17  and  S_18
REMARK    8  A    between atoms: S_18  and  C_19
REMARK    9  A    between atoms: C_26  and  C_28
REMARK   10  A    between atoms: C_29  and  C_30
REMARK   11  A    between atoms: C_31  and  O_32
REMARK   12  A    between atoms: C_36  and  C_39
REMARK   13  A    between atoms: N_41  and  C_42
REMARK   14  A    between atoms: C_42  and  C_43
REMARK   15  A    between atoms: C_42  and  C_44
REMARK   16  A    between atoms: C_42  and  C_45
REMARK                            x       y       z     vdW  Elec       q    Type
REMARK                         _______ _______ _______ _____ _____    ______ ____
ROOT
ATOM      1  C   UNL     1       0.474  -5.748  -2.391  0.00  0.00    +0.149 C 
ENDROOT
BRANCH   1   2
ATOM      2  O   UNL     1       0.360  -4.377  -1.961  0.00  0.00    -0.389 OA
ATOM      3  H   UNL     1       1.155  -3.932  -2.295  0.00  0.00    +0.210 HD
ENDBRANCH   1   2
BRANCH   1   4
ATOM      4  C   UNL     1      -0.003  -5.922  -3.872  0.00  0.00    +0.118 C 
BRANCH   4   8
ATOM      5  C   UNL     1      -3.160  -4.100  -6.156  0.00  0.00    -0.005 C 
ATOM      6  C   UNL     1      -2.633  -3.421  -4.886  0.00  0.00    +0.032 C 
ATOM      7  C   UNL     1      -1.837  -4.274  -3.879  0.00  0.00    +0.143 C 
ATOM      8  N   UNL     1      -1.418  -5.645  -4.226  0.00  0.00    -0.289 NA
ATOM      9  C   UNL     1      -1.699  -6.045  -5.608  0.00  0.00    +0.089 C 
ATOM     10  C   UNL     1      -3.088  -5.627  -6.120  0.00  0.00    +0.006 C 
ATOM     11  C   UNL     1      -4.240  -6.296  -5.353  0.00  0.00    +0.005 C 
ATOM     12  C   UNL     1      -5.615  -5.702  -5.650  0.00  0.00    +0.000 C 
ATOM     13  C   UNL     1      -5.630  -4.179  -5.603  0.00  0.00    +0.000 C 
ATOM     14  C   UNL     1      -4.561  -3.596  -6.519  0.00  0.00    +0.004 C 
BRANCH   7  15
ATOM     15  C   UNL     1      -2.625  -4.311  -2.530  0.00  0.00    +0.231 C 
ATOM     16  N   UNL     1      -2.397  -3.198  -1.737  0.00  0.00    -0.309 N 
ATOM     17  H   UNL     1      -1.492  -2.769  -1.893  0.00  0.00    +0.149 HD
ATOM     18  O   UNL     1      -3.400  -5.208  -2.212  0.00  0.00    -0.274 OA
BRANCH  16  19
ATOM     19  C   UNL     1      -2.980  -2.991  -0.404  0.00  0.00    +0.026 C 
ATOM     20  C   UNL     1      -4.516  -3.019  -0.446  0.00  0.00    +0.031 C 
ATOM     21  C   UNL     1      -2.532  -1.600   0.078  0.00  0.00    +0.031 C 
ATOM     22  C   UNL     1      -2.469  -4.034   0.598  0.00  0.00    +0.031 C 
ENDBRANCH  16  19
ENDBRANCH   7  15
ENDBRANCH   4   8
ENDBRANCH   1   4
BRANCH   1  23
ATOM     23  C   UNL     1      -0.218  -6.700  -1.379  0.00  0.00    +0.113 C 
BRANCH  23  24
ATOM     24  N   UNL     1      -0.183  -8.113  -1.780  0.00  0.00    -0.305 N 
ATOM     25  H   UNL     1      -1.076  -8.566  -1.915  0.00  0.00    +0.149 HD
ATOM     26  C   UNL     1       0.966  -8.754  -2.196  0.00  0.00    +0.245 C 
ATOM     27  O   UNL     1       2.067  -8.219  -2.282  0.00  0.00    -0.270 OA
BRANCH  26  28
ATOM     28  C   UNL     1       0.816 -10.165  -2.615  0.00  0.00    +0.043 A 
ATOM     29  C   UNL     1      -0.043 -10.985  -1.859  0.00  0.00    +0.013 A 
ATOM     30  C   UNL     1      -0.184 -12.332  -2.176  0.00  0.00    +0.004 A 
ATOM     31  C   UNL     1       0.554 -12.871  -3.222  0.00  0.00    +0.046 A 
ATOM     32  C   UNL     1       1.424 -12.061  -3.955  0.00  0.00    +0.120 A 
ATOM     33  C   UNL     1       1.557 -10.689  -3.698  0.00  0.00    +0.003 A 
ATOM     34  C   UNL     1       2.457  -9.852  -4.568  0.00  0.00    +0.048 C 
BRANCH  32  35
ATOM     35  O   UNL     1       2.140 -12.697  -4.933  0.00  0.00    -0.506 OA
ATOM     36  H   UNL     1       2.897 -12.144  -5.185  0.00  0.00    +0.292 HD
ENDBRANCH  32  35
ENDBRANCH  26  28
ENDBRANCH  23  24
BRANCH  23  37
ATOM     37  C   UNL     1       0.247  -6.477   0.091  0.00  0.00    +0.099 C 
BRANCH  37  38
ATOM     38  S   UNL     1       1.996  -6.889   0.439  0.00  0.00    -0.123 S 
BRANCH  38  39
ATOM     39  C   UNL     1       2.163  -6.645   2.192  0.00  0.00    +0.008 A 
ATOM     40  C   UNL     1       1.536  -5.617   2.897  0.00  0.00    +0.015 A 
ATOM     41  C   UNL     1       1.821  -5.415   4.250  0.00  0.00    +0.001 A 
ATOM     42  C   UNL     1       2.735  -6.239   4.907  0.00  0.00    +0.000 A 
ATOM     43  C   UNL     1       3.357  -7.274   4.215  0.00  0.00    +0.001 A 
ATOM     44  C   UNL     1       3.072  -7.474   2.864  0.00  0.00    +0.015 A 
ENDBRANCH  38  39
ENDBRANCH  37  38
ENDBRANCH  23  37
ENDBRANCH   1  23
TORSDOF 12
