REMARK  Name = 
REMARK  2 active torsions:
REMARK  status: ('A' for Active; 'I' for Inactive)
REMARK    1  A    between atoms: O_1  and  C_2
REMARK    2  A    between atoms: C_2  and  CA_4
REMARK                            x       y       z     vdW  Elec       q    Type
REMARK                         _______ _______ _______ _____ _____    ______ ____
ROOT
ATOM      1  CA  PRO A   1       3.161   0.954  -1.074  0.00  0.00    +0.163 C 
ATOM      2  N   PRO A   1       4.638   0.808  -1.292  0.00  0.00    -0.304 NA
ATOM      3  H   PRO A   1       5.013   0.209  -0.551  0.00  0.00    +0.123 HD
ATOM      4  CD  PRO A   1       5.234   2.147  -1.138  0.00  0.00    +0.082 C 
ATOM      5  CG  PRO A   1       4.099   3.134  -1.306  0.00  0.00    +0.017 C 
ATOM      6  CB  PRO A   1       2.918   2.406  -0.700  0.00  0.00    +0.031 C 
ENDROOT
BRANCH   1   7
ATOM      7  C   PRO A   1       2.436   0.580  -2.379  0.00  0.00    +0.322 C 
ATOM      8  OXT PRO A   1       1.232   0.655  -2.562  0.00  0.00    -0.249 OA
BRANCH   7   9
ATOM      9  O   PRO A   1       3.310   0.142  -3.324  0.00  0.00    -0.480 OA
ATOM     10  H   PRO A   1       4.205   0.215  -2.905  0.00  0.00    +0.295 HD
ENDBRANCH   7   9
ENDBRANCH   1   7
TORSDOF 2
