REMARK  Name = 
REMARK  15 active torsions:
REMARK  status: ('A' for Active; 'I' for Inactive)
REMARK    1  A    between atoms: C_1  and  C_2
REMARK    2  A    between atoms: C_2  and  O_3
REMARK    3  A    between atoms: O_3  and  C_4
REMARK    4  A    between atoms: C_9  and  O_10
REMARK    5  A    between atoms: O_10  and  C_11
REMARK    6  A    between atoms: C_11  and  C_12
REMARK    7  A    between atoms: C_12  and  N_13
REMARK    8  A    between atoms: N_13  and  C_14
REMARK    9  A    between atoms: C_14  and  C_16
REMARK   10  A    between atoms: C_14  and  C_17
REMARK   11  A    between atoms: C_17  and  C_18
REMARK   12  A    between atoms: C_20  and  S_26
REMARK   13  A    between atoms: C_21  and  O_22
REMARK   14  A    between atoms: O_22  and  C_23
REMARK   15  A    between atoms: S_26  and  N_27
REMARK                            x       y       z     vdW  Elec       q    Type
REMARK                         _______ _______ _______ _____ _____    ______ ____
ROOT
ATOM      1  C   UNL     1       0.428  -5.577   0.680  0.00  0.00    +0.055 C 
ATOM      2  C   UNL     1       0.951  -6.008   2.051  0.00  0.00    +0.024 C 
ENDROOT
BRANCH   1   3
ATOM      3  N   UNL     1       1.125  -6.262  -0.430  0.00  0.00    -0.310 NA
ATOM      4  H   UNL     1       0.744  -5.939  -1.321  0.00  0.00    +0.122 HD
BRANCH   3   5
ATOM      5  C   UNL     1       1.177  -7.736  -0.433  0.00  0.00    +0.122 C 
BRANCH   5   6
ATOM      6  C   UNL     1      -0.166  -8.472  -0.576  0.00  0.00    +0.244 C 
BRANCH   6   7
ATOM      7  O   UNL     1       0.030  -9.865  -0.770  0.00  0.00    -0.487 OA
BRANCH   7   9
ATOM      8  C   UNL     1      -2.458 -10.299  -0.813  0.00  0.00    +0.162 A 
ATOM      9  C   UNL     1      -1.092 -10.663  -0.768  0.00  0.00    +0.162 A 
ATOM     10  C   UNL     1      -0.745 -12.025  -0.747  0.00  0.00    +0.049 A 
ATOM     11  C   UNL     1      -1.714 -13.023  -0.800  0.00  0.00    +0.004 A 
ATOM     12  C   UNL     1      -3.053 -12.672  -0.874  0.00  0.00    +0.004 A 
ATOM     13  C   UNL     1      -3.419 -11.326  -0.873  0.00  0.00    +0.049 A 
BRANCH   8  14
ATOM     14  O   UNL     1      -2.819  -8.968  -0.794  0.00  0.00    -0.489 OA
BRANCH  14  16
ATOM     15  C   UNL     1      -4.431  -7.172  -0.994  0.00  0.00    +0.048 C 
ATOM     16  C   UNL     1      -4.209  -8.673  -0.977  0.00  0.00    +0.226 C 
ENDBRANCH  14  16
ENDBRANCH   8  14
ENDBRANCH   7   9
ENDBRANCH   6   7
ENDBRANCH   5   6
ENDBRANCH   3   5
ENDBRANCH   1   3
BRANCH   1  17
ATOM     17  C   UNL     1      -1.103  -5.682   0.567  0.00  0.00    +0.053 C 
BRANCH  17  18
ATOM     18  C   UNL     1      -1.975  -4.796   1.421  0.00  0.00    -0.044 A 
ATOM     19  C   UNL     1      -1.945  -3.407   1.330  0.00  0.00    +0.007 A 
ATOM     20  C   UNL     1      -2.935  -2.638   1.958  0.00  0.00    +0.048 A 
ATOM     21  C   UNL     1      -4.004  -3.246   2.629  0.00  0.00    +0.146 A 
ATOM     22  C   UNL     1      -4.029  -4.641   2.714  0.00  0.00    +0.147 A 
ATOM     23  C   UNL     1      -2.988  -5.403   2.176  0.00  0.00    +0.036 A 
BRANCH  22  24
ATOM     24  S   UNL     1      -5.476  -5.455   3.339  0.00  0.00    +0.059 S 
ATOM     25  O   UNL     1      -6.593  -5.105   2.496  0.00  0.00    -0.153 OA
ATOM     26  O   UNL     1      -5.482  -5.346   4.777  0.00  0.00    -0.153 OA
BRANCH  24  27
ATOM     27  N   UNL     1      -5.196  -7.081   3.024  0.00  0.00    -0.203 NA
ATOM     28  H   UNL     1      -5.097  -7.343   2.048  0.00  0.00    +0.144 HD
ATOM     29  H   UNL     1      -4.705  -7.580   3.760  0.00  0.00    +0.144 HD
ENDBRANCH  24  27
ENDBRANCH  22  24
BRANCH  21  30
ATOM     30  O   UNL     1      -5.041  -2.571   3.206  0.00  0.00    -0.493 OA
ATOM     31  C   UNL     1      -5.065  -1.156   3.084  0.00  0.00    +0.277 C 
ENDBRANCH  21  30
ENDBRANCH  17  18
ENDBRANCH   1  17
TORSDOF 12
