REMARK  Name = 
REMARK  3 active torsions:
REMARK  status: ('A' for Active; 'I' for Inactive)
REMARK    1  A    between atoms: C_5  and  O_6
REMARK    2  A    between atoms: O_6  and  C_7
REMARK    3  A    between atoms: N_15  and  C_16
REMARK                            x       y       z     vdW  Elec       q    Type
REMARK                         _______ _______ _______ _____ _____    ______ ____
ROOT
ATOM      1  C   UNL     1      -0.000  -0.000  -0.000  0.00  0.00    +0.250 C 
ATOM      2  C   UNL     1      -0.000  -0.000   0.000  0.00  0.00    +0.174 C 
ATOM      3  O   UNL     1      -0.000  -0.000   0.000  0.00  0.00    -0.293 OA
ATOM      4  C   UNL     1      -0.000  -0.000   0.000  0.00  0.00    +0.078 C 
ATOM      5  C   UNL     1      -0.000  -0.000  -0.000  0.00  0.00    +0.014 C 
ATOM      6  C   UNL     1      -0.000  -0.000   0.000  0.00  0.00    +0.021 C 
ATOM      7  C   UNL     1      -0.000  -0.000  -0.000  0.00  0.00    +0.065 C 
ATOM      8  C   UNL     1      -0.000  -0.000  -0.000  0.00  0.00    +0.054 C 
ATOM      9  C   UNL     1      -0.000  -0.000   0.000  0.00  0.00    -0.038 A 
ATOM     10  C   UNL     1      -0.000  -0.000   0.000  0.00  0.00    +0.012 A 
ATOM     11  C   UNL     1      -0.000  -0.000   0.000  0.00  0.00    +0.167 A 
ATOM     12  C   UNL     1      -0.000  -0.000   0.000  0.00  0.00    +0.162 A 
ATOM     13  C   UNL     1      -0.000  -0.000  -0.000  0.00  0.00    +0.050 A 
ATOM     14  C   UNL     1      -0.000  -0.000   0.000  0.00  0.00    +0.008 A 
ATOM     15  N   UNL     1      -0.000  -0.000   0.000  0.00  0.00    -0.302 NA
ATOM     16  C   UNL     1      -0.000  -0.000   0.000  0.00  0.00    +0.105 C 
ATOM     17  C   UNL     1      -0.000  -0.000   0.000  0.00  0.00    +0.085 C 
ATOM     18  C   UNL     1      -0.000  -0.000   0.000  0.00  0.00    +0.031 C 
ATOM     19  C   UNL     1      -0.000  -0.000   0.000  0.00  0.00    +0.049 C 
ATOM     20  O   UNL     1      -0.000  -0.000   0.000  0.00  0.00    -0.476 OA
ENDROOT
BRANCH  12  21
ATOM     21  O   UNL     1      -0.000  -0.000   0.000  0.00  0.00    -0.491 OA
ATOM     22  C   UNL     1      -0.000  -0.000  -0.000  0.00  0.00    +0.277 C 
ENDBRANCH  12  21
TORSDOF 1
