REMARK  Name = 
REMARK  14 active torsions:
REMARK  status: ('A' for Active; 'I' for Inactive)
REMARK    1  A    between atoms: C_1  and  C_2
REMARK    2  A    between atoms: C_2  and  C_3
REMARK    3  A    between atoms: C_2  and  N_4
REMARK    4  A    between atoms: N_4  and  C_5
REMARK    5  A    between atoms: C_5  and  C_6
REMARK    6  A    between atoms: C_6  and  O_7
REMARK    7  A    between atoms: C_6  and  C_8
REMARK    8  A    between atoms: C_8  and  O_9
REMARK    9  A    between atoms: O_9  and  C_10
REMARK   10  A    between atoms: C_13  and  C_14
REMARK   11  A    between atoms: C_14  and  C_15
REMARK   12  A    between atoms: C_15  and  O_16
REMARK   13  A    between atoms: O_16  and  C_17
REMARK   14  A    between atoms: C_17  and  C_18
REMARK                            x       y       z     vdW  Elec       q    Type
REMARK                         _______ _______ _______ _____ _____    ______ ____
ROOT
ATOM      1  C   UNL     1       8.218   2.246   3.941  0.00  0.00    +0.121 A 
ATOM      2  C   UNL     1       8.947   1.056   3.987  0.00  0.00    +0.046 A 
ATOM      3  C   UNL     1      10.352   1.086   4.022  0.00  0.00    +0.007 A 
ATOM      4  C   UNL     1      11.037   2.304   4.004  0.00  0.00    -0.045 A 
ATOM      5  C   UNL     1      10.295   3.489   3.940  0.00  0.00    +0.007 A 
ATOM      6  C   UNL     1       8.904   3.459   3.926  0.00  0.00    +0.046 A 
ENDROOT
BRANCH   1   7
ATOM      7  O   UNL     1       6.848   2.126   3.903  0.00  0.00    -0.489 OA
BRANCH   7   8
ATOM      8  C   UNL     1       6.144   3.379   3.857  0.00  0.00    +0.261 C 
BRANCH   8   9
ATOM      9  C   UNL     1       4.639   3.158   3.712  0.00  0.00    +0.166 C 
BRANCH   9  10
ATOM     10  O   UNL     1       4.134   2.408   4.825  0.00  0.00    -0.387 OA
ATOM     11  H   UNL     1       4.724   1.637   4.922  0.00  0.00    +0.210 HD
ENDBRANCH   9  10
BRANCH   9  12
ATOM     12  C   UNL     1       4.306   2.442   2.394  0.00  0.00    +0.115 C 
BRANCH  12  13
ATOM     13  N   UNL     1       2.852   2.420   2.209  0.00  0.00    -0.311 NA
ATOM     14  H   UNL     1       2.433   2.016   3.049  0.00  0.00    +0.122 HD
BRANCH  13  16
ATOM     15  C   UNL     1       0.897   1.636   1.020  0.00  0.00    +0.023 C 
ATOM     16  C   UNL     1       2.426   1.684   1.017  0.00  0.00    +0.048 C 
ATOM     17  C   UNL     1       2.918   2.347  -0.271  0.00  0.00    +0.023 C 
ENDBRANCH  13  16
ENDBRANCH  12  13
ENDBRANCH   9  12
ENDBRANCH   8   9
ENDBRANCH   7   8
ENDBRANCH   1   7
BRANCH   4  18
ATOM     18  C   UNL     1      12.544   2.381   4.049  0.00  0.00    +0.063 C 
BRANCH  18  19
ATOM     19  C   UNL     1      13.036   3.179   5.259  0.00  0.00    +0.164 C 
BRANCH  19  20
ATOM     20  O   UNL     1      14.460   3.287   5.235  0.00  0.00    -0.379 OA
BRANCH  20  21
ATOM     21  C   UNL     1      14.910   4.100   6.320  0.00  0.00    +0.163 C 
BRANCH  21  22
ATOM     22  C   UNL     1      16.397   4.221   6.257  0.00  0.00    +0.015 C 
ATOM     23  C   UNL     1      17.279   3.469   7.221  0.00  0.00    +0.006 C 
ATOM     24  C   UNL     1      17.123   4.959   7.354  0.00  0.00    +0.006 C 
ENDBRANCH  21  22
ENDBRANCH  20  21
ENDBRANCH  19  20
ENDBRANCH  18  19
ENDBRANCH   4  18
TORSDOF 12
