REMARK  Name = 
REMARK  7 active torsions:
REMARK  status: ('A' for Active; 'I' for Inactive)
REMARK    1  A    between atoms: C_1  and  C_2
REMARK    2  A    between atoms: C_3  and  O_4
REMARK    3  A    between atoms: O_4  and  C_5
REMARK    4  A    between atoms: C_5  and  C_6
REMARK    5  A    between atoms: C_13  and  C_14
REMARK    6  A    between atoms: C_14  and  S_15
REMARK    7  A    between atoms: S_15  and  C_17
REMARK                            x       y       z     vdW  Elec       q    Type
REMARK                         _______ _______ _______ _____ _____    ______ ____
ROOT
ATOM      1  C   UNL     1       0.731  -0.157   0.211  0.00  0.00    +0.049 C 
ATOM      2  C   UNL     1       2.224  -0.109   0.063  0.00  0.00    +0.013 A 
ATOM      3  C   UNL     1       2.961  -1.293  -0.158  0.00  0.00    +0.060 A 
ATOM      4  N   UNL     1       4.322  -1.314  -0.130  0.00  0.00    -0.258 NA
ATOM      5  C   UNL     1       4.979  -0.157   0.077  0.00  0.00    +0.114 A 
ATOM      6  C   UNL     1       4.340   1.063   0.207  0.00  0.00    +0.065 A 
ATOM      7  C   UNL     1       2.949   1.093   0.154  0.00  0.00    +0.127 A 
ENDROOT
BRANCH   3   8
ATOM      8  C   UNL     1       2.321  -2.630  -0.480  0.00  0.00    +0.167 C 
BRANCH   8   9
ATOM      9  S   UNL     1       2.103  -3.650   0.990  0.00  0.00    +0.095 S 
ATOM     10  O   UNL     1       0.834  -3.338   1.730  0.00  0.00    -0.249 OA
BRANCH   9  11
ATOM     11  C   UNL     1       1.864  -5.215   0.275  0.00  0.00    +0.198 A 
ATOM     12  N   UNL     1       0.982  -6.135   0.784  0.00  0.00    -0.331 N 
ATOM     13  H   UNL     1       0.351  -5.959   1.554  0.00  0.00    +0.168 HD
ATOM     14  C   UNL     1       1.249  -7.348   0.200  0.00  0.00    +0.067 A 
ATOM     15  C   UNL     1       2.203  -7.051  -0.769  0.00  0.00    +0.090 A 
ATOM     16  C   UNL     1       2.687  -8.081  -1.588  0.00  0.00    +0.030 A 
ATOM     17  C   UNL     1       2.239  -9.390  -1.363  0.00  0.00    +0.002 A 
ATOM     18  C   UNL     1       1.312  -9.665  -0.357  0.00  0.00    +0.002 A 
ATOM     19  C   UNL     1       0.778  -8.644   0.441  0.00  0.00    +0.028 A 
ATOM     20  N   UNL     1       2.559  -5.721  -0.720  0.00  0.00    -0.220 NA
ENDBRANCH   9  11
ENDBRANCH   8   9
ENDBRANCH   3   8
BRANCH   7  21
ATOM     21  O   UNL     1       2.428   2.360   0.282  0.00  0.00    -0.483 OA
BRANCH  21  22
ATOM     22  C   UNL     1       1.301   2.676  -0.549  0.00  0.00    +0.342 C 
BRANCH  22  23
ATOM     23  C   UNL     1       1.316   4.117  -1.071  0.00  0.00    +0.424 C 
ATOM     24  F   UNL     1       0.331   4.847  -0.493  0.00  0.00    -0.167 F 
ATOM     25  F   UNL     1       1.088   4.140  -2.408  0.00  0.00    -0.167 F 
ATOM     26  F   UNL     1       2.482   4.755  -0.850  0.00  0.00    -0.167 F 
ENDBRANCH  22  23
ENDBRANCH  21  22
ENDBRANCH   7  21
TORSDOF 6
