REMARK  Name = 
REMARK  4 active torsions:
REMARK  status: ('A' for Active; 'I' for Inactive)
REMARK    1  A    between atoms: O_1  and  C_2
REMARK    2  A    between atoms: C_2  and  C_4
REMARK    3  A    between atoms: C_5  and  O_6
REMARK    4  A    between atoms: C_9  and  C_11
REMARK                            x       y       z     vdW  Elec       q    Type
REMARK                         _______ _______ _______ _____ _____    ______ ____
ROOT
ATOM      1  C   UNL     1       3.023   0.610   1.207  0.00  0.00    +0.101 A 
ATOM      2  C   UNL     1       3.930  -0.136   1.976  0.00  0.00    +0.027 A 
ATOM      3  C   UNL     1       4.674   0.448   3.020  0.00  0.00    -0.014 A 
ATOM      4  C   UNL     1       4.449   1.817   3.273  0.00  0.00    +0.012 A 
ATOM      5  C   UNL     1       3.540   2.566   2.515  0.00  0.00    +0.047 A 
ATOM      6  C   UNL     1       2.850   1.967   1.470  0.00  0.00    +0.131 A 
ENDROOT
BRANCH   3   7
ATOM      7  C   UNL     1       5.640  -0.347   3.822  0.00  0.00    +0.018 A 
ATOM      8  C   UNL     1       5.853  -0.083   5.192  0.00  0.00    +0.014 A 
ATOM      9  C   UNL     1       6.743  -0.851   5.954  0.00  0.00    +0.039 A 
ATOM     10  C   UNL     1       7.427  -1.903   5.362  0.00  0.00    +0.126 A 
ATOM     11  F   UNL     1       8.262  -2.647   6.098  0.00  0.00    -0.205 F 
ATOM     12  C   UNL     1       7.254  -2.193   4.021  0.00  0.00    +0.077 A 
ATOM     13  C   UNL     1       6.379  -1.414   3.266  0.00  0.00    +0.134 A 
ATOM     14  F   UNL     1       6.272  -1.709   1.962  0.00  0.00    -0.205 F 
ENDBRANCH   3   7
BRANCH   1  15
ATOM     15  C   UNL     1       2.291  -0.095   0.127  0.00  0.00    +0.340 C 
ATOM     16  O   UNL     1       2.761  -1.023  -0.506  0.00  0.00    -0.245 OA
BRANCH  15  17
ATOM     17  O   UNL     1       1.051   0.397  -0.084  0.00  0.00    -0.477 OA
ATOM     18  H   UNL     1       0.745   1.025   0.604  0.00  0.00    +0.295 HD
ENDBRANCH  15  17
ENDBRANCH   1  15
BRANCH   6  19
ATOM     19  O   UNL     1       2.012   2.763   0.740  0.00  0.00    -0.506 OA
ATOM     20  H   UNL     1       2.090   2.513  -0.204  0.00  0.00    +0.292 HD
ENDBRANCH   6  19
TORSDOF 4
