REMARK  Name = 
REMARK  12 active torsions:
REMARK  status: ('A' for Active; 'I' for Inactive)
REMARK    1  A    between atoms: C_1  and  C_2
REMARK    2  A    between atoms: C_2  and  C_3
REMARK    3  A    between atoms: C_2  and  N_4
REMARK    4  A    between atoms: N_4  and  C_5
REMARK    5  A    between atoms: N_4  and  C_23
REMARK    6  A    between atoms: C_5  and  C_6
REMARK    7  A    between atoms: C_6  and  C_7
REMARK    8  A    between atoms: C_7  and  C_8
REMARK    9  A    between atoms: C_7  and  C_11
REMARK   10  A    between atoms: C_7  and  C_17
REMARK   11  A    between atoms: C_23  and  C_24
REMARK   12  A    between atoms: C_23  and  C_25
REMARK                            x       y       z     vdW  Elec       q    Type
REMARK                         _______ _______ _______ _____ _____    ______ ____
ROOT
ATOM      1  C   UNL     1       0.601  -0.598  -3.836  0.00  0.00    +0.114 C 
ENDROOT
BRANCH   1   2
ATOM      2  C   UNL     1       1.093  -1.819  -4.660  0.00  0.00    +0.061 A 
ATOM      3  C   UNL     1       1.318  -1.756  -6.037  0.00  0.00    +0.025 A 
ATOM      4  C   UNL     1       1.906  -2.842  -6.685  0.00  0.00    +0.003 A 
ATOM      5  C   UNL     1       2.177  -4.000  -5.971  0.00  0.00    +0.020 A 
ATOM      6  C   UNL     1       1.809  -4.037  -4.643  0.00  0.00    +0.111 A 
ATOM      7  N   UNL     1       1.262  -2.988  -3.987  0.00  0.00    -0.259 NA
ENDBRANCH   1   2
BRANCH   1   8
ATOM      8  C   UNL     1       1.157   0.783  -4.316  0.00  0.00    -0.027 A 
ATOM      9  C   UNL     1       0.474   1.985  -4.045  0.00  0.00    +0.005 A 
ATOM     10  C   UNL     1       0.966   3.221  -4.483  0.00  0.00    +0.000 A 
ATOM     11  C   UNL     1       2.164   3.291  -5.183  0.00  0.00    +0.000 A 
ATOM     12  C   UNL     1       2.891   2.130  -5.413  0.00  0.00    +0.000 A 
ATOM     13  C   UNL     1       2.407   0.899  -4.961  0.00  0.00    +0.005 A 
ENDBRANCH   1   8
BRANCH   1  14
ATOM     14  C   UNL     1      -0.973  -0.679  -3.917  0.00  0.00    +0.227 C 
ATOM     15  O   UNL     1      -1.716   0.159  -4.431  0.00  0.00    -0.275 OA
ATOM     16  N   UNL     1      -1.557  -1.796  -3.373  0.00  0.00    -0.328 N 
ATOM     17  H   UNL     1      -2.552  -1.899  -3.532  0.00  0.00    +0.145 HD
ATOM     18  H   UNL     1      -1.009  -2.648  -3.299  0.00  0.00    +0.145 HD
ENDBRANCH   1  14
BRANCH   1  19
ATOM     19  C   UNL     1       0.996  -0.742  -2.312  0.00  0.00    +0.042 C 
BRANCH  19  20
ATOM     20  C   UNL     1       2.516  -0.801  -2.017  0.00  0.00    +0.086 C 
BRANCH  20  21
ATOM     21  N   UNL     1       2.905  -0.943  -0.576  0.00  0.00    -0.297 NA
BRANCH  21  23
ATOM     22  C   UNL     1       3.108  -3.428  -0.963  0.00  0.00    +0.024 C 
ATOM     23  C   UNL     1       2.576  -2.303  -0.044  0.00  0.00    +0.051 C 
ATOM     24  C   UNL     1       3.131  -2.636   1.351  0.00  0.00    +0.024 C 
ENDBRANCH  21  23
BRANCH  21  25
ATOM     25  C   UNL     1       2.464   0.238   0.231  0.00  0.00    +0.051 C 
ATOM     26  C   UNL     1       2.854   1.583  -0.432  0.00  0.00    +0.024 C 
ATOM     27  C   UNL     1       3.040   0.324   1.654  0.00  0.00    +0.024 C 
ENDBRANCH  21  25
ENDBRANCH  20  21
ENDBRANCH  19  20
ENDBRANCH   1  19
TORSDOF 8
