REMARK  Name = 
REMARK  6 active torsions:
REMARK  status: ('A' for Active; 'I' for Inactive)
REMARK    1  A    between atoms: O_1  and  C_2
REMARK    2  A    between atoms: C_2  and  C_3
REMARK    3  A    between atoms: C_2  and  C_11
REMARK    4  A    between atoms: C_2  and  C_18
REMARK    5  A    between atoms: C_3  and  C_4
REMARK    6  A    between atoms: C_4  and  N_5
REMARK                            x       y       z     vdW  Elec       q    Type
REMARK                         _______ _______ _______ _____ _____    ______ ____
ROOT
ATOM      1  C   UNL     1       2.318  -0.054  -0.246  0.00  0.00    +0.095 C 
ENDROOT
BRANCH   1   2
ATOM      2  C   UNL     1       2.876  -0.638   1.160  0.00  0.00    +0.033 C 
ATOM      3  C   UNL     1       2.466  -2.056   1.688  0.00  0.00    +0.018 C 
ATOM      4  C   UNL     1       3.311  -2.501   2.907  0.00  0.00    -0.027 C 
ATOM      5  C   UNL     1       4.573  -2.735   2.487  0.00  0.00    -0.027 C 
ATOM      6  C   UNL     1       4.582  -2.332   1.038  0.00  0.00    +0.012 C 
ATOM      7  C   UNL     1       3.208  -2.930   0.699  0.00  0.00    +0.015 C 
ATOM      8  C   UNL     1       4.414  -0.795   1.110  0.00  0.00    +0.015 C 
ENDBRANCH   1   2
BRANCH   1   9
ATOM      9  C   UNL     1       2.801  -0.714  -1.559  0.00  0.00    -0.016 A 
ATOM     10  C   UNL     1       2.016  -1.674  -2.233  0.00  0.00    +0.006 A 
ATOM     11  C   UNL     1       2.487  -2.354  -3.366  0.00  0.00    +0.000 A 
ATOM     12  C   UNL     1       3.744  -2.061  -3.886  0.00  0.00    +0.000 A 
ATOM     13  C   UNL     1       4.523  -1.088  -3.277  0.00  0.00    +0.000 A 
ATOM     14  C   UNL     1       4.054  -0.424  -2.136  0.00  0.00    +0.006 A 
ENDBRANCH   1   9
BRANCH   1  15
ATOM     15  O   UNL     1       0.885  -0.129  -0.215  0.00  0.00    -0.384 OA
ATOM     16  H   UNL     1       0.570   0.389   0.544  0.00  0.00    +0.211 HD
ENDBRANCH   1  15
BRANCH   1  17
ATOM     17  C   UNL     1       2.713   1.450  -0.182  0.00  0.00    +0.055 C 
BRANCH  17  18
ATOM     18  C   UNL     1       2.431   2.438  -1.325  0.00  0.00    +0.087 C 
BRANCH  18  19
ATOM     19  N   UNL     1       3.171   3.696  -1.040  0.00  0.00    -0.302 NA
ATOM     20  C   UNL     1       2.959   4.258   0.301  0.00  0.00    +0.084 C 
ATOM     21  C   UNL     1       1.550   4.811   0.470  0.00  0.00    +0.015 C 
ATOM     22  C   UNL     1       1.367   5.967  -0.501  0.00  0.00    +0.002 C 
ATOM     23  C   UNL     1       1.671   5.526  -1.933  0.00  0.00    +0.015 C 
ATOM     24  C   UNL     1       2.982   4.738  -2.057  0.00  0.00    +0.084 C 
ENDBRANCH  18  19
ENDBRANCH  17  18
ENDBRANCH   1  17
TORSDOF 6
