REMARK  Name = 
REMARK  11 active torsions:
REMARK  status: ('A' for Active; 'I' for Inactive)
REMARK    1  A    between atoms: C_1  and  O_2
REMARK    2  A    between atoms: O_2  and  C_3
REMARK    3  A    between atoms: C_6  and  C_9
REMARK    4  A    between atoms: N_18  and  C_19
REMARK    5  A    between atoms: C_19  and  C_20
REMARK    6  A    between atoms: C_20  and  N_21
REMARK    7  A    between atoms: N_21  and  C_22
REMARK    8  A    between atoms: N_21  and  C_23
REMARK    9  A    between atoms: C_26  and  O_28
REMARK   10  A    between atoms: O_28  and  C_29
REMARK   11  A    between atoms: C_29  and  C_30
REMARK                            x       y       z     vdW  Elec       q    Type
REMARK                         _______ _______ _______ _____ _____    ______ ____
ROOT
ATOM      1  C   UNL     1       5.530  -4.034   3.003  0.00  0.00    +0.131 C 
ATOM      2  C   UNL     1       5.063  -5.466   2.649  0.00  0.00    +0.279 C 
ATOM      3  C   UNL     1       3.637  -5.780   3.121  0.00  0.00    +0.262 C 
ATOM      4  O   UNL     1       2.757  -6.181   2.357  0.00  0.00    -0.271 OA
ATOM      5  N   UNL     1       3.460  -5.722   4.505  0.00  0.00    -0.266 N 
ATOM      6  C   UNL     1       3.023  -4.466   5.021  0.00  0.00    +0.050 A 
ATOM      7  C   UNL     1       3.952  -3.419   5.147  0.00  0.00    +0.030 A 
ATOM      8  C   UNL     1       3.534  -2.156   5.577  0.00  0.00    +0.016 A 
ATOM      9  C   UNL     1       2.193  -1.927   5.876  0.00  0.00    +0.001 A 
ATOM     10  C   UNL     1       1.270  -2.965   5.764  0.00  0.00    +0.002 A 
ATOM     11  C   UNL     1       1.681  -4.233   5.344  0.00  0.00    +0.024 A 
ATOM     12  S   UNL     1       5.683  -3.656   4.802  0.00  0.00    -0.111 S 
ENDROOT
BRANCH   1  16
ATOM     13  C   UNL     1       9.260  -3.060   1.018  0.00  0.00    +0.120 A 
ATOM     14  C   UNL     1       8.105  -2.326   0.752  0.00  0.00    +0.046 A 
ATOM     15  C   UNL     1       6.909  -2.637   1.403  0.00  0.00    +0.008 A 
ATOM     16  C   UNL     1       6.855  -3.684   2.333  0.00  0.00    -0.030 A 
ATOM     17  C   UNL     1       8.043  -4.368   2.640  0.00  0.00    +0.008 A 
ATOM     18  C   UNL     1       9.234  -4.056   1.989  0.00  0.00    +0.046 A 
BRANCH  13  20
ATOM     19  C   UNL     1      10.382  -2.438  -0.948  0.00  0.00    +0.277 C 
ATOM     20  O   UNL     1      10.470  -2.848   0.414  0.00  0.00    -0.495 OA
ENDBRANCH  13  20
ENDBRANCH   1  16
BRANCH   2  21
ATOM     21  O   UNL     1       5.938  -6.460   3.225  0.00  0.00    -0.451 OA
BRANCH  21  22
ATOM     22  C   UNL     1       6.031  -7.636   2.555  0.00  0.00    +0.305 C 
ATOM     23  O   UNL     1       5.464  -7.908   1.509  0.00  0.00    -0.251 OA
ATOM     24  C   UNL     1       6.898  -8.597   3.310  0.00  0.00    +0.136 C 
ENDBRANCH  21  22
ENDBRANCH   2  21
BRANCH   5  25
ATOM     25  C   UNL     1       3.048  -6.956   5.180  0.00  0.00    +0.129 C 
BRANCH  25  26
ATOM     26  C   UNL     1       4.231  -7.460   6.046  0.00  0.00    +0.103 C 
BRANCH  26  27
ATOM     27  N   UNL     1       4.022  -8.720   6.783  0.00  0.00    -0.307 NA
ATOM     28  C   UNL     1       5.201  -8.998   7.615  0.00  0.00    +0.104 C 
ATOM     29  C   UNL     1       3.778  -9.855   5.891  0.00  0.00    +0.104 C 
ENDBRANCH  26  27
ENDBRANCH  25  26
ENDBRANCH   5  25
TORSDOF 7
