REMARK  Name = 
REMARK  13 active torsions:
REMARK  status: ('A' for Active; 'I' for Inactive)
REMARK    1  A    between atoms: C_1  and  S_2
REMARK    2  A    between atoms: S_2  and  C_3
REMARK    3  A    between atoms: S_2  and  C_11
REMARK    4  A    between atoms: C_3  and  C_4
REMARK    5  A    between atoms: C_4  and  CA_5
REMARK    6  A    between atoms: CA_5  and  N_7
REMARK    7  A    between atoms: CA_5  and  C_8
REMARK    8  A    between atoms: C_8  and  O_9
REMARK    9  A    between atoms: C_11  and  C_12
REMARK   10  A    between atoms: C_15  and  N_23
REMARK   11  A    between atoms: C_17  and  O_19
REMARK   12  A    between atoms: C_20  and  O_22
REMARK   13  A    between atoms: C_27  and  N_28
REMARK                            x       y       z     vdW  Elec       q    Type
REMARK                         _______ _______ _______ _____ _____    ______ ____
ROOT
ATOM      1  C   UNL     1      -1.243   0.548   6.482  0.00  0.00    +0.201 C 
ATOM      2  C   UNL     1      -2.627   0.957   6.982  0.00  0.00    +0.181 C 
ATOM      3  C   UNL     1      -2.474   2.435   7.347  0.00  0.00    +0.195 C 
ATOM      4  C   UNL     1      -1.001   2.750   7.055  0.00  0.00    +0.253 C 
ATOM      5  O   UNL     1      -0.548   1.757   6.120  0.00  0.00    -0.343 OA
ENDROOT
BRANCH   4   6
ATOM      6  N   UNL     1      -0.790   4.082   6.520  0.00  0.00    -0.286 N 
ATOM      7  C   UNL     1      -1.062   5.236   7.210  0.00  0.00    +0.167 A 
ATOM      8  C   UNL     1      -0.623   6.260   6.387  0.00  0.00    +0.147 A 
ATOM      9  C   UNL     1      -0.745   7.566   6.888  0.00  0.00    +0.147 A 
ATOM     10  N   UNL     1      -1.306   7.737   8.107  0.00  0.00    -0.219 NA
ATOM     11  C   UNL     1      -1.698   6.643   8.796  0.00  0.00    +0.225 A 
ATOM     12  N   UNL     1      -0.136   5.753   5.199  0.00  0.00    -0.231 NA
ATOM     13  N   UNL     1      -1.621   5.344   8.428  0.00  0.00    -0.216 NA
ATOM     14  C   UNL     1      -0.238   4.443   5.322  0.00  0.00    +0.203 A 
BRANCH   9  15
ATOM     15  N   UNL     1      -0.323   8.694   6.197  0.00  0.00    -0.341 N 
ATOM     16  H   UNL     1      -0.764   9.542   6.528  0.00  0.00    +0.144 HD
ATOM     17  H   UNL     1      -0.235   8.560   5.197  0.00  0.00    +0.144 HD
ENDBRANCH   9  15
ENDBRANCH   4   6
BRANCH   2  18
ATOM     18  O   UNL     1      -3.017   0.156   8.096  0.00  0.00    -0.386 OA
ATOM     19  H   UNL     1      -3.426   0.778   8.733  0.00  0.00    +0.210 HD
ENDBRANCH   2  18
BRANCH   3  20
ATOM     20  O   UNL     1      -2.846   2.663   8.711  0.00  0.00    -0.385 OA
ATOM     21  H   UNL     1      -2.629   3.600   8.906  0.00  0.00    +0.210 HD
ENDBRANCH   3  20
BRANCH   1  22
ATOM     22  C   UNL     1      -1.203  -0.486   5.355  0.00  0.00    +0.312 C 
BRANCH  22  24
ATOM     23  C   UNL     1      -1.402   1.381   3.344  0.00  0.00    +0.340 C 
ATOM     24  S   UNL     1      -2.262  -0.107   3.910  0.00  0.00    -0.011 S 
BRANCH  24  25
ATOM     25  C   UNL     1      -1.425  -1.201   2.723  0.00  0.00    +0.280 C 
BRANCH  25  26
ATOM     26  C   UNL     1      -1.921  -2.644   2.794  0.00  0.00    +0.084 C 
BRANCH  26  27
ATOM     27  CA  UNL     1      -1.206  -3.553   1.782  0.00  0.00    +0.165 C 
BRANCH  27  28
ATOM     28  N   UNL     1       0.269  -3.561   2.011  0.00  0.00    -0.318 NA
ATOM     29  H1  UNL     1       0.434  -3.921   2.956  0.00  0.00    +0.119 HD
ATOM     30  H2  UNL     1       0.679  -4.277   1.399  0.00  0.00    +0.119 HD
ENDBRANCH  27  28
BRANCH  27  31
ATOM     31  C   UNL     1      -1.475  -3.064   0.349  0.00  0.00    +0.322 C 
ATOM     32  OXT UNL     1      -2.497  -3.268  -0.286  0.00  0.00    -0.249 OA
BRANCH  31  33
ATOM     33  O   UNL     1      -0.439  -2.316  -0.116  0.00  0.00    -0.480 OA
ATOM     34  H   UNL     1       0.247  -2.310   0.595  0.00  0.00    +0.295 HD
ENDBRANCH  31  33
ENDBRANCH  27  31
ENDBRANCH  26  27
ENDBRANCH  25  26
ENDBRANCH  24  25
ENDBRANCH  22  24
ENDBRANCH   1  22
TORSDOF 12
