REMARK  Name = 
REMARK  7 active torsions:
REMARK  status: ('A' for Active; 'I' for Inactive)
REMARK    1  A    between atoms: C_1  and  C_2
REMARK    2  A    between atoms: C_3  and  C_4
REMARK    3  A    between atoms: C_4  and  C_5
REMARK    4  A    between atoms: C_5  and  O_6
REMARK    5  A    between atoms: C_16  and  C_17
REMARK    6  A    between atoms: C_20  and  S_23
REMARK    7  A    between atoms: S_23  and  C_24
REMARK                            x       y       z     vdW  Elec       q    Type
REMARK                         _______ _______ _______ _____ _____    ______ ____
ROOT
ATOM      1  C   UNL     1       1.069  -0.264  -0.168  0.00  0.00    +0.044 C 
ATOM      2  C   UNL     1       2.547  -0.071  -0.068  0.00  0.00    -0.038 C 
ATOM      3  C   UNL     1       3.493  -1.204  -0.075  0.00  0.00    -0.014 C 
ATOM      4  C   UNL     1       3.130  -2.495   0.049  0.00  0.00    +0.016 C 
ATOM      5  C   UNL     1       4.842  -0.624  -0.147  0.00  0.00    -0.010 A 
ATOM      6  C   UNL     1       4.667   0.771  -0.002  0.00  0.00    -0.011 A 
ATOM      7  C   UNL     1       5.763   1.617   0.062  0.00  0.00    +0.047 A 
ATOM      8  C   UNL     1       7.030   1.057  -0.079  0.00  0.00    +0.124 A 
ATOM      9  C   UNL     1       7.206  -0.308  -0.311  0.00  0.00    +0.039 A 
ATOM     10  F   UNL     1       8.103   1.854  -0.002  0.00  0.00    -0.205 F 
ATOM     11  C   UNL     1       6.103  -1.166  -0.347  0.00  0.00    +0.012 A 
ATOM     12  C   UNL     1       3.230   1.097  -0.000  0.00  0.00    -0.025 C 
ENDROOT
BRANCH   4  13
ATOM     13  C   UNL     1       3.985  -3.683   0.161  0.00  0.00    -0.024 A 
ATOM     14  C   UNL     1       4.326  -4.416  -0.978  0.00  0.00    +0.009 A 
ATOM     15  C   UNL     1       5.081  -5.590  -0.861  0.00  0.00    +0.018 A 
ATOM     16  C   UNL     1       5.502  -6.054   0.391  0.00  0.00    +0.039 A 
ATOM     17  C   UNL     1       5.169  -5.313   1.530  0.00  0.00    +0.018 A 
ATOM     18  C   UNL     1       4.411  -4.137   1.415  0.00  0.00    +0.009 A 
BRANCH  16  19
ATOM     19  S   UNL     1       6.569  -7.517   0.497  0.00  0.00    +0.051 S 
ATOM     20  O   UNL     1       6.482  -8.184  -0.845  0.00  0.00    -0.252 OA
ATOM     21  C   UNL     1       5.621  -8.524   1.660  0.00  0.00    +0.127 C 
ENDBRANCH  16  19
ENDBRANCH   4  13
BRANCH  12  22
ATOM     22  C   UNL     1       2.733   2.509  -0.048  0.00  0.00    +0.156 C 
BRANCH  22  23
ATOM     23  C   UNL     1       2.664   3.273   1.269  0.00  0.00    +0.309 C 
ATOM     24  O   UNL     1       2.507   4.488   1.313  0.00  0.00    -0.251 OA
BRANCH  23  25
ATOM     25  O   UNL     1       2.740   2.536   2.397  0.00  0.00    -0.480 OA
ATOM     26  H   UNL     1       2.862   1.580   2.249  0.00  0.00    +0.295 HD
ENDBRANCH  23  25
ENDBRANCH  22  23
ENDBRANCH  12  22
TORSDOF 5
