REMARK  Name = 
REMARK  2 active torsions:
REMARK  status: ('A' for Active; 'I' for Inactive)
REMARK    1  A    between atoms: C_4  and  N_5
REMARK    2  A    between atoms: C_8  and  C_14
REMARK                            x       y       z     vdW  Elec       q    Type
REMARK                         _______ _______ _______ _____ _____    ______ ____
ROOT
ATOM      1  N   UNL     1       1.361  -0.046   0.159  0.00  0.00    -0.327 N 
ATOM      2  H   UNL     1       0.976   0.832  -0.161  0.00  0.00    +0.145 HD
ATOM      3  H   UNL     1       0.978  -0.896  -0.229  0.00  0.00    +0.145 HD
ATOM      4  C   UNL     1       2.736  -0.037   0.066  0.00  0.00    +0.216 A 
ATOM      5  N   UNL     1       3.342   1.143   0.051  0.00  0.00    -0.193 NA
ATOM      6  C   UNL     1       4.671   1.156  -0.004  0.00  0.00    +0.187 A 
ATOM      7  C   UNL     1       5.448  -0.002  -0.060  0.00  0.00    +0.148 A 
ATOM      8  N   UNL     1       6.815   0.029  -0.070  0.00  0.00    -0.237 NA
ATOM      9  C   UNL     1       7.411   1.250  -0.034  0.00  0.00    +0.111 A 
ATOM     10  C   UNL     1       6.616   2.408  -0.038  0.00  0.00    +0.145 A 
ATOM     11  N   UNL     1       7.119   3.709  -0.059  0.00  0.00    -0.341 N 
ATOM     12  H   UNL     1       6.318   4.337  -0.108  0.00  0.00    +0.144 HD
ATOM     13  H   UNL     1       7.757   3.849  -0.836  0.00  0.00    +0.144 HD
ATOM     14  C   UNL     1       4.696  -1.173  -0.078  0.00  0.00    +0.149 A 
ATOM     15  N   UNL     1       5.266   2.350  -0.010  0.00  0.00    -0.209 NA
ATOM     16  N   UNL     1       3.355  -1.209  -0.025  0.00  0.00    -0.198 NA
ENDROOT
BRANCH   9  17
ATOM     17  C   UNL     1       8.894   1.218   0.024  0.00  0.00    +0.004 A 
ATOM     18  C   UNL     1       9.649   2.183   0.718  0.00  0.00    +0.010 A 
ATOM     19  C   UNL     1      11.046   2.115   0.789  0.00  0.00    +0.001 A 
ATOM     20  C   UNL     1      11.725   1.066   0.180  0.00  0.00    +0.000 A 
ATOM     21  C   UNL     1      11.010   0.090  -0.506  0.00  0.00    +0.001 A 
ATOM     22  C   UNL     1       9.614   0.168  -0.583  0.00  0.00    +0.010 A 
ENDBRANCH   9  17
BRANCH  14  23
ATOM     23  N   UNL     1       5.323  -2.422  -0.234  0.00  0.00    -0.341 N 
ATOM     24  H   UNL     1       6.146  -2.495   0.357  0.00  0.00    +0.144 HD
ATOM     25  H   UNL     1       4.638  -3.158  -0.094  0.00  0.00    +0.144 HD
ENDBRANCH  14  23
TORSDOF 2
