REMARK  Name = 
REMARK  15 active torsions:
REMARK  status: ('A' for Active; 'I' for Inactive)
REMARK    1  A    between atoms: C_1  and  O_2
REMARK    2  A    between atoms: O_2  and  C_3
REMARK    3  A    between atoms: C_5  and  C_13
REMARK    4  A    between atoms: C_7  and  O_8
REMARK    5  A    between atoms: O_8  and  C_9
REMARK    6  A    between atoms: C_10  and  O_11
REMARK    7  A    between atoms: O_11  and  C_12
REMARK    8  A    between atoms: N_15  and  C_16
REMARK    9  A    between atoms: C_16  and  C_17
REMARK   10  A    between atoms: C_20  and  O_21
REMARK   11  A    between atoms: O_21  and  C_22
REMARK   12  A    between atoms: C_22  and  C_23
REMARK   13  A    between atoms: C_23  and  N_24
REMARK   14  A    between atoms: N_24  and  C_25
REMARK   15  A    between atoms: N_24  and  C_26
REMARK                            x       y       z     vdW  Elec       q    Type
REMARK                         _______ _______ _______ _____ _____    ______ ____
ROOT
ATOM      1  C   UNL     1       4.993   1.711  -3.852  0.00  0.00    +0.245 C 
ATOM      2  N   UNL     1       5.628   1.440  -5.044  0.00  0.00    -0.307 N 
ATOM      3  H   UNL     1       5.512   0.538  -5.487  0.00  0.00    +0.149 HD
ATOM      4  O   UNL     1       4.908   2.840  -3.385  0.00  0.00    -0.270 OA
ENDROOT
BRANCH   1   9
ATOM      5  C   UNL     1       2.627  -0.206  -1.620  0.00  0.00    +0.166 A 
ATOM      6  C   UNL     1       3.153  -1.519  -1.657  0.00  0.00    +0.204 A 
ATOM      7  C   UNL     1       4.276  -1.774  -2.484  0.00  0.00    +0.166 A 
ATOM      8  C   UNL     1       4.866  -0.733  -3.223  0.00  0.00    +0.062 A 
ATOM      9  C   UNL     1       4.370   0.564  -3.143  0.00  0.00    +0.044 A 
ATOM     10  C   UNL     1       3.263   0.822  -2.334  0.00  0.00    +0.062 A 
BRANCH   5  12
ATOM     11  C   UNL     1       0.738   1.191  -1.199  0.00  0.00    +0.277 C 
ATOM     12  O   UNL     1       1.520   0.052  -0.848  0.00  0.00    -0.491 OA
ENDBRANCH   5  12
BRANCH   6  13
ATOM     13  O   UNL     1       2.684  -2.593  -0.950  0.00  0.00    -0.488 OA
ATOM     14  C   UNL     1       1.547  -2.497  -0.108  0.00  0.00    +0.277 C 
ENDBRANCH   6  13
BRANCH   7  15
ATOM     15  O   UNL     1       4.938  -2.959  -2.696  0.00  0.00    -0.491 OA
ATOM     16  C   UNL     1       4.498  -4.141  -2.045  0.00  0.00    +0.277 C 
ENDBRANCH   7  15
ENDBRANCH   1   9
BRANCH   2  17
ATOM     17  C   UNL     1       6.179   2.521  -5.829  0.00  0.00    +0.139 C 
BRANCH  17  18
ATOM     18  C   UNL     1       6.690   2.013  -7.150  0.00  0.00    -0.030 A 
ATOM     19  C   UNL     1       7.993   1.523  -7.299  0.00  0.00    +0.009 A 
ATOM     20  C   UNL     1       8.413   0.982  -8.522  0.00  0.00    +0.046 A 
ATOM     21  C   UNL     1       7.534   0.918  -9.605  0.00  0.00    +0.121 A 
ATOM     22  C   UNL     1       6.241   1.437  -9.456  0.00  0.00    +0.046 A 
ATOM     23  C   UNL     1       5.820   1.972  -8.241  0.00  0.00    +0.009 A 
BRANCH  21  24
ATOM     24  O   UNL     1       8.012   0.326 -10.753  0.00  0.00    -0.491 OA
BRANCH  24  25
ATOM     25  C   UNL     1       7.044   0.268 -11.809  0.00  0.00    +0.244 C 
BRANCH  25  26
ATOM     26  C   UNL     1       7.558  -0.414 -13.082  0.00  0.00    +0.124 C 
BRANCH  26  27
ATOM     27  N   UNL     1       6.504  -0.491 -14.123  0.00  0.00    -0.305 NA
ATOM     28  C   UNL     1       6.980  -1.247 -15.283  0.00  0.00    +0.104 C 
ATOM     29  C   UNL     1       6.037   0.830 -14.552  0.00  0.00    +0.104 C 
ENDBRANCH  26  27
ENDBRANCH  25  26
ENDBRANCH  24  25
ENDBRANCH  21  24
ENDBRANCH  17  18
ENDBRANCH   2  17
TORSDOF 10
