REMARK  Name = 
REMARK  12 active torsions:
REMARK  status: ('A' for Active; 'I' for Inactive)
REMARK    1  A    between atoms: O_1  and  C_2
REMARK    2  A    between atoms: C_2  and  C_3
REMARK    3  A    between atoms: C_3  and  N_4
REMARK    4  A    between atoms: N_4  and  C_5
REMARK    5  A    between atoms: C_5  and  C_6
REMARK    6  A    between atoms: C_6  and  O_7
REMARK    7  A    between atoms: N_22  and  C_23
REMARK    8  A    between atoms: N_22  and  C_26
REMARK    9  A    between atoms: C_23  and  C_24
REMARK   10  A    between atoms: C_24  and  O_25
REMARK   11  A    between atoms: C_26  and  C_27
REMARK   12  A    between atoms: C_27  and  O_28
REMARK                            x       y       z     vdW  Elec       q    Type
REMARK                         _______ _______ _______ _____ _____    ______ ____
ROOT
ATOM      1  N   UNL     1       4.325  -0.931   1.270  0.00  0.00    -0.295 N 
ATOM      2  C   UNL     1       5.007  -1.675   2.207  0.00  0.00    +0.220 A 
ATOM      3  N   UNL     1       4.885  -3.004   2.199  0.00  0.00    -0.197 NA
ATOM      4  C   UNL     1       5.482  -3.741   3.159  0.00  0.00    +0.153 A 
ATOM      5  N   UNL     1       5.399  -5.149   3.018  0.00  0.00    -0.313 N 
ATOM      6  C   UNL     1       4.660  -5.840   4.086  0.00  0.00    +0.106 C 
ATOM      7  C   UNL     1       4.950  -7.343   3.989  0.00  0.00    +0.019 C 
ATOM      8  C   UNL     1       4.654  -7.896   2.593  0.00  0.00    +0.003 C 
ATOM      9  C   UNL     1       5.339  -7.062   1.514  0.00  0.00    +0.019 C 
ATOM     10  C   UNL     1       5.001  -5.582   1.671  0.00  0.00    +0.106 C 
ATOM     11  C   UNL     1       6.234  -3.161   4.197  0.00  0.00    +0.136 A 
ATOM     12  N   UNL     1       6.848  -3.877   5.179  0.00  0.00    -0.209 NA
ATOM     13  C   UNL     1       7.550  -3.230   6.109  0.00  0.00    +0.220 A 
ATOM     14  N   UNL     1       8.089  -3.977   7.131  0.00  0.00    -0.295 N 
ATOM     15  N   UNL     1       7.733  -1.909   6.083  0.00  0.00    -0.197 NA
ATOM     16  C   UNL     1       7.161  -1.201   5.081  0.00  0.00    +0.153 A 
ATOM     17  N   UNL     1       7.477   0.177   4.968  0.00  0.00    -0.313 N 
ATOM     18  C   UNL     1       6.357   1.079   5.253  0.00  0.00    +0.106 C 
ATOM     19  C   UNL     1       6.681   2.460   4.675  0.00  0.00    +0.019 C 
ATOM     20  C   UNL     1       8.031   2.982   5.171  0.00  0.00    +0.003 C 
ATOM     21  C   UNL     1       9.136   1.943   4.970  0.00  0.00    +0.019 C 
ATOM     22  C   UNL     1       8.745   0.588   5.571  0.00  0.00    +0.106 C 
ATOM     23  C   UNL     1       6.335  -1.789   4.104  0.00  0.00    +0.136 A 
ATOM     24  N   UNL     1       5.734  -1.057   3.131  0.00  0.00    -0.209 NA
ENDROOT
BRANCH   1  25
ATOM     25  C   UNL     1       4.651   0.491   1.124  0.00  0.00    +0.136 C 
BRANCH  25  26
ATOM     26  C   UNL     1       6.027   0.772   0.498  0.00  0.00    +0.174 C 
BRANCH  26  27
ATOM     27  O   UNL     1       6.053   0.437  -0.890  0.00  0.00    -0.393 OA
ATOM     28  H   UNL     1       6.947   0.652  -1.209  0.00  0.00    +0.209 HD
ENDBRANCH  26  27
ENDBRANCH  25  26
ENDBRANCH   1  25
BRANCH  14  29
ATOM     29  C   UNL     1       8.571  -5.328   6.814  0.00  0.00    +0.136 C 
BRANCH  29  30
ATOM     30  C   UNL     1       9.712  -5.339   5.780  0.00  0.00    +0.174 C 
BRANCH  30  31
ATOM     31  O   UNL     1      10.837  -4.584   6.231  0.00  0.00    -0.393 OA
ATOM     32  H   UNL     1      10.551  -3.653   6.215  0.00  0.00    +0.209 HD
ENDBRANCH  30  31
ENDBRANCH  29  30
ENDBRANCH  14  29
BRANCH  14  33
ATOM     33  C   UNL     1       8.512  -3.334   8.375  0.00  0.00    +0.136 C 
BRANCH  33  34
ATOM     34  C   UNL     1       7.308  -2.802   9.175  0.00  0.00    +0.174 C 
BRANCH  34  35
ATOM     35  O   UNL     1       6.355  -3.835   9.429  0.00  0.00    -0.393 OA
ATOM     36  H   UNL     1       6.092  -4.164   8.549  0.00  0.00    +0.209 HD
ENDBRANCH  34  35
ENDBRANCH  33  34
ENDBRANCH  14  33
BRANCH   1  37
ATOM     37  C   UNL     1       3.701  -1.634   0.143  0.00  0.00    +0.136 C 
BRANCH  37  38
ATOM     38  C   UNL     1       2.398  -2.346   0.557  0.00  0.00    +0.174 C 
BRANCH  38  39
ATOM     39  O   UNL     1       1.416  -1.426   1.038  0.00  0.00    -0.393 OA
ATOM     40  H   UNL     1       1.731  -1.155   1.920  0.00  0.00    +0.209 HD
ENDBRANCH  38  39
ENDBRANCH  37  38
ENDBRANCH   1  37
TORSDOF 12
