REMARK  Name = 
REMARK  14 active torsions:
REMARK  status: ('A' for Active; 'I' for Inactive)
REMARK    1  A    between atoms: C_1  and  N_2
REMARK    2  A    between atoms: N_2  and  C_3
REMARK    3  A    between atoms: N_2  and  C_17
REMARK    4  A    between atoms: C_3  and  C_4
REMARK    5  A    between atoms: C_4  and  O_5
REMARK    6  A    between atoms: O_5  and  C_6
REMARK    7  A    between atoms: C_9  and  N_10
REMARK    8  A    between atoms: N_10  and  S_11
REMARK    9  A    between atoms: S_11  and  C_12
REMARK   10  A    between atoms: C_17  and  C_18
REMARK   11  A    between atoms: C_18  and  C_19
REMARK   12  A    between atoms: C_22  and  N_23
REMARK   13  A    between atoms: N_23  and  S_24
REMARK   14  A    between atoms: S_24  and  C_25
REMARK                            x       y       z     vdW  Elec       q    Type
REMARK                         _______ _______ _______ _____ _____    ______ ____
ROOT
ATOM      1  C   UNL     1       0.889   0.033   0.076  0.00  0.00    +0.105 C 
ATOM      2  N   UNL     1       2.356   0.098   0.085  0.00  0.00    -0.302 NA
ENDROOT
BRANCH   2   3
ATOM      3  C   UNL     1       2.868   0.494   1.415  0.00  0.00    +0.089 C 
BRANCH   3   4
ATOM      4  C   UNL     1       2.553  -0.505   2.544  0.00  0.00    +0.050 C 
BRANCH   4   5
ATOM      5  C   UNL     1       3.147  -0.042   3.855  0.00  0.00    -0.046 A 
ATOM      6  C   UNL     1       4.439  -0.428   4.238  0.00  0.00    +0.005 A 
ATOM      7  C   UNL     1       4.991   0.040   5.433  0.00  0.00    +0.025 A 
ATOM      8  C   UNL     1       4.257   0.905   6.243  0.00  0.00    +0.048 A 
ATOM      9  C   UNL     1       2.966   1.283   5.882  0.00  0.00    +0.025 A 
ATOM     10  C   UNL     1       2.417   0.817   4.687  0.00  0.00    +0.005 A 
BRANCH   8  11
ATOM     11  N   UNL     1       4.799   1.391   7.467  0.00  0.00    -0.221 N 
ATOM     12  H   UNL     1       5.763   1.723   7.416  0.00  0.00    +0.173 HD
BRANCH  11  13
ATOM     13  S   UNL     1       4.618   0.422   8.842  0.00  0.00    +0.040 S 
ATOM     14  O   UNL     1       5.667   0.845   9.746  0.00  0.00    -0.155 OA
ATOM     15  O   UNL     1       4.475  -0.965   8.462  0.00  0.00    -0.155 OA
ATOM     16  C   UNL     1       3.074   1.017   9.498  0.00  0.00    +0.218 C 
ENDBRANCH  11  13
ENDBRANCH   8  11
ENDBRANCH   4   5
ENDBRANCH   3   4
ENDBRANCH   2   3
BRANCH   2  17
ATOM     17  C   UNL     1       2.791   1.046  -0.970  0.00  0.00    +0.125 C 
BRANCH  17  18
ATOM     18  C   UNL     1       4.311   1.118  -1.186  0.00  0.00    +0.244 C 
BRANCH  18  19
ATOM     19  O   UNL     1       4.592   1.998  -2.281  0.00  0.00    -0.491 OA
BRANCH  19  20
ATOM     20  C   UNL     1       5.916   2.273  -2.504  0.00  0.00    +0.121 A 
ATOM     21  C   UNL     1       6.169   3.239  -3.482  0.00  0.00    +0.047 A 
ATOM     22  C   UNL     1       7.481   3.618  -3.786  0.00  0.00    +0.028 A 
ATOM     23  C   UNL     1       8.543   3.032  -3.101  0.00  0.00    +0.048 A 
ATOM     24  C   UNL     1       8.302   2.050  -2.145  0.00  0.00    +0.028 A 
ATOM     25  C   UNL     1       6.991   1.671  -1.846  0.00  0.00    +0.047 A 
BRANCH  23  26
ATOM     26  N   UNL     1       9.889   3.401  -3.383  0.00  0.00    -0.221 N 
ATOM     27  H   UNL     1      10.057   4.405  -3.469  0.00  0.00    +0.173 HD
BRANCH  26  28
ATOM     28  S   UNL     1      10.679   2.593  -4.641  0.00  0.00    +0.040 S 
ATOM     29  O   UNL     1      11.749   3.480  -5.048  0.00  0.00    -0.155 OA
ATOM     30  O   UNL     1       9.716   2.096  -5.595  0.00  0.00    -0.155 OA
ATOM     31  C   UNL     1      11.420   1.222  -3.780  0.00  0.00    +0.218 C 
ENDBRANCH  26  28
ENDBRANCH  23  26
ENDBRANCH  19  20
ENDBRANCH  18  19
ENDBRANCH  17  18
ENDBRANCH   2  17
TORSDOF 11
