REMARK  Name = 
REMARK  13 active torsions:
REMARK  status: ('A' for Active; 'I' for Inactive)
REMARK    1  A    between atoms: C_1  and  O_2
REMARK    2  A    between atoms: O_2  and  C_3
REMARK    3  A    between atoms: C_4  and  C_5
REMARK    4  A    between atoms: C_6  and  C_7
REMARK    5  A    between atoms: C_8  and  C_9
REMARK    6  A    between atoms: C_10  and  C_11
REMARK    7  A    between atoms: C_11  and  C_12
REMARK    8  A    between atoms: C_13  and  C_14
REMARK    9  A    between atoms: C_15  and  C_16
REMARK   10  A    between atoms: C_16  and  C_17
REMARK   11  A    between atoms: C_18  and  C_19
REMARK   12  A    between atoms: C_19  and  O_20
REMARK   13  A    between atoms: C_22  and  C_23
REMARK                            x       y       z     vdW  Elec       q    Type
REMARK                         _______ _______ _______ _____ _____    ______ ____
ROOT
ATOM      1  C   UNL     1       4.959   3.793   3.430  0.00  0.00    +0.009 C 
ATOM      2  C   UNL     1       5.666   3.668   4.568  0.00  0.00    +0.004 C 
ENDROOT
BRANCH   1   7
ATOM      3  C   UNL     1       3.048   0.810   0.936  0.00  0.00    +0.124 A 
ATOM      4  C   UNL     1       4.319   0.581   1.461  0.00  0.00    +0.049 A 
ATOM      5  C   UNL     1       4.981   1.523   2.272  0.00  0.00    -0.040 A 
ATOM      6  C   UNL     1       6.382   1.130   2.658  0.00  0.00    +0.044 C 
ATOM      7  C   UNL     1       4.325   2.723   2.614  0.00  0.00    -0.019 A 
ATOM      8  C   UNL     1       3.022   2.973   2.062  0.00  0.00    -0.037 A 
ATOM      9  C   UNL     1       2.290   4.258   2.412  0.00  0.00    +0.045 C 
ATOM     10  C   UNL     1       2.412   2.034   1.180  0.00  0.00    -0.005 A 
ATOM     11  C   UNL     1       1.083   2.328   0.521  0.00  0.00    +0.048 C 
BRANCH   3  13
ATOM     12  C   UNL     1       2.662  -1.469   0.431  0.00  0.00    +0.277 C 
ATOM     13  O   UNL     1       2.423  -0.098   0.118  0.00  0.00    -0.495 OA
ENDBRANCH   3  13
ENDBRANCH   1   7
BRANCH   2  14
ATOM     14  C   UNL     1       6.245   4.760   5.362  0.00  0.00    -0.050 C 
ATOM     15  C   UNL     1       7.098   4.469   6.371  0.00  0.00    +0.003 C 
ATOM     16  C   UNL     1       5.853   6.194   5.074  0.00  0.00    +0.044 C 
BRANCH  15  17
ATOM     17  C   UNL     1       7.712   5.458   7.238  0.00  0.00    +0.001 C 
ATOM     18  C   UNL     1       8.550   5.187   8.253  0.00  0.00    +0.003 C 
BRANCH  18  19
ATOM     19  C   UNL     1       9.138   6.244   9.070  0.00  0.00    -0.044 C 
ATOM     20  C   UNL     1       9.877   7.210   8.489  0.00  0.00    +0.094 C 
ATOM     21  C   UNL     1       8.847   6.160  10.546  0.00  0.00    +0.044 C 
BRANCH  20  22
ATOM     22  C   UNL     1      10.487   8.351   9.206  0.00  0.00    +0.330 C 
ATOM     23  O   UNL     1      10.421   8.555  10.404  0.00  0.00    -0.246 OA
BRANCH  22  24
ATOM     24  O   UNL     1      11.136   9.181   8.361  0.00  0.00    -0.478 OA
ATOM     25  H   UNL     1      11.121   8.928   7.420  0.00  0.00    +0.295 HD
ENDBRANCH  22  24
ENDBRANCH  20  22
ENDBRANCH  18  19
ENDBRANCH  15  17
ENDBRANCH   2  14
TORSDOF 7
