REMARK  Name = 
REMARK  2 active torsions:
REMARK  status: ('A' for Active; 'I' for Inactive)
REMARK    1  A    between atoms: C_1  and  N_2
REMARK    2  A    between atoms: N_10  and  C_11
REMARK                            x       y       z     vdW  Elec       q    Type
REMARK                         _______ _______ _______ _____ _____    ______ ____
ROOT
ATOM      1  C   UNL     1       1.230  -0.066  -0.011  0.00  0.00    +0.138 C 
ATOM      2  N   UNL     1       2.679  -0.046  -0.075  0.00  0.00    -0.272 N 
ATOM      3  C   UNL     1       3.251   0.934  -0.861  0.00  0.00    +0.228 C 
ATOM      4  O   UNL     1       3.210   0.847  -2.092  0.00  0.00    -0.275 OA
ATOM      5  C   UNL     1       3.635   2.226  -0.213  0.00  0.00    +0.192 C 
ATOM      6  C   UNL     1       4.428   2.196   1.052  0.00  0.00    +0.233 C 
ATOM      7  O   UNL     1       5.416   2.918   1.191  0.00  0.00    -0.274 OA
ATOM      8  N   UNL     1       3.840   1.483   2.097  0.00  0.00    -0.238 N 
ATOM      9  C   UNL     1       3.986   0.067   2.026  0.00  0.00    +0.064 A 
ATOM     10  C   UNL     1       4.769  -0.630   2.964  0.00  0.00    +0.045 A 
ATOM     11  C   UNL     1       4.908  -2.016   2.881  0.00  0.00    +0.043 A 
ATOM     12  C   UNL     1       4.266  -2.732   1.876  0.00  0.00    +0.022 A 
ATOM     13  C   UNL     1       3.501  -2.053   0.932  0.00  0.00    +0.027 A 
ATOM     14 CL   UNL     1       5.893  -2.847   4.020  0.00  0.00    -0.083 Cl
ATOM     15  C   UNL     1       3.389  -0.653   0.981  0.00  0.00    +0.058 A 
ENDROOT
BRANCH   8  16
ATOM     16  C   UNL     1       3.528   2.121   3.354  0.00  0.00    +0.041 A 
ATOM     17  C   UNL     1       2.994   1.418   4.450  0.00  0.00    +0.024 A 
ATOM     18  C   UNL     1       2.647   2.070   5.640  0.00  0.00    +0.002 A 
ATOM     19  C   UNL     1       2.777   3.450   5.745  0.00  0.00    +0.000 A 
ATOM     20  C   UNL     1       3.244   4.177   4.659  0.00  0.00    +0.002 A 
ATOM     21  C   UNL     1       3.609   3.520   3.478  0.00  0.00    +0.024 A 
ENDBRANCH   8  16
TORSDOF 1
