REMARK  Name = 
REMARK  17 active torsions:
REMARK  status: ('A' for Active; 'I' for Inactive)
REMARK    1  A    between atoms: C_4  and  O_5
REMARK    2  A    between atoms: C_6  and  C_8
REMARK    3  A    between atoms: C_10  and  O_12
REMARK    4  A    between atoms: O_12  and  C_13
REMARK    5  A    between atoms: C_28  and  C_55
REMARK    6  A    between atoms: C_30  and  C_32
REMARK    7  A    between atoms: C_33  and  O_35
REMARK    8  A    between atoms: C_39  and  C_41
REMARK    9  A    between atoms: C_41  and  C_42
REMARK   10  A    between atoms: C_44  and  C_45
REMARK   11  A    between atoms: C_47  and  C_49
REMARK   12  A    between atoms: C_51  and  O_53
REMARK   13  A    between atoms: O_53  and  C_54
REMARK   14  A    between atoms: C_55  and  C_56
REMARK   15  A    between atoms: C_57  and  C_58
REMARK   16  A    between atoms: C_65  and  O_68
REMARK   17  A    between atoms: O_68  and  C_69
REMARK                            x       y       z     vdW  Elec       q    Type
REMARK                         _______ _______ _______ _____ _____    ______ ____
ROOT
ATOM      1  C   UNL     1      18.958   1.498   8.180  0.00  0.00    +0.179 C 
ATOM      2  C   UNL     1      17.040   0.966   8.580  0.00  0.00    +0.149 C 
ATOM      3  C   UNL     1      15.368   0.492   9.811  0.00  0.00    +0.038 C 
ATOM      4  C   UNL     1      14.244  -0.232  11.540  0.00  0.00    -0.008 C 
ATOM      5  C   UNL     1      12.392  -0.529  11.535  0.00  0.00    +0.008 C 
ATOM      6  C   UNL     1      13.672  -0.497  13.535  0.00  0.00    +0.033 C 
ATOM      7  C   UNL     1      12.610  -1.785  14.445  0.00  0.00    -0.076 C 
ATOM      8  C   UNL     1      12.290  -2.584  15.939  0.00  0.00    +0.039 C 
ATOM      9  C   UNL     1      12.579  -2.983  13.864  0.00  0.00    -0.017 C 
ATOM     10  C   UNL     1      13.956  -3.502  13.823  0.00  0.00    +0.078 C 
ATOM     11  C   UNL     1      14.354  -3.125  12.470  0.00  0.00    +0.143 C 
ATOM     12  O   UNL     1      13.560  -2.988  11.546  0.00  0.00    -0.297 OA
ATOM     13  C   UNL     1      15.793  -3.289  12.345  0.00  0.00    +0.106 C 
ATOM     14  C   UNL     1      16.302  -2.513  11.228  0.00  0.00    +0.128 C 
ATOM     15  C   UNL     1      17.643  -3.036  10.715  0.00  0.00    +0.060 C 
ATOM     16  C   UNL     1      18.381  -3.691  11.900  0.00  0.00    +0.014 C 
ATOM     17  C   UNL     1      18.434  -2.017   9.755  0.00  0.00    +0.207 C 
ATOM     18  O   UNL     1      18.863  -0.572  10.542  0.00  0.00    -0.455 OA
ATOM     19  C   UNL     1      17.760   0.190  10.844  0.00  0.00    +0.328 C 
ATOM     20  O   UNL     1      16.926  -0.537  10.345  0.00  0.00    -0.249 OA
ATOM     21  C   UNL     1      17.284   1.965  11.320  0.00  0.00    +0.185 C 
ATOM     22  N   UNL     1      17.451   3.208  10.423  0.00  0.00    -0.282 N 
ATOM     23  C   UNL     1      16.412   3.623   9.356  0.00  0.00    +0.109 C 
ATOM     24  C   UNL     1      15.063   4.085   9.769  0.00  0.00    +0.019 C 
ATOM     25  C   UNL     1      14.633   3.085  10.844  0.00  0.00    +0.004 C 
ATOM     26  C   UNL     1      18.614   3.863  10.695  0.00  0.00    +0.288 C 
ATOM     27  O   UNL     1      18.764   5.009  11.081  0.00  0.00    -0.267 OA
ATOM     28  C   UNL     1      19.762   2.892  10.563  0.00  0.00    +0.276 C 
ATOM     29  O   UNL     1      19.714   1.794  11.112  0.00  0.00    -0.281 OA
ATOM     30  C   UNL     1      20.583   3.089   9.375  0.00  0.00    +0.240 C 
ATOM     31  C   UNL     1      21.540   1.869   9.321  0.00  0.00    +0.056 C 
ATOM     32  C   UNL     1      22.437   1.657  10.526  0.00  0.00    +0.013 C 
ATOM     33  C   UNL     1      22.104   1.877   7.969  0.00  0.00    +0.043 C 
ATOM     34  C   UNL     1      15.828   2.609  11.868  0.00  0.00    +0.034 C 
ATOM     35  C   UNL     1      20.633   1.687   7.151  0.00  0.00    +0.150 C 
ATOM     36  O   UNL     1      19.362   2.976   8.535  0.00  0.00    -0.334 OA
ENDROOT
BRANCH  17  37
ATOM     37  C   UNL     1      17.691  -1.794   8.213  0.00  0.00    -0.036 C 
ATOM     38  C   UNL     1      18.340  -1.168   7.214  0.00  0.00    -0.021 C 
ATOM     39  C   UNL     1      16.279  -2.237   7.803  0.00  0.00    +0.042 C 
BRANCH  38  40
ATOM     40  C   UNL     1      17.866  -0.665   5.832  0.00  0.00    +0.014 C 
ATOM     41  C   UNL     1      18.004  -1.816   4.846  0.00  0.00    +0.040 C 
ATOM     42  C   UNL     1      18.218  -1.251   3.444  0.00  0.00    +0.136 C 
ATOM     43  C   UNL     1      17.086  -0.308   2.959  0.00  0.00    +0.109 C 
ATOM     44 CL   UNL     1      15.553  -1.168   2.608  0.00  0.00    -0.119 Cl
ATOM     45  C   UNL     1      16.844   0.750   4.010  0.00  0.00    +0.022 C 
ATOM     46  C   UNL     1      16.550   0.054   5.356  0.00  0.00    +0.009 C 
BRANCH  42  47
ATOM     47  O   UNL     1      18.449  -2.351   2.576  0.00  0.00    -0.378 OA
ATOM     48  C   UNL     1      18.937  -1.930   1.315  0.00  0.00    +0.194 C 
ENDBRANCH  42  47
ENDBRANCH  38  40
ENDBRANCH  17  37
BRANCH   2  49
ATOM     49  O   UNL     1      16.514   2.040   7.294  0.00  0.00    -0.377 OA
ATOM     50  C   UNL     1      17.410   2.902   6.332  0.00  0.00    +0.194 C 
ENDBRANCH   2  49
BRANCH  10  51
ATOM     51  C   UNL     1      14.171  -4.981  13.799  0.00  0.00    +0.012 C 
ATOM     52  C   UNL     1      14.098  -6.433  14.134  0.00  0.00    +0.005 C 
ENDBRANCH  10  51
BRANCH  14  53
ATOM     53  O   UNL     1      15.374  -2.530  10.178  0.00  0.00    -0.391 OA
ATOM     54  H   UNL     1      15.493  -3.332   9.657  0.00  0.00    +0.210 HD
ENDBRANCH  14  53
BRANCH  30  55
ATOM     55  O   UNL     1      21.232   4.353   9.339  0.00  0.00    -0.358 OA
ATOM     56  H   UNL     1      21.664   4.497   8.478  0.00  0.00    +0.213 HD
ENDBRANCH  30  55
BRANCH  35  57
ATOM     57  O   UNL     1      21.155   3.018   6.172  0.00  0.00    -0.377 OA
ATOM     58  C   UNL     1      22.611   3.236   5.517  0.00  0.00    +0.194 C 
ENDBRANCH  35  57
TORSDOF 8
