REMARK  Name = 
REMARK  8 active torsions:
REMARK  status: ('A' for Active; 'I' for Inactive)
REMARK    1  A    between atoms: C_4  and  C_5
REMARK    2  A    between atoms: C_4  and  C_6
REMARK    3  A    between atoms: CA_7  and  C_29
REMARK    4  A    between atoms: CA_12  and  N_14
REMARK    5  A    between atoms: CA_17  and  C_23
REMARK    6  A    between atoms: C_20  and  C_21
REMARK    7  A    between atoms: C_20  and  C_22
REMARK    8  A    between atoms: C_29  and  O_30
REMARK                            x       y       z     vdW  Elec       q    Type
REMARK                         _______ _______ _______ _____ _____    ______ ____
ROOT
ATOM      1  N   UNL     1       3.468  -0.476   2.207  0.00  0.00    -0.268 N 
ATOM      2  C   UNL     1       4.383  -1.317   2.944  0.00  0.00    +0.084 C 
ATOM      3  C   UNL     1       5.417  -2.054   2.100  0.00  0.00    +0.049 C 
ATOM      4  C   UNL     1       3.597  -2.340   3.794  0.00  0.00    +0.049 C 
ATOM      5  N   UNL     1       5.089  -0.385   3.875  0.00  0.00    -0.282 NA
ATOM      6  H   UNL     1       4.919  -0.679   4.837  0.00  0.00    +0.125 HD
ATOM      7  CA  UNL     1       4.433   0.927   3.691  0.00  0.00    +0.173 C 
ATOM      8  C   UNL     1       3.109   0.553   3.071  0.00  0.00    +0.239 C 
ATOM      9  O   UNL     1       1.989   0.996   3.238  0.00  0.00    -0.273 OA
ENDROOT
BRANCH   1  11
ATOM     10  C   UNL     1       1.903   0.314   0.242  0.00  0.00    +0.165 C 
ATOM     11  CA  UNL     1       2.667  -0.835   1.004  0.00  0.00    +0.194 C 
ATOM     12  C   UNL     1       3.445  -0.965  -0.353  0.00  0.00    +0.240 C 
ATOM     13  O   UNL     1       4.431  -1.525  -0.765  0.00  0.00    -0.273 OA
ATOM     14  N   UNL     1       2.664  -0.027  -0.983  0.00  0.00    -0.271 N 
ATOM     15  CA  UNL     1       3.309   1.108  -1.705  0.00  0.00    +0.201 C 
ATOM     16  C   UNL     1       3.687   2.169  -0.648  0.00  0.00    +0.042 C 
ATOM     17  C   UNL     1       5.008   1.823   0.063  0.00  0.00    +0.025 C 
ATOM     18  C   UNL     1       3.807   3.628  -1.103  0.00  0.00    +0.025 C 
ATOM     19  S   UNL     1       2.303   2.083   0.538  0.00  0.00    -0.127 S 
BRANCH  15  20
ATOM     20  C   UNL     1       2.353   1.617  -2.800  0.00  0.00    +0.327 C 
ATOM     21  OXT UNL     1       2.550   2.601  -3.497  0.00  0.00    -0.249 OA
BRANCH  20  22
ATOM     22  O   UNL     1       1.275   0.815  -2.993  0.00  0.00    -0.479 OA
ATOM     23  H   UNL     1       1.329   0.034  -2.406  0.00  0.00    +0.295 HD
ENDBRANCH  20  22
ENDBRANCH  15  20
ENDBRANCH   1  11
BRANCH   7  24
ATOM     24  C   UNL     1       4.423   1.870   4.860  0.00  0.00    -0.022 A 
ATOM     25  C   UNL     1       5.492   2.772   5.013  0.00  0.00    +0.005 A 
ATOM     26  C   UNL     1       5.440   3.785   5.971  0.00  0.00    +0.000 A 
ATOM     27  C   UNL     1       4.325   3.902   6.796  0.00  0.00    +0.000 A 
ATOM     28  C   UNL     1       3.279   2.990   6.684  0.00  0.00    +0.000 A 
ATOM     29  C   UNL     1       3.334   1.971   5.734  0.00  0.00    +0.005 A 
ENDBRANCH   7  24
TORSDOF 4
