REMARK  Name = 
REMARK  4 active torsions:
REMARK  status: ('A' for Active; 'I' for Inactive)
REMARK    1  A    between atoms: O_1  and  C_2
REMARK    2  A    between atoms: C_3  and  C_4
REMARK    3  A    between atoms: C_4  and  C_5
REMARK    4  A    between atoms: C_6  and  O_7
REMARK                            x       y       z     vdW  Elec       q    Type
REMARK                         _______ _______ _______ _____ _____    ______ ____
ROOT
ATOM      1  C   UNL     1       2.440  -2.577   0.019  0.00  0.00    +0.092 C 
ENDROOT
BRANCH   1  12
ATOM      2  C   UNL     1       3.268  -0.820   1.671  0.00  0.00    +0.138 A 
ATOM      3  C   UNL     1       3.510   0.595   1.961  0.00  0.00    +0.059 A 
ATOM      4  C   UNL     1       3.883   1.067   3.225  0.00  0.00    +0.015 A 
ATOM      5  C   UNL     1       3.924   2.441   3.487  0.00  0.00    +0.001 A 
ATOM      6  C   UNL     1       3.580   3.354   2.491  0.00  0.00    +0.004 A 
ATOM      7  C   UNL     1       3.252   2.899   1.215  0.00  0.00    +0.047 A 
ATOM      8  C   UNL     1       3.248   1.527   0.962  0.00  0.00    +0.143 A 
ATOM      9  O   UNL     1       2.989   1.114  -0.355  0.00  0.00    -0.422 OA
ATOM     10  C   UNL     1       3.026  -0.230  -0.690  0.00  0.00    +0.344 A 
ATOM     11  O   UNL     1       3.017  -0.604  -1.861  0.00  0.00    -0.245 OA
ATOM     12  C   UNL     1       2.973  -1.218   0.420  0.00  0.00    +0.084 A 
BRANCH   2  13
ATOM     13  O   UNL     1       3.242  -1.628   2.786  0.00  0.00    -0.506 OA
ATOM     14  H   UNL     1       3.244  -2.579   2.545  0.00  0.00    +0.292 HD
ENDBRANCH   2  13
ENDBRANCH   1  12
BRANCH   1  15
ATOM     15  C   UNL     1       3.514  -3.588  -0.293  0.00  0.00    +0.084 A 
ATOM     16  C   UNL     1       3.990  -4.364   0.884  0.00  0.00    +0.344 A 
ATOM     17  O   UNL     1       3.566  -4.104   2.009  0.00  0.00    -0.245 OA
ATOM     18  O   UNL     1       4.867  -5.412   0.681  0.00  0.00    -0.422 OA
ATOM     19  C   UNL     1       5.502  -5.562  -0.562  0.00  0.00    +0.143 A 
ATOM     20  C   UNL     1       6.567  -6.467  -0.616  0.00  0.00    +0.047 A 
ATOM     21  C   UNL     1       7.298  -6.574  -1.799  0.00  0.00    +0.004 A 
ATOM     22  C   UNL     1       6.962  -5.782  -2.897  0.00  0.00    +0.001 A 
ATOM     23  C   UNL     1       5.872  -4.906  -2.829  0.00  0.00    +0.015 A 
ATOM     24  C   UNL     1       5.118  -4.797  -1.654  0.00  0.00    +0.059 A 
ATOM     25  C   UNL     1       3.994  -3.878  -1.516  0.00  0.00    +0.138 A 
BRANCH  25  26
ATOM     26  O   UNL     1       3.528  -3.359  -2.700  0.00  0.00    -0.506 OA
ATOM     27  H   UNL     1       2.828  -2.698  -2.555  0.00  0.00    +0.292 HD
ENDBRANCH  25  26
ENDBRANCH   1  15
TORSDOF 4
