REMARK  Name = 
REMARK  2 active torsions:
REMARK  status: ('A' for Active; 'I' for Inactive)
REMARK    1  A    between atoms: N_1  and  S_2
REMARK    2  A    between atoms: S_2  and  C_5
REMARK                            x       y       z     vdW  Elec       q    Type
REMARK                         _______ _______ _______ _____ _____    ______ ____
ROOT
ATOM      1  C   UNL     1       3.301  -1.468   0.828  0.00  0.00    +0.125 A 
ATOM      2  C   UNL     1       4.124  -1.414   1.960  0.00  0.00    +0.061 A 
ATOM      3  C   UNL     1       4.468  -2.607   2.610  0.00  0.00    +0.135 A 
ATOM      4  C   UNL     1       4.019  -3.847   2.168  0.00  0.00    +0.061 A 
ATOM      5  N   UNL     1       4.362  -5.020   2.834  0.00  0.00    -0.303 N 
ATOM      6  H   UNL     1       3.991  -5.897   2.483  0.00  0.00    +0.153 HD
ATOM      7  C   UNL     1       5.126  -5.026   3.964  0.00  0.00    +0.209 C 
ATOM      8  N   UNL     1       5.671  -4.056   4.601  0.00  0.00    -0.121 NA
ATOM      9  C   UNL     1       3.210  -3.881   1.027  0.00  0.00    +0.047 A 
ATOM     10  S   UNL     1       5.485  -2.544   4.058  0.00  0.00    +0.102 S 
ATOM     11  O   UNL     1       6.769  -2.055   3.593  0.00  0.00    -0.146 OA
ATOM     12  O   UNL     1       4.714  -1.794   5.030  0.00  0.00    -0.146 OA
ATOM     13  C   UNL     1       2.845  -2.702   0.357  0.00  0.00    +0.069 A 
ATOM     14 CL   UNL     1       1.837  -2.896  -1.033  0.00  0.00    -0.081 Cl
ENDROOT
BRANCH   1  15
ATOM     15  S   UNL     1       2.804   0.047   0.070  0.00  0.00    +0.057 S 
ATOM     16  O   UNL     1       1.364   0.084   0.002  0.00  0.00    -0.153 OA
ATOM     17  O   UNL     1       3.573   1.129   0.645  0.00  0.00    -0.153 OA
BRANCH  15  18
ATOM     18  N   UNL     1       3.374  -0.100  -1.502  0.00  0.00    -0.203 NA
ATOM     19  H   UNL     1       2.591  -0.221  -2.147  0.00  0.00    +0.144 HD
ATOM     20  H   UNL     1       3.969   0.699  -1.728  0.00  0.00    +0.144 HD
ENDBRANCH  15  18
ENDBRANCH   1  15
TORSDOF 2
