REMARK  Name = 
REMARK  9 active torsions:
REMARK  status: ('A' for Active; 'I' for Inactive)
REMARK    1  A    between atoms: C_1  and  C_2
REMARK    2  A    between atoms: C_2  and  C_3
REMARK    3  A    between atoms: C_2  and  C_4
REMARK    4  A    between atoms: C_7  and  C_11
REMARK    5  A    between atoms: N_13  and  CA_14
REMARK    6  A    between atoms: CA_14  and  CB_16
REMARK    7  A    between atoms: CA_14  and  C_23
REMARK    8  A    between atoms: CB_16  and  CG_17
REMARK    9  A    between atoms: C_23  and  O_24
REMARK                            x       y       z     vdW  Elec       q    Type
REMARK                         _______ _______ _______ _____ _____    ______ ____
ROOT
ATOM      1  C   UNK A   0       4.469   4.265   4.354  0.00  0.00    +0.217 C 
ATOM      2  N   PHE A   1       4.284   2.897   4.506  0.00  0.00    -0.302 N 
ATOM      3  H   PHE A   1       4.271   2.365   3.640  0.00  0.00    +0.150 HD
ATOM      4  O   UNK A   0       5.036   4.940   5.205  0.00  0.00    -0.275 OA
ENDROOT
BRANCH   1   8
ATOM      5  C   UNK A   0       2.263   7.360   3.570  0.00  0.00    -0.008 C 
ATOM      6  C   UNK A   0       3.803   7.351   3.623  0.00  0.00    +0.004 C 
ATOM      7  C   UNK A   0       4.437   6.262   2.753  0.00  0.00    +0.013 C 
ATOM      8  C   UNK A   0       3.904   4.850   3.049  0.00  0.00    +0.075 C 
ATOM      9  C   UNK A   0       2.370   4.837   3.046  0.00  0.00    +0.013 C 
ATOM     10  C   UNK A   0       1.764   5.940   3.921  0.00  0.00    +0.004 C 
BRANCH   5  12
ATOM     11  C   UNK A   0       0.134   8.045   2.319  0.00  0.00    +0.007 C 
ATOM     12  C   UNK A   0       1.665   7.923   2.242  0.00  0.00    -0.014 C 
ATOM     13  C   UNK A   0       2.214   9.311   1.877  0.00  0.00    +0.007 C 
ENDBRANCH   5  12
ENDBRANCH   1   8
BRANCH   2  14
ATOM     14  CA  PHE A   1       4.864   2.214   5.689  0.00  0.00    +0.186 C 
BRANCH  14  15
ATOM     15  C   PHE A   1       4.264   0.812   5.896  0.00  0.00    +0.326 C 
ATOM     16  OXT PHE A   1       4.727  -0.051   6.626  0.00  0.00    -0.249 OA
BRANCH  15  17
ATOM     17  O   PHE A   1       3.080   0.646   5.250  0.00  0.00    -0.479 OA
ATOM     18  H   PHE A   1       2.794   1.489   4.846  0.00  0.00    +0.295 HD
ENDBRANCH  15  17
ENDBRANCH  14  15
BRANCH  14  19
ATOM     19  CB  PHE A   1       6.405   2.163   5.702  0.00  0.00    +0.069 C 
BRANCH  19  20
ATOM     20  CG  PHE A   1       7.017   1.465   4.510  0.00  0.00    -0.045 A 
ATOM     21  CD2 PHE A   1       7.290   0.090   4.553  0.00  0.00    +0.004 A 
ATOM     22  CE2 PHE A   1       7.852  -0.552   3.449  0.00  0.00    +0.000 A 
ATOM     23  CZ  PHE A   1       8.145   0.172   2.296  0.00  0.00    +0.000 A 
ATOM     24  CE1 PHE A   1       7.885   1.540   2.245  0.00  0.00    +0.000 A 
ATOM     25  CD1 PHE A   1       7.325   2.184   3.349  0.00  0.00    +0.004 A 
ENDBRANCH  19  20
ENDBRANCH  14  19
ENDBRANCH   2  14
TORSDOF 7
