REMARK  Name = 
REMARK  1 active torsions:
REMARK  status: ('A' for Active; 'I' for Inactive)
REMARK    1  A    between atoms: C_1  and  N_2
REMARK                            x       y       z     vdW  Elec       q    Type
REMARK                         _______ _______ _______ _____ _____    ______ ____
ROOT
ATOM      1  C   UNL     1       0.912   0.109  -0.052  0.00  0.00    +0.151 C 
ATOM      2  N   UNL     1       2.354   0.044  -0.048  0.00  0.00    -0.330 N 
ATOM      3  C   UNL     1       3.148  -1.123  -0.048  0.00  0.00    +0.158 A 
ATOM      4  S   UNL     1       2.707  -2.715  -0.052  0.00  0.00    -0.013 S 
ATOM      5  N   UNL     1       4.471  -0.651  -0.043  0.00  0.00    -0.340 N 
ATOM      6  H   UNL     1       5.286  -1.247  -0.041  0.00  0.00    +0.167 HD
ATOM      7  C   UNL     1       4.462   0.721  -0.040  0.00  0.00    +0.102 A 
ATOM      8  C   UNL     1       3.191   1.143  -0.043  0.00  0.00    +0.105 A 
ENDROOT
TORSDOF 0
