REMARK  Name = 
REMARK  6 active torsions:
REMARK  status: ('A' for Active; 'I' for Inactive)
REMARK    1  A    between atoms: CG2_1  and  CB_2
REMARK    2  A    between atoms: CB_2  and  OG1_4
REMARK    3  A    between atoms: CB_2  and  CA_5
REMARK    4  A    between atoms: CA_5  and  N_7
REMARK    5  A    between atoms: CA_5  and  C_8
REMARK    6  A    between atoms: C_8  and  O_9
REMARK                            x       y       z     vdW  Elec       q    Type
REMARK                         _______ _______ _______ _____ _____    ______ ____
ROOT
ATOM      1  CA  THR A   1       3.040   1.474  -0.148  0.00  0.00    +0.189 C 
ENDROOT
BRANCH   1   2
ATOM      2  N   THR A   1       2.413   2.242   0.953  0.00  0.00    -0.316 NA
ATOM      3  H1  THR A   1       1.460   1.919   1.100  0.00  0.00    +0.119 HD
ATOM      4  H2  THR A   1       2.932   2.038   1.814  0.00  0.00    +0.119 HD
ENDBRANCH   1   2
BRANCH   1   6
ATOM      5  CG2 THR A   1       2.840   3.422  -1.823  0.00  0.00    +0.040 C 
ATOM      6  CB  THR A   1       2.540   1.957  -1.525  0.00  0.00    +0.139 C 
BRANCH   6   7
ATOM      7  OG1 THR A   1       3.128   1.138  -2.551  0.00  0.00    -0.390 OA
ATOM      8  HG1 THR A   1       2.773   1.462  -3.404  0.00  0.00    +0.210 HD
ENDBRANCH   6   7
ENDBRANCH   1   6
BRANCH   1   9
ATOM      9  C   THR A   1       4.581   1.517  -0.031  0.00  0.00    +0.324 C 
ATOM     10  OXT THR A   1       5.189   1.895   0.962  0.00  0.00    -0.249 OA
BRANCH   9  11
ATOM     11  O   THR A   1       5.225   0.973  -1.094  0.00  0.00    -0.479 OA
ATOM     12  H   THR A   1       4.592   0.741  -1.818  0.00  0.00    +0.295 HD
ENDBRANCH   9  11
ENDBRANCH   1   9
TORSDOF 5
