REMARK  Name = 
REMARK  6 active torsions:
REMARK  status: ('A' for Active; 'I' for Inactive)
REMARK    1  A    between atoms: N_3  and  C_4
REMARK    2  A    between atoms: C_7  and  C_8
REMARK    3  A    between atoms: C_13  and  O_14
REMARK    4  A    between atoms: O_14  and  C_15
REMARK    5  A    between atoms: N_17  and  C_18
REMARK    6  A    between atoms: N_20  and  C_21
REMARK                            x       y       z     vdW  Elec       q    Type
REMARK                         _______ _______ _______ _____ _____    ______ ____
ROOT
ATOM      1  C   UNL     1       2.343   0.195  -0.196  0.00  0.00    +0.154 C 
ATOM      2  N   UNL     1       2.459  -1.251   0.020  0.00  0.00    -0.316 N 
ATOM      3  C   UNL     1       2.807  -1.862   1.287  0.00  0.00    +0.131 C 
ATOM      4  C   UNL     1       2.917  -1.768  -1.164  0.00  0.00    +0.035 A 
ATOM      5  C   UNL     1       2.983  -3.137  -1.463  0.00  0.00    +0.027 A 
ATOM      6  C   UNL     1       3.236  -3.574  -2.759  0.00  0.00    +0.048 A 
ATOM      7  C   UNL     1       3.361  -2.624  -3.752  0.00  0.00    +0.134 A 
ATOM      8  C   UNL     1       3.372  -1.259  -3.431  0.00  0.00    +0.052 A 
ATOM      9  C   UNL     1       3.193  -0.782  -2.104  0.00  0.00    -0.014 A 
ATOM     10  C   UNL     1       3.395   0.663  -1.475  0.00  0.00    +0.028 C 
ATOM     11  C   UNL     1       3.229   1.347  -2.931  0.00  0.00    +0.019 C 
ATOM     12  C   UNL     1       3.197   2.154  -0.915  0.00  0.00    +0.030 C 
ATOM     13  C   UNL     1       2.885   2.336   0.539  0.00  0.00    +0.087 C 
ATOM     14  N   UNL     1       2.624   1.014   0.997  0.00  0.00    -0.287 NA
ATOM     15  C   UNL     1       1.555   1.021   1.990  0.00  0.00    +0.106 C 
ENDROOT
BRANCH   7  16
ATOM     16  O   UNL     1       3.564  -2.933  -5.117  0.00  0.00    -0.412 OA
BRANCH  16  17
ATOM     17  C   UNL     1       3.103  -4.098  -5.723  0.00  0.00    +0.405 C 
ATOM     18  N   UNL     1       3.471  -4.086  -7.033  0.00  0.00    -0.284 N 
ATOM     19  H   UNL     1       3.951  -3.263  -7.367  0.00  0.00    +0.152 HD
ATOM     20  C   UNL     1       3.154  -5.149  -7.955  0.00  0.00    +0.131 C 
ATOM     21  O   UNL     1       2.464  -4.989  -5.185  0.00  0.00    -0.226 OA
ENDBRANCH  16  17
ENDBRANCH   7  16
TORSDOF 2
