REMARK  Name = 
REMARK  8 active torsions:
REMARK  status: ('A' for Active; 'I' for Inactive)
REMARK    1  A    between atoms: C_1  and  C_2
REMARK    2  A    between atoms: C_2  and  C_3
REMARK    3  A    between atoms: C_3  and  N_4
REMARK    4  A    between atoms: N_4  and  C_5
REMARK    5  A    between atoms: C_5  and  C_6
REMARK    6  A    between atoms: C_5  and  C_7
REMARK    7  A    between atoms: N_9  and  C_10
REMARK    8  A    between atoms: C_15  and  C_16
REMARK                            x       y       z     vdW  Elec       q    Type
REMARK                         _______ _______ _______ _____ _____    ______ ____
ROOT
ATOM      1  C   UNL     1       6.410   2.736  -0.706  0.00  0.00    +0.234 C 
ATOM      2  N   UNL     1       6.878   2.304   0.528  0.00  0.00    -0.284 N 
ATOM      3  H   UNL     1       6.159   1.905   1.126  0.00  0.00    +0.155 HD
ATOM      4  O   UNL     1       7.088   3.072  -1.674  0.00  0.00    -0.274 OA
ENDROOT
BRANCH   2   5
ATOM      5  C   UNL     1       8.227   2.217   0.948  0.00  0.00    +0.036 A 
ATOM      6  C   UNL     1       8.561   1.516   2.127  0.00  0.00    -0.029 A 
ATOM      7  C   UNL     1       7.545   0.850   3.014  0.00  0.00    +0.045 C 
ATOM      8  C   UNL     1       9.912   1.452   2.532  0.00  0.00    +0.005 A 
ATOM      9  C   UNL     1      10.920   2.051   1.778  0.00  0.00    +0.000 A 
ATOM     10  C   UNL     1      10.589   2.742   0.622  0.00  0.00    +0.002 A 
ATOM     11  C   UNL     1       9.256   2.832   0.220  0.00  0.00    +0.023 A 
ENDBRANCH   2   5
BRANCH   1  12
ATOM     12  C   UNL     1       4.868   2.778  -0.793  0.00  0.00    +0.138 C 
ATOM     13  C   UNL     1       4.363   3.992  -0.017  0.00  0.00    +0.034 C 
BRANCH  12  14
ATOM     14  N   UNL     1       4.327   1.491  -0.289  0.00  0.00    -0.306 NA
ATOM     15  H   UNL     1       4.780   0.744  -0.825  0.00  0.00    +0.123 HD
BRANCH  14  16
ATOM     16  C   UNL     1       2.881   1.383  -0.511  0.00  0.00    +0.081 C 
BRANCH  16  18
ATOM     17  C   UNL     1       0.898  -0.150  -0.238  0.00  0.00    +0.005 C 
ATOM     18  C   UNL     1       2.406  -0.011  -0.098  0.00  0.00    +0.012 C 
ENDBRANCH  16  18
ENDBRANCH  14  16
ENDBRANCH  12  14
ENDBRANCH   1  12
TORSDOF 5
