REMARK  Name = 
REMARK  9 active torsions:
REMARK  status: ('A' for Active; 'I' for Inactive)
REMARK    1  A    between atoms: C_1  and  O_2
REMARK    2  A    between atoms: O_2  and  C_3
REMARK    3  A    between atoms: C_4  and  O_5
REMARK    4  A    between atoms: O_5  and  C_6
REMARK    5  A    between atoms: C_7  and  C_8
REMARK    6  A    between atoms: C_8  and  S_9
REMARK    7  A    between atoms: S_9  and  C_11
REMARK    8  A    between atoms: C_17  and  O_18
REMARK    9  A    between atoms: O_18  and  C_19
REMARK                            x       y       z     vdW  Elec       q    Type
REMARK                         _______ _______ _______ _____ _____    ______ ____
ROOT
ATOM      1  C   UNL     1       7.834  -0.259  -4.097  0.00  0.00    +0.198 A 
ATOM      2  N   UNL     1       8.065  -1.194  -5.079  0.00  0.00    -0.331 N 
ATOM      3  H   UNL     1       7.519  -2.034  -5.212  0.00  0.00    +0.168 HD
ATOM      4  C   UNL     1       9.197  -0.821  -5.763  0.00  0.00    +0.070 A 
ATOM      5  C   UNL     1       9.942  -1.415  -6.787  0.00  0.00    +0.073 A 
ATOM      6  C   UNL     1      11.057  -0.705  -7.271  0.00  0.00    +0.129 A 
ATOM      7  C   UNL     1      11.406   0.537  -6.733  0.00  0.00    +0.048 A 
ATOM      8  C   UNL     1      10.648   1.105  -5.699  0.00  0.00    +0.033 A 
ATOM      9  C   UNL     1       9.547   0.401  -5.196  0.00  0.00    +0.090 A 
ATOM     10  N   UNL     1       8.702   0.727  -4.163  0.00  0.00    -0.220 NA
ENDROOT
BRANCH   1  11
ATOM     11  S   UNL     1       6.562  -0.381  -2.917  0.00  0.00    +0.095 S 
ATOM     12  O   UNL     1       5.507  -1.240  -3.548  0.00  0.00    -0.249 OA
BRANCH  11  13
ATOM     13  C   UNL     1       6.135   1.373  -2.814  0.00  0.00    +0.171 C 
BRANCH  13  18
ATOM     14  C   UNL     1       2.655   2.239  -1.449  0.00  0.00    +0.165 A 
ATOM     15  C   UNL     1       3.017   2.483  -0.132  0.00  0.00    +0.069 A 
ATOM     16  C   UNL     1       4.333   2.297   0.218  0.00  0.00    +0.115 A 
ATOM     17  N   UNL     1       5.287   1.929  -0.659  0.00  0.00    -0.255 NA
ATOM     18  C   UNL     1       4.935   1.676  -1.960  0.00  0.00    +0.099 A 
ATOM     19  C   UNL     1       3.607   1.769  -2.391  0.00  0.00    +0.184 A 
BRANCH  14  21
ATOM     20  C   UNL     1       0.637   3.477  -1.259  0.00  0.00    +0.277 C 
ATOM     21  O   UNL     1       1.360   2.421  -1.892  0.00  0.00    -0.491 OA
ENDBRANCH  14  21
BRANCH  19  22
ATOM     22  O   UNL     1       3.041   1.445  -3.592  0.00  0.00    -0.490 OA
ATOM     23  C   UNL     1       3.760   1.329  -4.801  0.00  0.00    +0.277 C 
ENDBRANCH  19  22
ENDBRANCH  13  18
ENDBRANCH  11  13
ENDBRANCH   1  11
BRANCH   6  24
ATOM     24  O   UNL     1      11.758  -1.351  -8.256  0.00  0.00    -0.434 OA
BRANCH  24  25
ATOM     25  C   UNL     1      12.519  -0.523  -9.123  0.00  0.00    +0.541 C 
ATOM     26  F   UNL     1      12.830  -1.262 -10.218  0.00  0.00    -0.166 F 
ATOM     27  F   UNL     1      13.694  -0.207  -8.523  0.00  0.00    -0.166 F 
ENDBRANCH  24  25
ENDBRANCH   6  24
TORSDOF 7
