REMARK  Name = 
REMARK  5 active torsions:
REMARK  status: ('A' for Active; 'I' for Inactive)
REMARK    1  A    between atoms: O_1  and  C_2
REMARK    2  A    between atoms: C_2  and  C_4
REMARK    3  A    between atoms: C_4  and  C_5
REMARK    4  A    between atoms: C_10  and  N_11
REMARK    5  A    between atoms: N_11  and  C_12
REMARK                            x       y       z     vdW  Elec       q    Type
REMARK                         _______ _______ _______ _____ _____    ______ ____
ROOT
ATOM      1  C   UNL     1       4.711   1.038   0.490  0.00  0.00    -0.016 A 
ATOM      2  C   UNL     1       5.258  -0.263   0.617  0.00  0.00    +0.035 A 
ATOM      3  C   UNL     1       6.659  -0.362   0.694  0.00  0.00    +0.023 A 
ATOM      4  C   UNL     1       7.504   0.738   0.534  0.00  0.00    +0.002 A 
ATOM      5  C   UNL     1       6.959   2.002   0.389  0.00  0.00    +0.000 A 
ATOM      6  C   UNL     1       5.579   2.154   0.406  0.00  0.00    +0.006 A 
ENDROOT
BRANCH   2   7
ATOM      7  N   UNL     1       4.425  -1.424   0.594  0.00  0.00    -0.312 N 
ATOM      8  H   UNL     1       3.639  -1.270   1.233  0.00  0.00    +0.152 HD
BRANCH   7   9
ATOM      9  C   UNL     1       4.784  -2.811   0.617  0.00  0.00    +0.068 A 
ATOM     10  C   UNL     1       4.001  -3.713   1.372  0.00  0.00    +0.063 A 
ATOM     11 CL   UNL     1       2.385  -3.297   1.836  0.00  0.00    -0.082 Cl
ATOM     12  C   UNL     1       4.468  -4.991   1.706  0.00  0.00    +0.022 A 
ATOM     13  C   UNL     1       5.692  -5.427   1.213  0.00  0.00    +0.003 A 
ATOM     14  C   UNL     1       6.354  -4.650   0.267  0.00  0.00    +0.022 A 
ATOM     15  C   UNL     1       5.867  -3.379  -0.076  0.00  0.00    +0.063 A 
ATOM     16 CL   UNL     1       6.564  -2.649  -1.486  0.00  0.00    -0.082 Cl
ENDBRANCH   7   9
ENDBRANCH   2   7
BRANCH   1  17
ATOM     17  C   UNL     1       3.228   1.325   0.405  0.00  0.00    +0.157 C 
BRANCH  17  18
ATOM     18  C   UNL     1       2.641   1.916   1.670  0.00  0.00    +0.309 C 
ATOM     19  O   UNL     1       3.054   1.798   2.810  0.00  0.00    -0.251 OA
BRANCH  18  20
ATOM     20  O   UNL     1       1.513   2.619   1.422  0.00  0.00    -0.480 OA
ATOM     21  H   UNL     1       1.220   2.942   2.301  0.00  0.00    +0.295 HD
ENDBRANCH  18  20
ENDBRANCH  17  18
ENDBRANCH   1  17
TORSDOF 5
