REMARK  Name = 
REMARK  3 active torsions:
REMARK  status: ('A' for Active; 'I' for Inactive)
REMARK    1  A    between atoms: N_2  and  C_4
REMARK    2  A    between atoms: C_7  and  C_9
REMARK    3  A    between atoms: N_10  and  N_11
REMARK                            x       y       z     vdW  Elec       q    Type
REMARK                         _______ _______ _______ _____ _____    ______ ____
ROOT
ATOM      1  C   UNL     1       5.532   2.416  -2.509  0.00  0.00    +0.177 C 
ATOM      2  N   UNL     1       6.063   1.425  -3.159  0.00  0.00    -0.180 NA
ENDROOT
BRANCH   2   3
ATOM      3  N   UNL     1       5.698   0.120  -2.950  0.00  0.00    -0.168 N 
ATOM      4  C   UNL     1       6.132  -0.815  -3.918  0.00  0.00    +0.328 C 
ATOM      5  O   UNL     1       6.417  -0.603  -5.088  0.00  0.00    -0.250 OA
ATOM      6  N   UNL     1       6.291  -2.018  -3.310  0.00  0.00    -0.237 N 
ATOM      7  H   UNL     1       6.707  -2.807  -3.776  0.00  0.00    +0.159 HD
ATOM      8  C   UNL     1       6.236  -1.876  -1.967  0.00  0.00    +0.240 C 
ATOM      9  O   UNL     1       6.562  -2.727  -1.152  0.00  0.00    -0.274 OA
ATOM     10  C   UNL     1       5.711  -0.497  -1.635  0.00  0.00    +0.232 C 
ENDBRANCH   2   3
BRANCH   1  13
ATOM     11  C   UNL     1       2.477   1.905  -0.770  0.00  0.00    +0.438 A 
ATOM     12  O   UNL     1       3.429   1.520  -1.662  0.00  0.00    -0.399 OA
ATOM     13  C   UNL     1       4.425   2.456  -1.592  0.00  0.00    +0.154 A 
ATOM     14  C   UNL     1       4.102   3.407  -0.635  0.00  0.00    +0.058 A 
ATOM     15  C   UNL     1       2.841   3.045  -0.096  0.00  0.00    +0.132 A 
BRANCH  11  17
ATOM     16  O   UNL     1       0.349   1.577  -0.063  0.00  0.00    -0.573 OA
ATOM     17  N   UNL     1       1.291   1.109  -0.717  0.00  0.00    +0.119 N 
ATOM     18  O   UNL     1       1.298   0.026  -1.313  0.00  0.00    +0.045 OA
ENDBRANCH  11  17
ENDBRANCH   1  13
TORSDOF 3
