REMARK  Name = 
REMARK  16 active torsions:
REMARK  status: ('A' for Active; 'I' for Inactive)
REMARK    1  A    between atoms: C_1  and  C_2
REMARK    2  A    between atoms: C_2  and  C_3
REMARK    3  A    between atoms: C_3  and  C_4
REMARK    4  A    between atoms: C_4  and  C_5
REMARK    5  A    between atoms: C_5  and  C_6
REMARK    6  A    between atoms: C_6  and  O_8
REMARK    7  A    between atoms: C_6  and  C_9
REMARK    8  A    between atoms: C_10  and  C_11
REMARK    9  A    between atoms: C_13  and  O_15
REMARK   10  A    between atoms: C_19  and  C_21
REMARK   11  A    between atoms: C_21  and  C_22
REMARK   12  A    between atoms: C_23  and  C_24
REMARK   13  A    between atoms: C_24  and  C_25
REMARK   14  A    between atoms: C_25  and  C_26
REMARK   15  A    between atoms: C_26  and  C_27
REMARK   16  A    between atoms: C_27  and  O_28
REMARK                            x       y       z     vdW  Elec       q    Type
REMARK                         _______ _______ _______ _____ _____    ______ ____
ROOT
ATOM      1  C   UNL     1       8.764   3.248   5.154  0.00  0.00    +0.051 C 
ATOM      2  C   UNL     1       7.954   2.846   6.409  0.00  0.00    +0.068 C 
ATOM      3  C   UNL     1       7.910   4.154   7.184  0.00  0.00    +0.140 C 
ATOM      4  O   UNL     1       7.388   4.292   8.284  0.00  0.00    -0.297 OA
ATOM      5  C   UNL     1       8.604   5.278   6.482  0.00  0.00    +0.106 C 
ATOM      6  C   UNL     1       8.610   4.779   5.052  0.00  0.00    +0.129 C 
ENDROOT
BRANCH   1   8
ATOM      7  C   UNL     1       8.791   1.411   3.418  0.00  0.00    -0.000 C 
ATOM      8  C   UNL     1       8.308   2.580   3.874  0.00  0.00    -0.022 C 
BRANCH   7   9
ATOM      9  C   UNL     1       8.486   0.744   2.096  0.00  0.00    +0.137 C 
BRANCH   9  10
ATOM     10  O   UNL     1       7.598   1.541   1.319  0.00  0.00    -0.388 OA
ATOM     11  H   UNL     1       6.792   1.670   1.844  0.00  0.00    +0.210 HD
ENDBRANCH   9  10
BRANCH   9  12
ATOM     12  C   UNL     1       9.740   0.491   1.241  0.00  0.00    +0.035 C 
BRANCH  12  13
ATOM     13  C   UNL     1      10.756  -0.433   1.917  0.00  0.00    +0.003 C 
BRANCH  13  14
ATOM     14  C   UNL     1      11.972  -0.708   1.034  0.00  0.00    -0.000 C 
BRANCH  14  16
ATOM     15  C   UNL     1      14.209  -1.876   0.932  0.00  0.00    +0.004 C 
ATOM     16  C   UNL     1      12.976  -1.593   1.772  0.00  0.00    -0.003 C 
ENDBRANCH  14  16
ENDBRANCH  13  14
ENDBRANCH  12  13
ENDBRANCH   9  12
ENDBRANCH   7   9
ENDBRANCH   1   8
BRANCH   6  17
ATOM     17  O   UNL     1       9.674   5.370   4.318  0.00  0.00    -0.391 OA
ATOM     18  H   UNL     1      10.524   5.076   4.690  0.00  0.00    +0.210 HD
ENDBRANCH   6  17
BRANCH   2  19
ATOM     19  C   UNL     1       8.679   1.744   7.196  0.00  0.00    +0.038 C 
BRANCH  19  20
ATOM     20  C   UNL     1       7.952   1.287   8.432  0.00  0.00    -0.030 C 
ATOM     21  C   UNL     1       7.504   0.052   8.706  0.00  0.00    -0.031 C 
BRANCH  21  22
ATOM     22  C   UNL     1       7.605  -1.142   7.808  0.00  0.00    +0.027 C 
BRANCH  22  23
ATOM     23  C   UNL     1       6.418  -2.092   7.963  0.00  0.00    +0.015 C 
BRANCH  23  24
ATOM     24  C   UNL     1       6.573  -3.272   7.006  0.00  0.00    +0.121 C 
BRANCH  24  25
ATOM     25  C   UNL     1       5.439  -4.260   7.120  0.00  0.00    +0.305 C 
ATOM     26  O   UNL     1       4.486  -4.162   7.872  0.00  0.00    -0.251 OA
BRANCH  25  27
ATOM     27  O   UNL     1       5.592  -5.305   6.271  0.00  0.00    -0.481 OA
ATOM     28  H   UNL     1       6.401  -5.258   5.729  0.00  0.00    +0.295 HD
ENDBRANCH  25  27
ENDBRANCH  24  25
ENDBRANCH  23  24
ENDBRANCH  22  23
ENDBRANCH  21  22
ENDBRANCH  19  20
ENDBRANCH   2  19
TORSDOF 15
