REMARK  Name = 
REMARK  6 active torsions:
REMARK  status: ('A' for Active; 'I' for Inactive)
REMARK    1  A    between atoms: C_5  and  C_7
REMARK    2  A    between atoms: C_7  and  C_8
REMARK    3  A    between atoms: C_8  and  C_9
REMARK    4  A    between atoms: C_9  and  C_10
REMARK    5  A    between atoms: C_10  and  C_11
REMARK    6  A    between atoms: C_11  and  O_12
REMARK                            x       y       z     vdW  Elec       q    Type
REMARK                         _______ _______ _______ _____ _____    ______ ____
ROOT
ATOM      1  C   UNL     1       1.953   0.039   0.010  0.00  0.00    +0.105 C 
ATOM      2  N   UNL     1       2.310  -0.589   1.262  0.00  0.00    -0.294 N 
ATOM      3  H   UNL     1       2.063  -0.263   2.188  0.00  0.00    +0.151 HD
ATOM      4  C   UNL     1       2.425  -1.959   1.055  0.00  0.00    +0.300 C 
ATOM      5  O   UNL     1       2.501  -2.814   1.914  0.00  0.00    -0.253 OA
ATOM      6  N   UNL     1       2.444  -2.169  -0.318  0.00  0.00    -0.294 N 
ATOM      7  H   UNL     1       2.597  -3.094  -0.698  0.00  0.00    +0.151 HD
ATOM      8  C   UNL     1       2.581  -0.912  -1.013  0.00  0.00    +0.108 C 
ATOM      9  C   UNL     1       4.044  -0.466  -1.271  0.00  0.00    +0.069 C 
ATOM     10  S   UNL     1       4.084   1.343  -0.955  0.00  0.00    -0.154 S 
ATOM     11  C   UNL     1       2.434   1.453  -0.225  0.00  0.00    +0.093 C 
ENDROOT
BRANCH   9  12
ATOM     12  C   UNL     1       5.181  -1.107  -0.445  0.00  0.00    +0.016 C 
BRANCH  12  13
ATOM     13  C   UNL     1       5.488  -2.585  -0.743  0.00  0.00    +0.002 C 
BRANCH  13  14
ATOM     14  C   UNL     1       5.777  -2.904  -2.211  0.00  0.00    +0.011 C 
BRANCH  14  15
ATOM     15  C   UNL     1       7.051  -2.215  -2.696  0.00  0.00    +0.120 C 
BRANCH  15  16
ATOM     16  C   UNL     1       7.358  -2.520  -4.138  0.00  0.00    +0.305 C 
ATOM     17  O   UNL     1       6.673  -3.195  -4.887  0.00  0.00    -0.251 OA
BRANCH  16  18
ATOM     18  O   UNL     1       8.508  -1.928  -4.546  0.00  0.00    -0.481 OA
ATOM     19  H   UNL     1       8.951  -1.407  -3.847  0.00  0.00    +0.295 HD
ENDBRANCH  16  18
ENDBRANCH  15  16
ENDBRANCH  14  15
ENDBRANCH  13  14
ENDBRANCH  12  13
ENDBRANCH   9  12
TORSDOF 6
