REMARK  Name = 
REMARK  8 active torsions:
REMARK  status: ('A' for Active; 'I' for Inactive)
REMARK    1  A    between atoms: C_1  and  C_2
REMARK    2  A    between atoms: C_2  and  C_3
REMARK    3  A    between atoms: C_3  and  C_14
REMARK    4  A    between atoms: C_4  and  C_5
REMARK    5  A    between atoms: C_4  and  C_7
REMARK    6  A    between atoms: C_5  and  C_6
REMARK    7  A    between atoms: C_10  and  O_11
REMARK    8  A    between atoms: C_17  and  O_18
REMARK                            x       y       z     vdW  Elec       q    Type
REMARK                         _______ _______ _______ _____ _____    ______ ____
ROOT
ATOM      1  C   UNL     1       2.920   0.810  -1.235  0.00  0.00    -0.037 C 
ATOM      2  C   UNL     1       2.083   1.257  -2.206  0.00  0.00    -0.037 C 
ENDROOT
BRANCH   1   3
ATOM      3  C   UNL     1       4.382   0.955  -1.410  0.00  0.00    -0.021 A 
ATOM      4  C   UNL     1       5.108  -0.049  -2.065  0.00  0.00    +0.012 A 
ATOM      5  C   UNL     1       6.465   0.127  -2.330  0.00  0.00    +0.046 A 
ATOM      6  C   UNL     1       7.094   1.305  -1.943  0.00  0.00    +0.117 A 
ATOM      7  C   UNL     1       6.398   2.295  -1.256  0.00  0.00    +0.046 A 
ATOM      8  C   UNL     1       5.038   2.118  -0.990  0.00  0.00    +0.012 A 
BRANCH   6   9
ATOM      9  O   UNL     1       8.406   1.463  -2.278  0.00  0.00    -0.507 OA
ATOM     10  H   UNL     1       8.650   2.391  -2.129  0.00  0.00    +0.292 HD
ENDBRANCH   6   9
ENDBRANCH   1   3
BRANCH   2  11
ATOM     11  C   UNL     1       0.621   1.095  -2.093  0.00  0.00    -0.021 A 
ATOM     12  C   UNL     1       0.008  -0.059  -2.601  0.00  0.00    +0.012 A 
ATOM     13  C   UNL     1      -1.380  -0.189  -2.566  0.00  0.00    +0.046 A 
ATOM     14  C   UNL     1      -2.153   0.835  -2.032  0.00  0.00    +0.117 A 
ATOM     15  C   UNL     1      -1.561   1.981  -1.509  0.00  0.00    +0.046 A 
ATOM     16  C   UNL     1      -0.169   2.107  -1.537  0.00  0.00    +0.012 A 
BRANCH  14  17
ATOM     17  O   UNL     1      -3.508   0.679  -2.049  0.00  0.00    -0.507 OA
ATOM     18  H   UNL     1      -3.917   1.487  -1.700  0.00  0.00    +0.292 HD
ENDBRANCH  14  17
ENDBRANCH   2  11
BRANCH   1  20
ATOM     19  C   UNL     1       2.307   0.898   1.245  0.00  0.00    +0.009 C 
ATOM     20  C   UNL     1       2.522   0.035   0.008  0.00  0.00    +0.032 C 
ENDBRANCH   1  20
BRANCH   2  21
ATOM     21  C   UNL     1       2.517   1.847  -3.542  0.00  0.00    +0.032 C 
ATOM     22  C   UNL     1       2.547   3.369  -3.581  0.00  0.00    +0.009 C 
ENDBRANCH   2  21
TORSDOF 6
