REMARK  Name = 
REMARK  16 active torsions:
REMARK  status: ('A' for Active; 'I' for Inactive)
REMARK    1  A    between atoms: C_1  and  C_2
REMARK    2  A    between atoms: C_5  and  C_8
REMARK    3  A    between atoms: C_8  and  O_10
REMARK    4  A    between atoms: O_10  and  C_11
REMARK    5  A    between atoms: C_12  and  O_13
REMARK    6  A    between atoms: O_13  and  C_14
REMARK    7  A    between atoms: C_14  and  C_16
REMARK    8  A    between atoms: C_19  and  C_20
REMARK    9  A    between atoms: C_24  and  C_27
REMARK   10  A    between atoms: C_27  and  O_28
REMARK   11  A    between atoms: C_27  and  C_29
REMARK   12  A    between atoms: C_29  and  N_30
REMARK   13  A    between atoms: N_30  and  C_31
REMARK   14  A    between atoms: C_31  and  C_32
REMARK   15  A    between atoms: C_31  and  C_33
REMARK   16  A    between atoms: C_31  and  C_34
REMARK                            x       y       z     vdW  Elec       q    Type
REMARK                         _______ _______ _______ _____ _____    ______ ____
ROOT
ATOM      1  C   UNL     1       8.649  -0.921  -1.126  0.00  0.00    +0.174 A 
ATOM      2  C   UNL     1       9.228  -2.181  -1.317  0.00  0.00    +0.050 A 
ATOM      3  C   UNL     1      10.553  -2.300  -1.728  0.00  0.00    +0.010 A 
ATOM      4  C   UNL     1      11.315  -1.165  -2.020  0.00  0.00    -0.014 A 
ATOM      5  C   UNL     1      10.732   0.104  -1.823  0.00  0.00    +0.056 A 
ATOM      6  C   UNL     1       9.404   0.231  -1.382  0.00  0.00    +0.174 A 
ENDROOT
BRANCH   1   7
ATOM      7  O   UNL     1       7.282  -0.800  -0.781  0.00  0.00    -0.419 OA
BRANCH   7   8
ATOM      8  C   UNL     1       6.731  -1.747   0.077  0.00  0.00    +0.345 C 
ATOM      9  O   UNL     1       7.334  -2.601   0.714  0.00  0.00    -0.245 OA
BRANCH   8  14
ATOM     10  C   UNL     1       0.958  -1.454   0.573  0.00  0.00    +0.044 C 
ATOM     11  C   UNL     1       2.448  -1.535   0.412  0.00  0.00    -0.050 A 
ATOM     12  C   UNL     1       3.124  -0.611  -0.398  0.00  0.00    +0.004 A 
ATOM     13  C   UNL     1       4.518  -0.661  -0.536  0.00  0.00    +0.015 A 
ATOM     14  C   UNL     1       5.249  -1.638   0.146  0.00  0.00    +0.059 A 
ATOM     15  C   UNL     1       4.570  -2.574   0.940  0.00  0.00    +0.015 A 
ATOM     16  C   UNL     1       3.180  -2.521   1.077  0.00  0.00    +0.004 A 
ENDBRANCH   8  14
ENDBRANCH   7   8
ENDBRANCH   1   7
BRANCH   4  17
ATOM     17  C   UNL     1      12.727  -1.266  -2.563  0.00  0.00    +0.158 C 
BRANCH  17  18
ATOM     18  O   UNL     1      13.645  -1.180  -1.467  0.00  0.00    -0.386 OA
ATOM     19  H   UNL     1      13.337  -1.808  -0.790  0.00  0.00    +0.210 HD
ENDBRANCH  17  18
BRANCH  17  20
ATOM     20  C   UNL     1      13.075  -2.552  -3.366  0.00  0.00    +0.117 C 
BRANCH  20  21
ATOM     21  N   UNL     1      12.187  -2.864  -4.499  0.00  0.00    -0.309 NA
ATOM     22  H   UNL     1      12.186  -2.075  -5.147  0.00  0.00    +0.123 HD
BRANCH  21  23
ATOM     23  C   UNL     1      12.515  -4.108  -5.227  0.00  0.00    +0.011 C 
ATOM     24  C   UNL     1      13.956  -4.091  -5.763  0.00  0.00    +0.027 C 
ATOM     25  C   UNL     1      11.557  -4.215  -6.432  0.00  0.00    +0.027 C 
ATOM     26  C   UNL     1      12.287  -5.348  -4.344  0.00  0.00    +0.027 C 
ENDBRANCH  21  23
ENDBRANCH  20  21
ENDBRANCH  17  20
ENDBRANCH   4  17
BRANCH   6  27
ATOM     27  O   UNL     1       8.760   1.498  -1.331  0.00  0.00    -0.419 OA
BRANCH  27  28
ATOM     28  C   UNL     1       9.466   2.633  -0.945  0.00  0.00    +0.345 C 
ATOM     29  O   UNL     1      10.589   2.671  -0.464  0.00  0.00    -0.245 OA
BRANCH  28  30
ATOM     30  C   UNL     1       8.668   3.872  -1.170  0.00  0.00    +0.059 A 
ATOM     31  C   UNL     1       9.019   5.017  -0.439  0.00  0.00    +0.015 A 
ATOM     32  C   UNL     1       8.361   6.230  -0.653  0.00  0.00    +0.004 A 
ATOM     33  C   UNL     1       7.350   6.327  -1.614  0.00  0.00    -0.050 A 
ATOM     34  C   UNL     1       6.682   7.647  -1.863  0.00  0.00    +0.044 C 
ATOM     35  C   UNL     1       6.993   5.182  -2.341  0.00  0.00    +0.004 A 
ATOM     36  C   UNL     1       7.646   3.960  -2.122  0.00  0.00    +0.015 A 
ENDBRANCH  28  30
ENDBRANCH  27  28
ENDBRANCH   6  27
TORSDOF 11
