REMARK  Name = 
REMARK  3 active torsions:
REMARK  status: ('A' for Active; 'I' for Inactive)
REMARK    1  A    between atoms: C_1  and  C_2
REMARK    2  A    between atoms: C_2  and  C_3
REMARK    3  A    between atoms: C_4  and  C_11
REMARK                            x       y       z     vdW  Elec       q    Type
REMARK                         _______ _______ _______ _____ _____    ______ ____
ROOT
ATOM      1  C   UNL     1       2.783   1.450  -0.468  0.00  0.00    +0.056 A 
ATOM      2  N   UNL     1       3.783   1.608  -1.373  0.00  0.00    -0.219 NA
ATOM      3  C   UNL     1       4.204   2.836  -1.638  0.00  0.00    +0.214 A 
ATOM      4  N   UNL     1       5.236   2.977  -2.546  0.00  0.00    -0.327 N 
ATOM      5  H   UNL     1       5.282   2.157  -3.136  0.00  0.00    +0.145 HD
ATOM      6  H   UNL     1       5.171   3.875  -3.004  0.00  0.00    +0.145 HD
ATOM      7  N   UNL     1       3.672   3.934  -1.126  0.00  0.00    -0.199 NA
ATOM      8  C   UNL     1       2.702   3.769  -0.209  0.00  0.00    +0.129 A 
ATOM      9  N   UNL     1       2.228   5.003   0.265  0.00  0.00    -0.343 N 
ATOM     10  H   UNL     1       2.780   5.718  -0.196  0.00  0.00    +0.144 HD
ATOM     11  H   UNL     1       2.297   5.053   1.271  0.00  0.00    +0.144 HD
ATOM     12  C   UNL     1       2.196   2.530   0.221  0.00  0.00    +0.043 A 
ENDROOT
BRANCH  12  13
ATOM     13  C   UNL     1       1.124   2.394   1.261  0.00  0.00    -0.013 A 
ATOM     14  C   UNL     1       0.037   3.288   1.342  0.00  0.00    +0.010 A 
ATOM     15  C   UNL     1      -1.013   3.115   2.257  0.00  0.00    +0.020 A 
ATOM     16  C   UNL     1      -1.030   2.003   3.087  0.00  0.00    +0.041 A 
ATOM     17 CL   UNL     1      -2.364   1.723   4.133  0.00  0.00    -0.084 Cl
ATOM     18  C   UNL     1       0.035   1.114   3.066  0.00  0.00    +0.020 A 
ATOM     19  C   UNL     1       1.116   1.342   2.201  0.00  0.00    +0.010 A 
ENDBRANCH  12  13
BRANCH   1  21
ATOM     20  C   UNL     1       0.960  -0.316  -0.778  0.00  0.00    +0.010 C 
ATOM     21  C   UNL     1       2.381  -0.001  -0.332  0.00  0.00    +0.053 C 
ENDBRANCH   1  21
TORSDOF 2
