REMARK  Name = 
REMARK  3 active torsions:
REMARK  status: ('A' for Active; 'I' for Inactive)
REMARK    1  A    between atoms: C_1  and  N_2
REMARK    2  A    between atoms: C_3  and  C_4
REMARK    3  A    between atoms: N_5  and  O_6
REMARK                            x       y       z     vdW  Elec       q    Type
REMARK                         _______ _______ _______ _____ _____    ______ ____
ROOT
ATOM      1  C   UNL     1       1.043  -0.091   0.078  0.00  0.00    +0.439 C 
ATOM      2  N   UNL     1       2.519  -0.015   0.032  0.00  0.00    -0.199 N 
ATOM      3  C   UNL     1       3.182  -1.195   0.042  0.00  0.00    +0.309 A 
ATOM      4  C   UNL     1       4.566  -1.254  -0.060  0.00  0.00    +0.070 A 
ATOM      5  C   UNL     1       5.291  -0.077  -0.168  0.00  0.00    +0.012 A 
ATOM      6  C   UNL     1       4.612   1.132  -0.166  0.00  0.00    +0.080 A 
ATOM      7  C   UNL     1       3.217   1.151  -0.050  0.00  0.00    +0.229 A 
ENDROOT
BRANCH   7   8
ATOM      8  C   UNL     1       2.577   2.473  -0.004  0.00  0.00    +0.230 C 
ATOM      9  N   UNL     1       1.454   2.697   0.600  0.00  0.00    -0.089 NA
BRANCH   9  10
ATOM     10  O   UNL     1       1.136   4.049   0.443  0.00  0.00    -0.409 OA
ATOM     11  H   UNL     1       0.305   4.158   0.946  0.00  0.00    +0.328 HD
ENDBRANCH   9  10
ENDBRANCH   7   8
TORSDOF 2
