REMARK  Name = 
REMARK  4 active torsions:
REMARK  status: ('A' for Active; 'I' for Inactive)
REMARK    1  A    between atoms: O_1  and  C_2
REMARK    2  A    between atoms: C_5  and  O_6
REMARK    3  A    between atoms: O_6  and  C_7
REMARK    4  A    between atoms: C_7  and  C_8
REMARK                            x       y       z     vdW  Elec       q    Type
REMARK                         _______ _______ _______ _____ _____    ______ ____
ROOT
ATOM      1  C   UNL     1       2.372  -0.204  -1.075  0.00  0.00    +0.117 A 
ATOM      2  C   UNL     1       2.995   1.017  -1.302  0.00  0.00    +0.049 A 
ATOM      3  C   UNL     1       4.375   1.131  -1.121  0.00  0.00    +0.049 A 
ATOM      4  C   UNL     1       5.128   0.021  -0.730  0.00  0.00    +0.121 A 
ATOM      5  C   UNL     1       4.484  -1.192  -0.470  0.00  0.00    +0.049 A 
ATOM      6  C   UNL     1       3.104  -1.309  -0.654  0.00  0.00    +0.049 A 
ENDROOT
BRANCH   1   7
ATOM      7  O   UNL     1       1.028  -0.285  -1.280  0.00  0.00    -0.507 OA
ATOM      8  H   UNL     1       0.738  -1.190  -1.081  0.00  0.00    +0.292 HD
ENDBRANCH   1   7
BRANCH   4   9
ATOM      9  O   UNL     1       6.477   0.230  -0.631  0.00  0.00    -0.487 OA
BRANCH   9  10
ATOM     10  C   UNL     1       7.285  -0.946  -0.713  0.00  0.00    +0.264 C 
BRANCH  10  11
ATOM     11  C   UNL     1       8.695  -0.568  -1.090  0.00  0.00    -0.010 A 
ATOM     12  C   UNL     1       8.936   0.188  -2.247  0.00  0.00    +0.007 A 
ATOM     13  C   UNL     1      10.240   0.500  -2.631  0.00  0.00    +0.000 A 
ATOM     14  C   UNL     1      11.316   0.056  -1.864  0.00  0.00    +0.000 A 
ATOM     15  C   UNL     1      11.089  -0.701  -0.716  0.00  0.00    +0.000 A 
ATOM     16  C   UNL     1       9.785  -1.016  -0.332  0.00  0.00    +0.007 A 
ENDBRANCH  10  11
ENDBRANCH   9  10
ENDBRANCH   4   9
TORSDOF 4
