REMARK  Name = 
REMARK  4 active torsions:
REMARK  status: ('A' for Active; 'I' for Inactive)
REMARK    1  A    between atoms: C_1  and  C_2
REMARK    2  A    between atoms: C_2  and  C_4
REMARK    3  A    between atoms: C_2  and  N_13
REMARK    4  A    between atoms: C_4  and  N_5
REMARK                            x       y       z     vdW  Elec       q    Type
REMARK                         _______ _______ _______ _____ _____    ______ ____
ROOT
ATOM      1  C   UNL     1       1.011   0.155  -0.261  0.00  0.00    +0.025 C 
ATOM      2  C   UNL     1       2.547  -0.008  -0.227  0.00  0.00    +0.069 C 
ENDROOT
BRANCH   2   3
ATOM      3  N   UNL     1       3.085  -0.484  -1.534  0.00  0.00    -0.282 NA
ATOM      4  C   UNL     1       4.535  -0.793  -1.518  0.00  0.00    +0.181 C 
ATOM      5  C   UNL     1       5.391   0.459  -1.363  0.00  0.00    +0.233 C 
ATOM      6  O   UNL     1       6.423   0.478  -0.692  0.00  0.00    -0.274 OA
ATOM      7  N   UNL     1       4.953   1.576  -2.019  0.00  0.00    -0.254 N 
ATOM      8  H   UNL     1       5.502   2.415  -1.900  0.00  0.00    +0.158 HD
ATOM      9  C   UNL     1       3.689   1.736  -2.533  0.00  0.00    +0.233 C 
ATOM     10  O   UNL     1       3.284   2.841  -2.884  0.00  0.00    -0.274 OA
ATOM     11  C   UNL     1       2.853   0.462  -2.659  0.00  0.00    +0.181 C 
ENDBRANCH   2   3
BRANCH   2  12
ATOM     12  C   UNL     1       2.926  -0.868   1.050  0.00  0.00    +0.104 C 
BRANCH  12  13
ATOM     13  N   UNL     1       2.260  -2.173   1.225  0.00  0.00    -0.284 NA
ATOM     14  C   UNL     1       2.388  -2.695   2.604  0.00  0.00    +0.181 C 
ATOM     15  C   UNL     1       3.717  -3.394   2.881  0.00  0.00    +0.233 C 
ATOM     16  O   UNL     1       4.236  -3.408   3.995  0.00  0.00    -0.274 OA
ATOM     17  N   UNL     1       4.299  -4.058   1.836  0.00  0.00    -0.254 N 
ATOM     18  H   UNL     1       5.199  -4.477   2.023  0.00  0.00    +0.158 HD
ATOM     19  C   UNL     1       3.996  -3.829   0.520  0.00  0.00    +0.233 C 
ATOM     20  O   UNL     1       4.787  -4.131  -0.371  0.00  0.00    -0.274 OA
ATOM     21  C   UNL     1       2.627  -3.213   0.248  0.00  0.00    +0.181 C 
ENDBRANCH  12  13
ENDBRANCH   2  12
TORSDOF 3
