REMARK  Name = 
REMARK  13 active torsions:
REMARK  status: ('A' for Active; 'I' for Inactive)
REMARK    1  A    between atoms: C_1  and  C_2
REMARK    2  A    between atoms: C_2  and  CA_3
REMARK    3  A    between atoms: CA_3  and  C_5
REMARK    4  A    between atoms: CA_3  and  N_7
REMARK    5  A    between atoms: C_5  and  O_6
REMARK    6  A    between atoms: N_7  and  C_8
REMARK    7  A    between atoms: C_8  and  C_9
REMARK    8  A    between atoms: C_9  and  N_10
REMARK    9  A    between atoms: N_10  and  CA_11
REMARK   10  A    between atoms: CA_11  and  C_13
REMARK   11  A    between atoms: CA_11  and  C_15
REMARK   12  A    between atoms: C_13  and  C_14
REMARK   13  A    between atoms: C_15  and  O_16
REMARK                            x       y       z     vdW  Elec       q    Type
REMARK                         _______ _______ _______ _____ _____    ______ ____
ROOT
ATOM      1  C   UNL     1       4.837   2.505  -1.403  0.00  0.00    +0.096 C 
ENDROOT
BRANCH   1   2
ATOM      2  N   UNL     1       4.266   1.352  -0.693  0.00  0.00    -0.310 NA
ATOM      3  H   UNL     1       4.559   0.499  -1.169  0.00  0.00    +0.122 HD
BRANCH   2   4
ATOM      4  CA  UNL     1       2.788   1.376  -0.621  0.00  0.00    +0.079 C 
BRANCH   4   6
ATOM      5  C   UNL     1       0.877  -0.135   0.219  0.00  0.00    +0.005 C 
ATOM      6  C   UNL     1       2.379   0.057   0.077  0.00  0.00    +0.017 C 
ENDBRANCH   4   6
BRANCH   4   7
ATOM      7  C   UNL     1       2.209   2.637   0.076  0.00  0.00    +0.174 C 
BRANCH   7   8
ATOM      8  O   UNL     1       2.696   2.840   1.399  0.00  0.00    -0.393 OA
ATOM      9  H   UNL     1       2.846   1.970   1.802  0.00  0.00    +0.209 HD
ENDBRANCH   7   8
ENDBRANCH   4   7
ENDBRANCH   2   4
ENDBRANCH   1   2
BRANCH   1  10
ATOM     10  C   UNL     1       6.368   2.344  -1.550  0.00  0.00    +0.096 C 
BRANCH  10  11
ATOM     11  N   UNL     1       6.962   3.505  -2.231  0.00  0.00    -0.310 NA
ATOM     12  H   UNL     1       6.724   4.331  -1.672  0.00  0.00    +0.122 HD
BRANCH  11  13
ATOM     13  CA  UNL     1       8.440   3.438  -2.301  0.00  0.00    +0.079 C 
BRANCH  13  14
ATOM     14  C   UNL     1       8.994   2.190  -3.023  0.00  0.00    +0.017 C 
ATOM     15  C   UNL     1       8.586   2.062  -4.486  0.00  0.00    +0.005 C 
ENDBRANCH  13  14
BRANCH  13  16
ATOM     16  C   UNL     1       8.974   4.728  -2.966  0.00  0.00    +0.174 C 
BRANCH  16  17
ATOM     17  O   UNL     1       8.587   5.879  -2.214  0.00  0.00    -0.393 OA
ATOM     18  H   UNL     1       7.647   6.027  -2.417  0.00  0.00    +0.209 HD
ENDBRANCH  16  17
ENDBRANCH  13  16
ENDBRANCH  11  13
ENDBRANCH  10  11
ENDBRANCH   1  10
TORSDOF 11
