REMARK  Name = 
REMARK  2 active torsions:
REMARK  status: ('A' for Active; 'I' for Inactive)
REMARK    1  A    between atoms: C_11  and  C_12
REMARK    2  A    between atoms: C_17  and  C_18
REMARK                            x       y       z     vdW  Elec       q    Type
REMARK                         _______ _______ _______ _____ _____    ______ ____
ROOT
ATOM      1  C   UNL     1      -0.000  -0.248  -0.000  0.00  0.00    +0.000 C 
ATOM      2  C   UNL     1       0.000   2.236  -0.000  0.00  0.00    +0.037 C 
ATOM      3  C   UNL     1      -0.000  -0.248  -0.000  0.00  0.00    +0.114 C 
ATOM      4  C   UNL     1      -0.000  -0.248  -0.000  0.00  0.00    +0.056 C 
ATOM      5  O   UNL     1      -0.000  -0.248  -0.000  0.00  0.00    -0.458 OA
ATOM      6  C   UNL     1      -0.000  -0.248  -0.000  0.00  0.00    +0.308 C 
ATOM      7  O   UNL     1      -0.000  -0.248  -0.000  0.00  0.00    -0.251 OA
ATOM      8  C   UNL     1      -0.000  -0.248  -0.000  0.00  0.00    +0.121 C 
ATOM      9  C   UNL     1      -0.000  -0.248  -0.000  0.00  0.00    +0.048 C 
ATOM     10  C   UNL     1      -0.000  -0.248  -0.000  0.00  0.00    +0.009 C 
ATOM     11  C   UNL     1      -0.000  -0.248  -0.000  0.00  0.00    +0.019 C 
ATOM     12  C   UNL     1      -0.000  -0.248   0.000  0.00  0.00    +0.006 C 
ATOM     13  C   UNL     1      -0.000  -0.248  -0.000  0.00  0.00    +0.011 C 
ATOM     14  C   UNL     1      -0.000  -0.248  -0.000  0.00  0.00    +0.020 C 
ATOM     15  C   UNL     1      -0.000  -0.248  -0.000  0.00  0.00    -0.056 C 
ATOM     16  C   UNL     1      -0.000  -0.248  -0.000  0.00  0.00    +0.051 C 
ATOM     17  C   UNL     1      -0.000  -0.248  -0.000  0.00  0.00    +0.179 C 
ATOM     18  O   UNL     1      -0.000  -0.248  -0.000  0.00  0.00    -0.288 OA
ATOM     19  C   UNL     1      -0.000  -0.248  -0.000  0.00  0.00    +0.047 C 
ATOM     20  C   UNL     1      -0.000  -0.248  -0.000  0.00  0.00    +0.032 C 
ATOM     21  C   UNL     1      -0.000  -0.248  -0.000  0.00  0.00    -0.012 C 
ATOM     22  C   UNL     1      -0.000  -0.248  -0.000  0.00  0.00    +0.008 C 
ENDROOT
TORSDOF 0
