REMARK  Name = 
REMARK  16 active torsions:
REMARK  status: ('A' for Active; 'I' for Inactive)
REMARK    1  A    between atoms: O_1  and  C_2
REMARK    2  A    between atoms: C_2  and  C_4
REMARK    3  A    between atoms: C_4  and  C_5
REMARK    4  A    between atoms: C_5  and  C_8
REMARK    5  A    between atoms: C_8  and  S_9
REMARK    6  A    between atoms: S_9  and  C_10
REMARK    7  A    between atoms: C_10  and  C_12
REMARK    8  A    between atoms: C_10  and  C_24
REMARK    9  A    between atoms: C_12  and  C_13
REMARK   10  A    between atoms: C_13  and  C_14
REMARK   11  A    between atoms: C_19  and  C_20
REMARK   12  A    between atoms: C_20  and  O_21
REMARK   13  A    between atoms: C_20  and  C_22
REMARK   14  A    between atoms: C_20  and  C_23
REMARK   15  A    between atoms: C_28  and  C_29
REMARK   16  A    between atoms: C_30  and  C_31
REMARK                            x       y       z     vdW  Elec       q    Type
REMARK                         _______ _______ _______ _____ _____    ______ ____
ROOT
ATOM      1  C   UNL     1       6.284   0.243   3.562  0.00  0.00    +0.077 C 
ENDROOT
BRANCH   1   2
ATOM      2  C   UNL     1       7.676   0.031   4.172  0.00  0.00    -0.034 A 
ATOM      3  C   UNL     1       8.769   0.778   3.682  0.00  0.00    +0.012 A 
ATOM      4  C   UNL     1      10.057   0.644   4.227  0.00  0.00    -0.025 A 
ATOM      5  C   UNL     1      10.267  -0.305   5.234  0.00  0.00    +0.008 A 
ATOM      6  C   UNL     1       9.206  -1.057   5.728  0.00  0.00    +0.001 A 
ATOM      7  C   UNL     1       7.922  -0.881   5.212  0.00  0.00    +0.005 A 
BRANCH   4   8
ATOM      8  C   UNL     1      11.157   1.479   3.716  0.00  0.00    +0.010 C 
ATOM      9  C   UNL     1      12.127   1.967   4.509  0.00  0.00    +0.028 C 
BRANCH   9  10
ATOM     10  C   UNL     1      13.253   2.798   4.060  0.00  0.00    +0.065 A 
ATOM     11  C   UNL     1      14.209   3.207   4.981  0.00  0.00    +0.028 A 
ATOM     12  C   UNL     1      15.290   3.960   4.533  0.00  0.00    +0.012 A 
ATOM     13  C   UNL     1      15.390   4.283   3.180  0.00  0.00    +0.001 A 
ATOM     14  C   UNL     1      16.479   5.017   2.679  0.00  0.00    +0.011 A 
ATOM     15  C   UNL     1      16.556   5.313   1.319  0.00  0.00    +0.021 A 
ATOM     16  C   UNL     1      15.541   4.885   0.472  0.00  0.00    +0.043 A 
ATOM     17  C   UNL     1      14.456   4.161   0.967  0.00  0.00    +0.048 A 
ATOM     18 CL   UNL     1      15.631   5.243  -1.210  0.00  0.00    -0.083 Cl
ATOM     19  C   UNL     1      14.363   3.842   2.312  0.00  0.00    +0.073 A 
ATOM     20  N   UNL     1      13.319   3.116   2.746  0.00  0.00    -0.247 NA
ENDBRANCH   9  10
ENDBRANCH   4   8
ENDBRANCH   1   2
BRANCH   1  21
ATOM     21  S   UNL     1       5.603   1.904   4.019  0.00  0.00    -0.152 S 
BRANCH  21  22
ATOM     22  C   UNL     1       5.156   1.645   5.750  0.00  0.00    +0.077 C 
BRANCH  22  23
ATOM     23  C   UNL     1       4.486   2.807   6.483  0.00  0.00    -0.010 C 
ATOM     24  C   UNL     1       4.875   4.248   6.180  0.00  0.00    +0.009 C 
ATOM     25  C   UNL     1       3.521   3.745   5.771  0.00  0.00    +0.009 C 
BRANCH  23  26
ATOM     26  C   UNL     1       4.168   2.469   7.939  0.00  0.00    +0.128 C 
BRANCH  26  27
ATOM     27  C   UNL     1       2.868   1.711   8.138  0.00  0.00    +0.305 C 
ATOM     28  O   UNL     1       2.092   1.380   7.258  0.00  0.00    -0.251 OA
BRANCH  27  29
ATOM     29  O   UNL     1       2.639   1.422   9.443  0.00  0.00    -0.481 OA
ATOM     30  H   UNL     1       3.331   1.746  10.049  0.00  0.00    +0.295 HD
ENDBRANCH  27  29
ENDBRANCH  26  27
ENDBRANCH  23  26
ENDBRANCH  22  23
ENDBRANCH  21  22
ENDBRANCH   1  21
BRANCH   1  31
ATOM     31  C   UNL     1       5.315  -0.947   3.768  0.00  0.00    +0.023 C 
BRANCH  31  32
ATOM     32  C   UNL     1       3.884  -0.760   3.229  0.00  0.00    +0.037 C 
BRANCH  32  33
ATOM     33  C   UNL     1       2.919  -1.933   3.389  0.00  0.00    -0.041 A 
ATOM     34  C   UNL     1       1.562  -1.868   2.944  0.00  0.00    -0.013 A 
ATOM     35  C   UNL     1       0.753  -3.010   3.177  0.00  0.00    +0.007 A 
ATOM     36  C   UNL     1       1.233  -4.165   3.794  0.00  0.00    +0.000 A 
ATOM     37  C   UNL     1       2.547  -4.220   4.214  0.00  0.00    +0.000 A 
ATOM     38  C   UNL     1       3.372  -3.117   4.020  0.00  0.00    +0.004 A 
BRANCH  34  39
ATOM     39  C   UNL     1       0.965  -0.676   2.157  0.00  0.00    +0.086 C 
ATOM     40  C   UNL     1       0.925   0.668   2.901  0.00  0.00    +0.046 C 
ATOM     41  C   UNL     1      -0.478  -0.909   1.654  0.00  0.00    +0.046 C 
BRANCH  39  42
ATOM     42  O   UNL     1       1.745  -0.498   0.966  0.00  0.00    -0.384 OA
ATOM     43  H   UNL     1       2.038  -1.384   0.688  0.00  0.00    +0.211 HD
ENDBRANCH  39  42
ENDBRANCH  34  39
ENDBRANCH  32  33
ENDBRANCH  31  32
ENDBRANCH   1  31
TORSDOF 14
