REMARK  Name = 
REMARK  7 active torsions:
REMARK  status: ('A' for Active; 'I' for Inactive)
REMARK    1  A    between atoms: N_1  and  CA_2
REMARK    2  A    between atoms: CA_2  and  CB_4
REMARK    3  A    between atoms: CA_2  and  C_9
REMARK    4  A    between atoms: CB_4  and  CG_5
REMARK    5  A    between atoms: CG_5  and  CD_6
REMARK    6  A    between atoms: CD_6  and  OE1_7
REMARK    7  A    between atoms: C_9  and  O_10
REMARK                            x       y       z     vdW  Elec       q    Type
REMARK                         _______ _______ _______ _____ _____    ______ ____
ROOT
ATOM      1  CA  GLU A   1       2.516   0.060  -0.023  0.00  0.00    +0.161 C 
ENDROOT
BRANCH   1   2
ATOM      2  N   GLU A   1       2.978  -0.896  -1.081  0.00  0.00    -0.318 NA
ATOM      3  H1  GLU A   1       3.893  -1.273  -0.806  0.00  0.00    +0.119 HD
ATOM      4  H2  GLU A   1       2.363  -1.717  -1.045  0.00  0.00    +0.119 HD
ENDBRANCH   1   2
BRANCH   1   5
ATOM      5  C   GLU A   1       2.995   1.475  -0.420  0.00  0.00    +0.322 C 
ATOM      6  OXT GLU A   1       2.839   2.489   0.240  0.00  0.00    -0.249 OA
BRANCH   5   7
ATOM      7  O   GLU A   1       3.610   1.466  -1.632  0.00  0.00    -0.480 OA
ATOM      8  H   GLU A   1       3.543   0.531  -1.955  0.00  0.00    +0.295 HD
ENDBRANCH   5   7
ENDBRANCH   1   5
BRANCH   1   9
ATOM      9  CB  GLU A   1       3.050  -0.387   1.342  0.00  0.00    +0.041 C 
BRANCH   9  10
ATOM     10  CG  GLU A   1       2.570   0.489   2.502  0.00  0.00    +0.122 C 
BRANCH  10  11
ATOM     11  CD  GLU A   1       3.110  -0.001   3.825  0.00  0.00    +0.305 C 
ATOM     12  OE2 GLU A   1       3.373  -1.167   4.075  0.00  0.00    -0.251 OA
BRANCH  11  13
ATOM     13  OE1 GLU A   1       3.244   0.987   4.736  0.00  0.00    -0.481 OA
ATOM     14  HE1 GLU A   1       3.005   1.876   4.406  0.00  0.00    +0.295 HD
ENDBRANCH  11  13
ENDBRANCH  10  11
ENDBRANCH   9  10
ENDBRANCH   1   9
TORSDOF 7
