REMARK  Name = 
REMARK  6 active torsions:
REMARK  status: ('A' for Active; 'I' for Inactive)
REMARK    1  A    between atoms: C_1  and  N_2
REMARK    2  A    between atoms: N_2  and  C_3
REMARK    3  A    between atoms: C_3  and  C_4
REMARK    4  A    between atoms: C_4  and  O_6
REMARK    5  A    between atoms: C_4  and  C_7
REMARK    6  A    between atoms: C_9  and  O_10
REMARK                            x       y       z     vdW  Elec       q    Type
REMARK                         _______ _______ _______ _____ _____    ______ ____
ROOT
ATOM      1  C   UNL     1       4.845  -2.131  -1.939  0.00  0.00    -0.014 A 
ATOM      2  C   UNL     1       5.557  -3.288  -1.579  0.00  0.00    +0.006 A 
ATOM      3  C   UNL     1       5.803  -4.300  -2.511  0.00  0.00    +0.004 A 
ATOM      4  C   UNL     1       5.356  -4.166  -3.822  0.00  0.00    +0.045 A 
ATOM      5  C   UNL     1       4.673  -3.018  -4.196  0.00  0.00    +0.117 A 
ATOM      6  C   UNL     1       4.409  -2.008  -3.272  0.00  0.00    +0.051 A 
ENDROOT
BRANCH   5   7
ATOM      7  O   UNL     1       4.255  -2.924  -5.491  0.00  0.00    -0.507 OA
ATOM      8  H   UNL     1       3.840  -2.057  -5.625  0.00  0.00    +0.292 HD
ENDBRANCH   5   7
BRANCH   1   9
ATOM      9  C   UNL     1       4.439  -1.083  -0.917  0.00  0.00    +0.158 C 
BRANCH   9  10
ATOM     10  O   UNL     1       4.963  -1.371   0.386  0.00  0.00    -0.386 OA
ATOM     11  H   UNL     1       4.497  -2.166   0.697  0.00  0.00    +0.210 HD
ENDBRANCH   9  10
BRANCH   9  12
ATOM     12  C   UNL     1       4.847   0.370  -1.277  0.00  0.00    +0.116 C 
BRANCH  12  14
ATOM     13  C   UNL     1       2.972   1.511  -0.206  0.00  0.00    +0.101 C 
ATOM     14  N   UNL     1       4.421   1.376  -0.280  0.00  0.00    -0.316 NA
ATOM     15  H   UNL     1       4.767   1.053   0.629  0.00  0.00    +0.122 HD
ENDBRANCH  12  14
ENDBRANCH   9  12
ENDBRANCH   1   9
TORSDOF 5
