REMARK  Name = 
REMARK  12 active torsions:
REMARK  status: ('A' for Active; 'I' for Inactive)
REMARK    1  A    between atoms: C_1  and  C_2
REMARK    2  A    between atoms: C_2  and  C_3
REMARK    3  A    between atoms: C_3  and  C_4
REMARK    4  A    between atoms: C_6  and  C_7
REMARK    5  A    between atoms: C_11  and  C_15
REMARK    6  A    between atoms: C_16  and  O_17
REMARK    7  A    between atoms: O_17  and  C_18
REMARK    8  A    between atoms: C_18  and  C_19
REMARK    9  A    between atoms: C_22  and  S_24
REMARK   10  A    between atoms: S_24  and  N_27
REMARK   11  A    between atoms: N_30  and  C_31
REMARK   12  A    between atoms: C_31  and  C_32
REMARK                            x       y       z     vdW  Elec       q    Type
REMARK                         _______ _______ _______ _____ _____    ______ ____
ROOT
ATOM      1  C   UNL     1       5.684  -1.640   4.701  0.00  0.00    +0.062 A 
ATOM      2  C   UNL     1       5.371  -0.451   5.381  0.00  0.00    +0.043 A 
ATOM      3  C   UNL     1       5.000  -0.498   6.727  0.00  0.00    +0.106 A 
ATOM      4  C   UNL     1       4.935  -1.714   7.404  0.00  0.00    +0.032 A 
ATOM      5  C   UNL     1       5.238  -2.896   6.732  0.00  0.00    +0.048 A 
ATOM      6  C   UNL     1       5.604  -2.878   5.378  0.00  0.00    +0.131 A 
ENDROOT
BRANCH   1  11
ATOM      7  C   UNL     1       8.133  -3.051   0.666  0.00  0.00    +0.130 A 
ATOM      8  N   UNL     1       7.273  -2.313   1.445  0.00  0.00    -0.232 N 
ATOM      9  N   UNL     1       6.866  -2.516   2.715  0.00  0.00    -0.274 N 
ATOM     10  H   UNL     1       7.398  -3.130   3.317  0.00  0.00    +0.189 HD
ATOM     11  C   UNL     1       6.055  -1.542   3.240  0.00  0.00    +0.161 A 
ATOM     12  N   UNL     1       5.582  -0.528   2.575  0.00  0.00    -0.188 NA
ATOM     13  C   UNL     1       5.858  -0.357   1.233  0.00  0.00    +0.299 A 
ATOM     14  O   UNL     1       5.370   0.549   0.572  0.00  0.00    -0.263 OA
ATOM     15  C   UNL     1       6.787  -1.298   0.688  0.00  0.00    +0.152 A 
ATOM     16  C   UNL     1       7.351  -1.461  -0.556  0.00  0.00    +0.071 A 
ATOM     17  C   UNL     1       7.139  -0.666  -1.788  0.00  0.00    +0.068 C 
ATOM     18  N   UNL     1       8.199  -2.547  -0.552  0.00  0.00    -0.235 NA
BRANCH   7  19
ATOM     19  C   UNL     1       8.864  -4.258   1.149  0.00  0.00    +0.076 C 
BRANCH  19  21
ATOM     20  C   UNL     1       8.800  -6.762   1.415  0.00  0.00    +0.004 C 
ATOM     21  C   UNL     1       8.048  -5.532   0.931  0.00  0.00    +0.004 C 
ENDBRANCH  19  21
ENDBRANCH   7  19
ENDBRANCH   1  11
BRANCH   3  22
ATOM     22  S   UNL     1       4.406   0.959   7.549  0.00  0.00    +0.061 S 
ATOM     23  O   UNL     1       3.454   0.512   8.547  0.00  0.00    -0.153 OA
ATOM     24  O   UNL     1       4.019   1.908   6.534  0.00  0.00    -0.153 OA
BRANCH  22  25
ATOM     25  N   UNL     1       5.790   1.534   8.373  0.00  0.00    -0.174 NA
ATOM     26  C   UNL     1       5.464   2.434   9.528  0.00  0.00    +0.125 C 
ATOM     27  C   UNL     1       5.058   3.834   9.033  0.00  0.00    +0.101 C 
ATOM     28  N   UNL     1       6.102   4.508   8.231  0.00  0.00    -0.300 NA
ATOM     29  C   UNL     1       6.517   3.615   7.120  0.00  0.00    +0.101 C 
ATOM     30  C   UNL     1       6.861   2.162   7.532  0.00  0.00    +0.125 C 
BRANCH  28  31
ATOM     31  C   UNL     1       7.265   4.953   9.010  0.00  0.00    +0.081 C 
ATOM     32  C   UNL     1       6.917   5.927  10.130  0.00  0.00    +0.020 C 
ENDBRANCH  28  31
ENDBRANCH  22  25
ENDBRANCH   3  22
BRANCH   6  33
ATOM     33  O   UNL     1       5.873  -4.020   4.663  0.00  0.00    -0.492 OA
BRANCH  33  34
ATOM     34  C   UNL     1       5.603  -5.270   5.303  0.00  0.00    +0.226 C 
ATOM     35  C   UNL     1       5.823  -6.385   4.299  0.00  0.00    +0.048 C 
ENDBRANCH  33  34
ENDBRANCH   6  33
TORSDOF 8
