REMARK  Name = 
REMARK  13 active torsions:
REMARK  status: ('A' for Active; 'I' for Inactive)
REMARK    1  A    between atoms: C_1  and  C_2
REMARK    2  A    between atoms: N_4  and  C_5
REMARK    3  A    between atoms: C_7  and  O_9
REMARK    4  A    between atoms: C_11  and  C_12
REMARK    5  A    between atoms: C_11  and  C_26
REMARK    6  A    between atoms: C_12  and  C_13
REMARK    7  A    between atoms: C_16  and  C_18
REMARK    8  A    between atoms: C_18  and  O_20
REMARK    9  A    between atoms: C_18  and  C_21
REMARK   10  A    between atoms: C_21  and  O_23
REMARK   11  A    between atoms: C_21  and  C_24
REMARK   12  A    between atoms: C_24  and  O_25
REMARK   13  A    between atoms: C_26  and  O_27
REMARK                            x       y       z     vdW  Elec       q    Type
REMARK                         _______ _______ _______ _____ _____    ______ ____
ROOT
ATOM      1  C   UNL     1       8.317   4.154  -0.938  0.00  0.00    +0.133 C 
ATOM      2  C   UNL     1       7.331   3.763  -2.063  0.00  0.00    +0.173 C 
ATOM      3  O   UNL     1       6.311   4.797  -2.212  0.00  0.00    -0.354 OA
ATOM      4  C   UNL     1       5.549   5.153  -1.032  0.00  0.00    +0.171 C 
ATOM      5  C   UNL     1       6.496   5.539   0.122  0.00  0.00    +0.080 C 
ATOM      6  C   UNL     1       7.551   4.462   0.366  0.00  0.00    +0.141 C 
ENDROOT
BRANCH   1   9
ATOM      7  C   UNL     1      10.848   7.010  -1.139  0.00  0.00    +0.109 C 
ATOM      8  C   UNL     1      10.204   5.756  -0.612  0.00  0.00    +0.210 C 
ATOM      9  N   UNL     1       9.127   5.318  -1.352  0.00  0.00    -0.308 N 
ATOM     10  H   UNL     1       8.767   5.916  -2.089  0.00  0.00    +0.149 HD
ATOM     11  O   UNL     1      10.594   5.191   0.404  0.00  0.00    -0.276 OA
ENDBRANCH   1   9
BRANCH   4  12
ATOM     12  C   UNL     1       4.441   4.108  -0.685  0.00  0.00    +0.337 C 
ATOM     13  O   UNL     1       3.621   3.718  -1.508  0.00  0.00    -0.248 OA
BRANCH  12  14
ATOM     14  O   UNL     1       4.418   3.630   0.580  0.00  0.00    -0.479 OA
ATOM     15  H   UNL     1       5.298   3.647   1.029  0.00  0.00    +0.295 HD
ENDBRANCH  12  14
ENDBRANCH   4  12
BRANCH   6  16
ATOM     16  O   UNL     1       6.879   3.314   0.888  0.00  0.00    -0.390 OA
ATOM     17  H   UNL     1       7.491   2.546   0.782  0.00  0.00    +0.210 HD
ENDBRANCH   6  16
BRANCH   2  18
ATOM     18  C   UNL     1       6.662   2.358  -2.033  0.00  0.00    +0.176 C 
BRANCH  18  19
ATOM     19  O   UNL     1       6.028   2.151  -3.312  0.00  0.00    -0.387 OA
ATOM     20  H   UNL     1       5.309   2.816  -3.364  0.00  0.00    +0.210 HD
ENDBRANCH  18  19
BRANCH  18  21
ATOM     21  C   UNL     1       7.508   1.113  -1.697  0.00  0.00    +0.171 C 
BRANCH  21  22
ATOM     22  O   UNL     1       8.020   1.205  -0.363  0.00  0.00    -0.387 OA
ATOM     23  H   UNL     1       8.303   0.301  -0.119  0.00  0.00    +0.210 HD
ENDBRANCH  21  22
BRANCH  21  24
ATOM     24  C   UNL     1       8.625   0.794  -2.699  0.00  0.00    +0.189 C 
BRANCH  24  25
ATOM     25  O   UNL     1       8.137   0.533  -4.006  0.00  0.00    -0.392 OA
ATOM     26  H   UNL     1       7.322   1.065  -4.136  0.00  0.00    +0.210 HD
ENDBRANCH  24  25
ENDBRANCH  21  24
ENDBRANCH  18  21
ENDBRANCH   2  18
BRANCH   4  27
ATOM     27  C   UNL     1       4.671   6.391  -1.420  0.00  0.00    +0.073 C 
BRANCH  27  28
ATOM     28  C   UNL     1       5.411   7.635  -1.837  0.00  0.00    -0.031 C 
ATOM     29  C   UNL     1       5.292   8.815  -1.214  0.00  0.00    +0.004 C 
ENDBRANCH  27  28
ENDBRANCH   4  27
TORSDOF 12
