REMARK  Name = 
REMARK  5 active torsions:
REMARK  status: ('A' for Active; 'I' for Inactive)
REMARK    1  A    between atoms: O_1  and  C_2
REMARK    2  A    between atoms: C_2  and  C_4
REMARK    3  A    between atoms: C_5  and  C_6
REMARK    4  A    between atoms: C_8  and  O_9
REMARK    5  A    between atoms: C_10  and  O_11
REMARK                            x       y       z     vdW  Elec       q    Type
REMARK                         _______ _______ _______ _____ _____    ______ ____
ROOT
ATOM      1  C   UNL     1       5.236  -2.262   1.634  0.00  0.00    -0.021 A 
ATOM      2  C   UNL     1       4.829  -3.605   1.531  0.00  0.00    +0.012 A 
ATOM      3  C   UNL     1       5.554  -4.623   2.155  0.00  0.00    +0.050 A 
ATOM      4  C   UNL     1       6.696  -4.300   2.867  0.00  0.00    +0.158 A 
ATOM      5  C   UNL     1       7.123  -2.979   2.965  0.00  0.00    +0.159 A 
ATOM      6  C   UNL     1       6.403  -1.956   2.351  0.00  0.00    +0.057 A 
ENDROOT
BRANCH   1   8
ATOM      7  C   UNL     1       3.183  -1.168   0.764  0.00  0.00    +0.092 C 
ATOM      8  C   UNL     1       4.513  -1.181   0.946  0.00  0.00    +0.015 C 
BRANCH   7   9
ATOM      9  C   UNL     1       2.559  -0.054   0.022  0.00  0.00    +0.330 C 
ATOM     10  O   UNL     1       3.165   0.894  -0.445  0.00  0.00    -0.246 OA
BRANCH   9  11
ATOM     11  O   UNL     1       1.225  -0.210  -0.095  0.00  0.00    -0.478 OA
ATOM     12  H   UNL     1       0.853  -1.009   0.318  0.00  0.00    +0.295 HD
ENDBRANCH   9  11
ENDBRANCH   7   9
ENDBRANCH   1   8
BRANCH   4  13
ATOM     13  O   UNL     1       7.411  -5.297   3.463  0.00  0.00    -0.503 OA
ATOM     14  H   UNL     1       8.169  -4.841   3.880  0.00  0.00    +0.292 HD
ENDBRANCH   4  13
BRANCH   5  15
ATOM     15  O   UNL     1       8.269  -2.737   3.672  0.00  0.00    -0.503 OA
ATOM     16  H   UNL     1       8.455  -1.783   3.633  0.00  0.00    +0.292 HD
ENDBRANCH   5  15
TORSDOF 5
