REMARK  Name = 
REMARK  0 active torsions:
REMARK  status: ('A' for Active; 'I' for Inactive)
REMARK                            x       y       z     vdW  Elec       q    Type
REMARK                         _______ _______ _______ _____ _____    ______ ____
ROOT
ATOM      1  O   UNL     1       1.295   0.099   0.562  0.00  0.00    -0.275 OA
ATOM      2  C   UNL     1       2.420   0.014   0.076  0.00  0.00    +0.222 C 
ATOM      3  N   UNL     1       3.091   1.122  -0.374  0.00  0.00    -0.240 N 
ATOM      4  H   UNL     1       2.639   2.015  -0.245  0.00  0.00    +0.159 HD
ATOM      5  C   UNL     1       4.320   1.143  -0.964  0.00  0.00    +0.306 C 
ATOM      6  O   UNL     1       4.892   2.185  -1.256  0.00  0.00    -0.252 OA
ATOM      7  N   UNL     1       4.878  -0.074  -1.219  0.00  0.00    -0.299 N 
ATOM      8  H   UNL     1       5.728  -0.033  -1.771  0.00  0.00    +0.150 HD
ATOM      9  C   UNL     1       4.087  -1.276  -1.191  0.00  0.00    +0.115 C 
ATOM     10  C   UNL     1       3.176  -1.286   0.015  0.00  0.00    +0.115 C 
ENDROOT
TORSDOF 0
