REMARK  Name = 
REMARK  7 active torsions:
REMARK  status: ('A' for Active; 'I' for Inactive)
REMARK    1  A    between atoms: C_1  and  O_2
REMARK    2  A    between atoms: O_2  and  C_3
REMARK    3  A    between atoms: C_6  and  C_8
REMARK    4  A    between atoms: C_8  and  O_9
REMARK    5  A    between atoms: C_10  and  S_12
REMARK    6  A    between atoms: C_13  and  O_15
REMARK    7  A    between atoms: C_16  and  O_18
REMARK                            x       y       z     vdW  Elec       q    Type
REMARK                         _______ _______ _______ _____ _____    ______ ____
ROOT
ATOM      1  C   UNL     1       2.973  -1.124   1.030  0.00  0.00    +0.281 C 
ATOM      2  C   UNL     1       4.420  -1.125   0.496  0.00  0.00    +0.200 C 
ATOM      3  C   UNL     1       4.474  -1.712  -0.928  0.00  0.00    +0.163 C 
ATOM      4  C   UNL     1       3.730  -3.055  -1.003  0.00  0.00    +0.105 C 
ATOM      5  C   UNL     1       2.309  -2.867  -0.468  0.00  0.00    +0.162 C 
ATOM      6  O   UNL     1       2.358  -2.401   0.890  0.00  0.00    -0.342 OA
ENDROOT
BRANCH   1   8
ATOM      7  C   UNL     1       1.727  -0.574   2.969  0.00  0.00    +0.197 C 
ATOM      8  O   UNL     1       3.019  -0.770   2.416  0.00  0.00    -0.352 OA
ENDBRANCH   1   8
BRANCH   2   9
ATOM      9  O   UNL     1       4.946   0.221   0.515  0.00  0.00    -0.384 OA
ATOM     10  H   UNL     1       5.100   0.512  -0.400  0.00  0.00    +0.210 HD
ENDBRANCH   2   9
BRANCH   3  11
ATOM     11  O   UNL     1       5.846  -1.854  -1.324  0.00  0.00    -0.388 OA
ATOM     12  H   UNL     1       5.869  -2.439  -2.106  0.00  0.00    +0.210 HD
ENDBRANCH   3  11
BRANCH   4  13
ATOM     13  S   UNL     1       3.795  -3.683  -2.730  0.00  0.00    -0.170 S 
ATOM     14  H   UNL     1       3.060  -2.711  -3.293  0.00  0.00    +0.102 HD
ENDBRANCH   4  13
BRANCH   5  15
ATOM     15  C   UNL     1       1.489  -4.166  -0.433  0.00  0.00    +0.188 C 
BRANCH  15  16
ATOM     16  O   UNL     1       0.170  -3.876   0.022  0.00  0.00    -0.392 OA
ATOM     17  H   UNL     1       0.282  -3.431   0.882  0.00  0.00    +0.210 HD
ENDBRANCH  15  16
ENDBRANCH   5  15
TORSDOF 6
