REMARK  Name = 
REMARK  7 active torsions:
REMARK  status: ('A' for Active; 'I' for Inactive)
REMARK    1  A    between atoms: C_1  and  O_2
REMARK    2  A    between atoms: O_2  and  C_3
REMARK    3  A    between atoms: C_11  and  C_12
REMARK    4  A    between atoms: N_14  and  C_15
REMARK    5  A    between atoms: C_15  and  C_16
REMARK    6  A    between atoms: N_20  and  C_21
REMARK    7  A    between atoms: C_21  and  C_22
REMARK                            x       y       z     vdW  Elec       q    Type
REMARK                         _______ _______ _______ _____ _____    ______ ____
ROOT
ATOM      1  C   UNL     1       2.794   1.486  -2.098  0.00  0.00    +0.248 C 
ATOM      2  N   UNL     1       1.546   1.830  -1.632  0.00  0.00    -0.310 N 
ATOM      3  H   UNL     1       1.477   2.156  -0.673  0.00  0.00    +0.149 HD
ATOM      4  O   UNL     1       2.994   1.240  -3.284  0.00  0.00    -0.270 OA
ENDROOT
BRANCH   1   6
ATOM      5  C   UNL     1       3.820   1.711   0.293  0.00  0.00    +0.134 A 
ATOM      6  C   UNL     1       3.936   1.408  -1.112  0.00  0.00    +0.080 A 
ATOM      7  C   UNL     1       5.164   0.979  -1.688  0.00  0.00    +0.048 A 
ATOM      8  C   UNL     1       6.248   0.871  -0.803  0.00  0.00    +0.113 A 
ATOM      9  C   UNL     1       6.127   1.193   0.615  0.00  0.00    +0.116 A 
ATOM     10  N   UNL     1       7.320   0.998   1.199  0.00  0.00    -0.155 NA
ATOM     11  N   UNL     1       8.072   0.583   0.172  0.00  0.00    -0.196 N 
ATOM     12  H   UNL     1       9.051   0.343   0.311  0.00  0.00    +0.213 HD
ATOM     13  N   UNL     1       7.513   0.487  -1.041  0.00  0.00    -0.155 NA
ATOM     14  C   UNL     1       4.919   1.628   1.186  0.00  0.00    +0.078 A 
BRANCH   5  16
ATOM     15  C   UNL     1       2.311   1.922   2.131  0.00  0.00    +0.277 C 
ATOM     16  O   UNL     1       2.587   2.142   0.748  0.00  0.00    -0.494 OA
ENDBRANCH   5  16
ENDBRANCH   1   6
BRANCH   2  17
ATOM     17  C   UNL     1       0.409   2.052  -2.517  0.00  0.00    +0.123 C 
BRANCH  17  18
ATOM     18  C   UNL     1      -0.103   0.790  -3.245  0.00  0.00    +0.074 C 
ATOM     19  N   UNL     1      -1.310   1.068  -4.076  0.00  0.00    -0.294 NA
ATOM     20  C   UNL     1      -2.220  -0.085  -3.949  0.00  0.00    +0.085 C 
ATOM     21  C   UNL     1      -1.509  -1.120  -3.100  0.00  0.00    +0.017 C 
ATOM     22  C   UNL     1      -0.552  -0.296  -2.271  0.00  0.00    +0.022 C 
BRANCH  19  23
ATOM     23  C   UNL     1      -0.929   1.330  -5.473  0.00  0.00    +0.111 C 
BRANCH  23  24
ATOM     24  C   UNL     1      -2.108   1.719  -6.323  0.00  0.00    -0.019 C 
ATOM     25  C   UNL     1      -2.490   1.062  -7.428  0.00  0.00    +0.005 C 
ENDBRANCH  23  24
ENDBRANCH  19  23
ENDBRANCH  17  18
ENDBRANCH   2  17
TORSDOF 6
