REMARK  Name = 
REMARK  5 active torsions:
REMARK  status: ('A' for Active; 'I' for Inactive)
REMARK    1  A    between atoms: C_1  and  C_2
REMARK    2  A    between atoms: C_4  and  C_5
REMARK    3  A    between atoms: N_8  and  S_9
REMARK    4  A    between atoms: S_9  and  C_12
REMARK    5  A    between atoms: C_15  and  N_16
REMARK                            x       y       z     vdW  Elec       q    Type
REMARK                         _______ _______ _______ _____ _____    ______ ____
ROOT
ATOM      1  S   UNL     1       4.597  -3.822  -0.043  0.00  0.00    +0.075 S 
ATOM      2  O   UNL     1       3.422  -3.883   0.797  0.00  0.00    -0.150 OA
ATOM      3  O   UNL     1       5.640  -4.823   0.077  0.00  0.00    -0.150 OA
ENDROOT
BRANCH   1   8
ATOM      4  C   UNL     1       3.236   0.888  -2.660  0.00  0.00    +0.066 C 
ATOM      5  C   UNL     1       3.507   0.328  -1.295  0.00  0.00    +0.044 A 
ATOM      6  N   UNL     1       4.344  -0.730  -1.216  0.00  0.00    -0.219 NA
ATOM      7  C   UNL     1       4.516  -1.237   0.007  0.00  0.00    +0.235 A 
ATOM      8  N   UNL     1       5.366  -2.337   0.106  0.00  0.00    -0.184 N 
ATOM      9  H   UNL     1       6.142  -2.261  -0.541  0.00  0.00    +0.177 HD
ATOM     10  N   UNL     1       3.983  -0.790   1.143  0.00  0.00    -0.219 NA
ATOM     11  C   UNL     1       3.180   0.283   1.038  0.00  0.00    +0.044 A 
ATOM     12  C   UNL     1       2.601   0.815   2.314  0.00  0.00    +0.066 C 
ATOM     13  C   UNL     1       2.906   0.881  -0.178  0.00  0.00    +0.046 A 
ENDBRANCH   1   8
BRANCH   1  14
ATOM     14  C   UNL     1       4.050  -3.872  -1.740  0.00  0.00    +0.109 A 
ATOM     15  C   UNL     1       2.768  -3.423  -2.069  0.00  0.00    +0.030 A 
ATOM     16  C   UNL     1       2.332  -3.491  -3.396  0.00  0.00    +0.024 A 
ATOM     17  C   UNL     1       3.168  -3.985  -4.401  0.00  0.00    +0.025 A 
ATOM     18  C   UNL     1       4.407  -4.527  -4.039  0.00  0.00    +0.024 A 
ATOM     19  C   UNL     1       4.862  -4.456  -2.716  0.00  0.00    +0.030 A 
BRANCH  17  20
ATOM     20  N   UNL     1       2.681  -4.152  -5.702  0.00  0.00    -0.358 N 
ATOM     21  H   UNL     1       1.954  -3.491  -5.957  0.00  0.00    +0.142 HD
ATOM     22  H   UNL     1       3.407  -4.214  -6.409  0.00  0.00    +0.142 HD
ENDBRANCH  17  20
ENDBRANCH   1  14
TORSDOF 3
