REMARK  Name = 
REMARK  9 active torsions:
REMARK  status: ('A' for Active; 'I' for Inactive)
REMARK    1  A    between atoms: C_1  and  C_2
REMARK    2  A    between atoms: N_4  and  C_5
REMARK    3  A    between atoms: C_8  and  C_10
REMARK    4  A    between atoms: C_10  and  O_11
REMARK    5  A    between atoms: O_11  and  P_12
REMARK    6  A    between atoms: P_12  and  O_13
REMARK    7  A    between atoms: P_12  and  O_14
REMARK    8  A    between atoms: C_16  and  O_18
REMARK    9  A    between atoms: C_19  and  O_21
REMARK                            x       y       z     vdW  Elec       q    Type
REMARK                         _______ _______ _______ _____ _____    ______ ____
ROOT
ATOM      1  C   UNL     1       5.378   2.659  -0.174  0.00  0.00    +0.255 C 
ATOM      2  C   UNL     1       6.109   2.556   1.185  0.00  0.00    +0.195 C 
ATOM      3  C   UNL     1       6.173   3.999   1.702  0.00  0.00    +0.178 C 
ATOM      4  C   UNL     1       5.685   4.836   0.521  0.00  0.00    +0.178 C 
ATOM      5  O   UNL     1       4.829   3.984  -0.258  0.00  0.00    -0.346 OA
ENDROOT
BRANCH   1  15
ATOM      6  C   UNL     1       5.269   1.261  -4.914  0.00  0.00    +0.049 C 
ATOM      7  C   UNL     1       5.984   1.734  -3.697  0.00  0.00    +0.006 A 
ATOM      8  C   UNL     1       7.436   2.022  -3.739  0.00  0.00    +0.126 A 
ATOM      9  N   UNL     1       8.178   1.787  -4.865  0.00  0.00    -0.343 N 
ATOM     10  H   UNL     1       7.727   1.924  -5.760  0.00  0.00    +0.144 HD
ATOM     11  H   UNL     1       9.095   2.218  -4.809  0.00  0.00    +0.144 HD
ATOM     12  N   UNL     1       8.091   2.512  -2.735  0.00  0.00    -0.178 NA
ATOM     13  C   UNL     1       7.447   2.791  -1.557  0.00  0.00    +0.352 A 
ATOM     14  O   UNL     1       8.043   3.391  -0.668  0.00  0.00    -0.244 OA
ATOM     15  N   UNL     1       6.123   2.387  -1.411  0.00  0.00    -0.270 N 
ATOM     16  C   UNL     1       5.409   1.918  -2.501  0.00  0.00    +0.100 A 
ENDBRANCH   1  15
BRANCH   2  17
ATOM     17  O   UNL     1       5.329   1.748   2.098  0.00  0.00    -0.385 OA
ATOM     18  H   UNL     1       4.498   2.215   2.296  0.00  0.00    +0.210 HD
ENDBRANCH   2  17
BRANCH   3  19
ATOM     19  O   UNL     1       7.480   4.343   2.148  0.00  0.00    -0.386 OA
ATOM     20  H   UNL     1       7.651   5.278   1.936  0.00  0.00    +0.210 HD
ENDBRANCH   3  19
BRANCH   4  21
ATOM     21  C   UNL     1       4.869   6.043   0.942  0.00  0.00    +0.206 C 
BRANCH  21  22
ATOM     22  O   UNL     1       5.651   7.048   1.585  0.00  0.00    -0.284 OA
BRANCH  22  23
ATOM     23  P   UNL     1       4.592   8.378   1.907  0.00  0.00    +0.472 P 
ATOM     24  O   UNL     1       3.645   9.568   2.195  0.00  0.00    -0.228 OA
BRANCH  23  25
ATOM     25  O   UNL     1       5.943   9.292   1.781  0.00  0.00    -0.303 OA
ATOM     26  H   UNL     1       6.153   9.484   0.849  0.00  0.00    +0.222 HD
ENDBRANCH  23  25
BRANCH  23  27
ATOM     27  O   UNL     1       4.846   7.955   3.464  0.00  0.00    -0.303 OA
ATOM     28  H   UNL     1       5.785   8.140   3.654  0.00  0.00    +0.222 HD
ENDBRANCH  23  27
ENDBRANCH  22  23
ENDBRANCH  21  22
ENDBRANCH   4  21
TORSDOF 8
