REMARK  Name = 
REMARK  4 active torsions:
REMARK  status: ('A' for Active; 'I' for Inactive)
REMARK    1  A    between atoms: C_1  and  C_2
REMARK    2  A    between atoms: C_2  and  O_3
REMARK    3  A    between atoms: C_2  and  C_4
REMARK    4  A    between atoms: C_4  and  O_5
REMARK                            x       y       z     vdW  Elec       q    Type
REMARK                         _______ _______ _______ _____ _____    ______ ____
ROOT
ATOM      1  C   UNL     1       0.914   0.073   0.048  0.00  0.00    +0.040 C 
ATOM      2  C   UNL     1       2.432   0.031   0.056  0.00  0.00    +0.137 C 
ENDROOT
BRANCH   2   3
ATOM      3  O   UNL     1       2.923   1.218   0.679  0.00  0.00    -0.390 OA
ATOM      4  H   UNL     1       2.991   1.050   1.637  0.00  0.00    +0.210 HD
ENDBRANCH   2   3
BRANCH   2   5
ATOM      5  C   UNL     1       2.960  -1.218   0.777  0.00  0.00    +0.186 C 
BRANCH   5   6
ATOM      6  O   UNL     1       4.387  -1.212   0.839  0.00  0.00    -0.392 OA
ATOM      7  H   UNL     1       4.718  -0.783   0.030  0.00  0.00    +0.210 HD
ENDBRANCH   5   6
ENDBRANCH   2   5
TORSDOF 3
