REMARK  Name = 
REMARK  14 active torsions:
REMARK  status: ('A' for Active; 'I' for Inactive)
REMARK    1  A    between atoms: C_4  and  O_6
REMARK    2  A    between atoms: C_7  and  C_9
REMARK    3  A    between atoms: C_10  and  C_11
REMARK    4  A    between atoms: C_11  and  O_13
REMARK    5  A    between atoms: C_11  and  C_14
REMARK    6  A    between atoms: C_14  and  C_15
REMARK    7  A    between atoms: C_15  and  C_16
REMARK    8  A    between atoms: C_16  and  C_17
REMARK    9  A    between atoms: C_17  and  C_18
REMARK   10  A    between atoms: C_24  and  C_25
REMARK   11  A    between atoms: C_25  and  C_26
REMARK   12  A    between atoms: C_26  and  C_27
REMARK   13  A    between atoms: C_27  and  C_28
REMARK   14  A    between atoms: C_28  and  O_29
REMARK                            x       y       z     vdW  Elec       q    Type
REMARK                         _______ _______ _______ _____ _____    ______ ____
ROOT
ATOM      1  C   UNL     1       2.064   0.100   0.010  0.00  0.00    +0.180 C 
ATOM      2  O   UNL     1       2.369  -0.395   1.317  0.00  0.00    -0.493 OA
ATOM      3  C   UNL     1       2.645  -1.742   1.140  0.00  0.00    +0.095 C 
ATOM      4  C   UNL     1       2.710  -2.589   2.176  0.00  0.00    +0.014 C 
ATOM      5  C   UNL     1       2.822  -2.123  -0.297  0.00  0.00    +0.081 C 
ATOM      6  C   UNL     1       2.810  -0.772  -0.983  0.00  0.00    +0.046 C 
ATOM      7  C   UNL     1       4.207  -0.122  -1.127  0.00  0.00    +0.047 C 
ATOM      8  C   UNL     1       4.075   1.309  -0.565  0.00  0.00    +0.125 C 
ATOM      9  C   UNL     1       2.606   1.503  -0.194  0.00  0.00    +0.076 C 
ENDROOT
BRANCH   7  10
ATOM     10  C   UNL     1       4.626  -0.132  -2.581  0.00  0.00    -0.022 C 
ATOM     11  C   UNL     1       5.741  -0.733  -3.028  0.00  0.00    -0.000 C 
BRANCH  11  12
ATOM     12  C   UNL     1       6.103  -0.873  -4.478  0.00  0.00    +0.137 C 
BRANCH  12  13
ATOM     13  O   UNL     1       7.366  -0.251  -4.673  0.00  0.00    -0.388 OA
ATOM     14  H   UNL     1       7.287   0.657  -4.334  0.00  0.00    +0.210 HD
ENDBRANCH  12  13
BRANCH  12  15
ATOM     15  C   UNL     1       6.214  -2.343  -4.902  0.00  0.00    +0.035 C 
BRANCH  15  16
ATOM     16  C   UNL     1       4.895  -3.107  -4.748  0.00  0.00    +0.003 C 
BRANCH  16  17
ATOM     17  C   UNL     1       5.036  -4.571  -5.163  0.00  0.00    -0.000 C 
BRANCH  17  18
ATOM     18  C   UNL     1       3.715  -5.318  -4.976  0.00  0.00    -0.003 C 
ATOM     19  C   UNL     1       3.837  -6.779  -5.373  0.00  0.00    +0.004 C 
ENDBRANCH  17  18
ENDBRANCH  16  17
ENDBRANCH  15  16
ENDBRANCH  12  15
ENDBRANCH  11  12
ENDBRANCH   7  10
BRANCH   8  20
ATOM     20  O   UNL     1       4.905   1.438   0.588  0.00  0.00    -0.391 OA
ATOM     21  H   UNL     1       4.766   2.327   0.957  0.00  0.00    +0.210 HD
ENDBRANCH   8  20
BRANCH   4  22
ATOM     22  C   UNL     1       2.476  -2.197   3.607  0.00  0.00    +0.031 C 
BRANCH  22  23
ATOM     23  C   UNL     1       3.698  -2.490   4.477  0.00  0.00    +0.015 C 
BRANCH  23  24
ATOM     24  C   UNL     1       3.465  -2.015   5.908  0.00  0.00    +0.121 C 
BRANCH  24  25
ATOM     25  C   UNL     1       4.611  -2.370   6.823  0.00  0.00    +0.305 C 
ATOM     26  O   UNL     1       4.507  -3.120   7.780  0.00  0.00    -0.251 OA
BRANCH  25  27
ATOM     27  O   UNL     1       5.769  -1.750   6.508  0.00  0.00    -0.481 OA
ATOM     28  H   UNL     1       5.706  -1.159   5.734  0.00  0.00    +0.295 HD
ENDBRANCH  25  27
ENDBRANCH  24  25
ENDBRANCH  23  24
ENDBRANCH  22  23
ENDBRANCH   4  22
TORSDOF 13
