REMARK  Name = 
REMARK  8 active torsions:
REMARK  status: ('A' for Active; 'I' for Inactive)
REMARK    1  A    between atoms: C_1  and  C_2
REMARK    2  A    between atoms: C_2  and  C_3
REMARK    3  A    between atoms: C_3  and  C_4
REMARK    4  A    between atoms: C_4  and  C_5
REMARK    5  A    between atoms: N_14  and  C_15
REMARK    6  A    between atoms: C_15  and  C_16
REMARK    7  A    between atoms: C_19  and  C_22
REMARK    8  A    between atoms: C_27  and  C_28
REMARK                            x       y       z     vdW  Elec       q    Type
REMARK                         _______ _______ _______ _____ _____    ______ ____
ROOT
ATOM      1  C   UNL     1       7.002   4.108  -1.090  0.00  0.00    -0.008 A 
ATOM      2  C   UNL     1       7.273   3.349   0.049  0.00  0.00    +0.008 A 
ATOM      3  C   UNL     1       8.570   3.288   0.568  0.00  0.00    +0.009 A 
ATOM      4  C   UNL     1       9.627   4.019  -0.002  0.00  0.00    -0.017 A 
ATOM      5  C   UNL     1       9.283   4.941  -1.002  0.00  0.00    +0.009 A 
ATOM      6  C   UNL     1       8.007   4.947  -1.578  0.00  0.00    +0.008 A 
ENDROOT
BRANCH   4   7
ATOM      7  C   UNL     1      11.040   3.755   0.399  0.00  0.00    -0.007 A 
ATOM      8  C   UNL     1      12.127   3.653  -0.519  0.00  0.00    +0.030 A 
ATOM      9  C   UNL     1      13.426   3.371  -0.040  0.00  0.00    +0.012 A 
ATOM     10  C   UNL     1      13.667   3.149   1.312  0.00  0.00    +0.001 A 
ATOM     11  C   UNL     1      12.620   3.229   2.213  0.00  0.00    +0.001 A 
ATOM     12  C   UNL     1      11.328   3.536   1.765  0.00  0.00    +0.009 A 
BRANCH   8  13
ATOM     13  C   UNL     1      12.002   3.828  -1.963  0.00  0.00    +0.205 A 
ATOM     14  N   UNL     1      12.897   4.586  -2.689  0.00  0.00    -0.108 NA
ATOM     15  N   UNL     1      12.433   4.646  -3.929  0.00  0.00    -0.049 NA
ATOM     16  N   UNL     1      11.302   3.930  -3.897  0.00  0.00    -0.176 N 
ATOM     17  H   UNL     1      10.672   3.885  -4.695  0.00  0.00    +0.214 HD
ATOM     18  N   UNL     1      11.028   3.319  -2.737  0.00  0.00    -0.133 NA
ENDBRANCH   8  13
ENDBRANCH   4   7
BRANCH   1  19
ATOM     19  C   UNL     1       5.675   4.004  -1.796  0.00  0.00    +0.270 C 
BRANCH  19  21
ATOM     20  C   UNL     1       5.007   1.705  -2.648  0.00  0.00    +0.292 C 
ATOM     21  N   UNL     1       5.589   2.911  -2.759  0.00  0.00    -0.153 N 
ATOM     22  C   UNL     1       6.070   3.013  -4.037  0.00  0.00    +0.356 C 
ATOM     23  O   UNL     1       6.830   3.853  -4.494  0.00  0.00    -0.242 OA
ATOM     24  C   UNL     1       5.363   1.909  -4.805  0.00  0.00    +0.249 C 
ATOM     25  C   UNL     1       6.184   1.175  -5.860  0.00  0.00    +0.069 C 
ATOM     26  C   UNL     1       5.494   1.463  -7.199  0.00  0.00    +0.005 C 
ATOM     27  C   UNL     1       4.660   2.709  -6.957  0.00  0.00    +0.005 C 
ATOM     28  C   UNL     1       4.155   2.509  -5.539  0.00  0.00    +0.069 C 
ATOM     29  N   UNL     1       4.873   1.011  -3.732  0.00  0.00    -0.069 NA
BRANCH  20  30
ATOM     30  C   UNL     1       4.514   1.150  -1.331  0.00  0.00    +0.128 C 
BRANCH  30  31
ATOM     31  C   UNL     1       3.027   1.418  -1.127  0.00  0.00    +0.012 C 
BRANCH  31  33
ATOM     32  C   UNL     1       1.061   1.061   0.418  0.00  0.00    +0.004 C 
ATOM     33  C   UNL     1       2.545   0.819   0.194  0.00  0.00    -0.003 C 
ENDBRANCH  31  33
ENDBRANCH  30  31
ENDBRANCH  20  30
ENDBRANCH  19  21
ENDBRANCH   1  19
TORSDOF 7
