REMARK  Name = 
REMARK  8 active torsions:
REMARK  status: ('A' for Active; 'I' for Inactive)
REMARK    1  A    between atoms: C_1  and  C_2
REMARK    2  A    between atoms: C_2  and  C_3
REMARK    3  A    between atoms: N_5  and  C_6
REMARK    4  A    between atoms: N_5  and  C_21
REMARK    5  A    between atoms: N_9  and  C_10
REMARK    6  A    between atoms: C_10  and  C_11
REMARK    7  A    between atoms: C_11  and  O_12
REMARK    8  A    between atoms: C_11  and  C_13
REMARK                            x       y       z     vdW  Elec       q    Type
REMARK                         _______ _______ _______ _____ _____    ______ ____
ROOT
ATOM      1  C   UNL     1       5.349  -0.716   0.162  0.00  0.00    +0.084 C 
ATOM      2  C   UNL     1       5.727  -0.301   1.588  0.00  0.00    +0.038 C 
ATOM      3  C   UNL     1       5.222   1.079   1.988  0.00  0.00    +0.086 C 
ATOM      4  N   UNL     1       5.559   2.134   1.030  0.00  0.00    -0.299 NA
ATOM      5  C   UNL     1       5.001   1.861  -0.294  0.00  0.00    +0.086 C 
ATOM      6  C   UNL     1       5.258   0.452  -0.854  0.00  0.00    +0.038 C 
ENDROOT
BRANCH   1   8
ATOM      7  C   UNL     1       2.909  -1.607   0.194  0.00  0.00    +0.220 C 
ATOM      8  N   UNL     1       4.310  -1.823   0.131  0.00  0.00    -0.268 N 
ATOM      9  O   UNL     1       2.042  -2.471   0.043  0.00  0.00    -0.275 OA
BRANCH   8  10
ATOM     10  C   UNL     1       4.836  -3.214   0.215  0.00  0.00    +0.037 A 
ATOM     11  C   UNL     1       6.198  -3.493   0.470  0.00  0.00    +0.023 A 
ATOM     12  C   UNL     1       6.696  -4.802   0.598  0.00  0.00    +0.002 A 
ATOM     13  C   UNL     1       5.843  -5.888   0.502  0.00  0.00    +0.000 A 
ATOM     14  C   UNL     1       4.501  -5.661   0.252  0.00  0.00    +0.002 A 
ATOM     15  C   UNL     1       4.016  -4.351   0.096  0.00  0.00    +0.023 A 
ENDBRANCH   8  10
BRANCH   7  17
ATOM     16  C   UNL     1       0.970   0.042   0.174  0.00  0.00    +0.013 C 
ATOM     17  C   UNL     1       2.408  -0.236   0.585  0.00  0.00    +0.093 C 
ENDBRANCH   7  17
ENDBRANCH   1   8
BRANCH   4  18
ATOM     18  C   UNL     1       7.003   2.422   1.021  0.00  0.00    +0.120 C 
BRANCH  18  19
ATOM     19  C   UNL     1       7.425   3.705   0.251  0.00  0.00    +0.158 C 
BRANCH  19  20
ATOM     20  C   UNL     1       8.920   3.905   0.348  0.00  0.00    -0.018 A 
ATOM     21  C   UNL     1       9.541   4.095   1.592  0.00  0.00    +0.006 A 
ATOM     22  C   UNL     1      10.927   4.216   1.680  0.00  0.00    +0.000 A 
ATOM     23  C   UNL     1      11.702   4.173   0.520  0.00  0.00    +0.000 A 
ATOM     24  C   UNL     1      11.094   4.011  -0.722  0.00  0.00    +0.000 A 
ATOM     25  C   UNL     1       9.710   3.871  -0.809  0.00  0.00    +0.006 A 
ENDBRANCH  19  20
BRANCH  19  26
ATOM     26  O   UNL     1       6.779   4.881   0.730  0.00  0.00    -0.386 OA
ATOM     27  H   UNL     1       6.638   4.769   1.683  0.00  0.00    +0.210 HD
ENDBRANCH  19  26
ENDBRANCH  18  19
ENDBRANCH   4  18
TORSDOF 7
