REMARK  Name = 
REMARK  18 active torsions:
REMARK  status: ('A' for Active; 'I' for Inactive)
REMARK    1  A    between atoms: C_1  and  C_2
REMARK    2  A    between atoms: C_2  and  C_3
REMARK    3  A    between atoms: C_3  and  C_4
REMARK    4  A    between atoms: C_4  and  C_5
REMARK    5  A    between atoms: C_5  and  C_6
REMARK    6  A    between atoms: C_9  and  C_12
REMARK    7  A    between atoms: N_14  and  C_15
REMARK    8  A    between atoms: C_18  and  S_21
REMARK    9  A    between atoms: S_21  and  N_24
REMARK   10  A    between atoms: N_24  and  C_25
REMARK   11  A    between atoms: N_24  and  C_33
REMARK   12  A    between atoms: C_25  and  C_26
REMARK   13  A    between atoms: C_26  and  N_27
REMARK   14  A    between atoms: C_33  and  C_35
REMARK   15  A    between atoms: C_33  and  C_38
REMARK   16  A    between atoms: C_35  and  C_36
REMARK   17  A    between atoms: C_35  and  C_37
REMARK   18  A    between atoms: N_40  and  O_41
REMARK                            x       y       z     vdW  Elec       q    Type
REMARK                         _______ _______ _______ _____ _____    ______ ____
ROOT
ATOM      1  S   UNL     1      18.241   2.860  -2.943  0.00  0.00    +0.062 S 
ATOM      2  O   UNL     1      19.162   3.859  -2.443  0.00  0.00    -0.153 OA
ATOM      3  O   UNL     1      17.734   2.927  -4.296  0.00  0.00    -0.153 OA
ENDROOT
BRANCH   1   7
ATOM      4  C   UNL     1      14.348   3.368  -0.576  0.00  0.00    +0.034 A 
ATOM      5  C   UNL     1      14.418   2.439  -1.621  0.00  0.00    +0.025 A 
ATOM      6  C   UNL     1      15.628   2.213  -2.298  0.00  0.00    +0.030 A 
ATOM      7  C   UNL     1      16.782   2.908  -1.919  0.00  0.00    +0.106 A 
ATOM      8  C   UNL     1      16.724   3.811  -0.858  0.00  0.00    +0.030 A 
ATOM      9  C   UNL     1      15.520   4.021  -0.183  0.00  0.00    +0.025 A 
BRANCH   4  11
ATOM     10  C   UNL     1      12.814   4.580   0.971  0.00  0.00    +0.248 C 
ATOM     11  N   UNL     1      13.074   3.645  -0.017  0.00  0.00    -0.282 N 
ATOM     12  H   UNL     1      12.298   3.152  -0.433  0.00  0.00    +0.155 HD
ATOM     13  O   UNL     1      13.673   5.196   1.597  0.00  0.00    -0.270 OA
BRANCH  10  17
ATOM     14  C   UNL     1       8.796   5.766   1.994  0.00  0.00    -0.047 A 
ATOM     15  C   UNL     1       8.985   4.829   0.969  0.00  0.00    +0.004 A 
ATOM     16  C   UNL     1      10.273   4.393   0.621  0.00  0.00    +0.013 A 
ATOM     17  C   UNL     1      11.388   4.888   1.307  0.00  0.00    +0.037 A 
ATOM     18  C   UNL     1      11.184   5.791   2.363  0.00  0.00    +0.013 A 
ATOM     19  C   UNL     1       9.906   6.217   2.711  0.00  0.00    +0.004 A 
BRANCH  14  20
ATOM     20  C   UNL     1       7.433   6.346   2.283  0.00  0.00    +0.035 C 
BRANCH  20  21
ATOM     21  C   UNL     1       7.374   7.865   2.058  0.00  0.00    +0.005 C 
BRANCH  21  22
ATOM     22  C   UNL     1       7.672   8.272   0.610  0.00  0.00    +0.000 C 
BRANCH  22  24
ATOM     23  C   UNL     1       7.905  10.211  -0.994  0.00  0.00    +0.004 C 
ATOM     24  C   UNL     1       7.616   9.791   0.443  0.00  0.00    -0.003 C 
ENDBRANCH  22  24
ENDBRANCH  21  22
ENDBRANCH  20  21
ENDBRANCH  14  20
ENDBRANCH  10  17
ENDBRANCH   4  11
ENDBRANCH   1   7
BRANCH   1  25
ATOM     25  N   UNL     1      18.980   1.346  -2.751  0.00  0.00    -0.163 NA
BRANCH  25  26
ATOM     26  C   UNL     1      19.775   0.827  -3.959  0.00  0.00    +0.170 C 
BRANCH  26  27
ATOM     27  C   UNL     1      18.885   0.330  -5.111  0.00  0.00    +0.255 C 
ATOM     28  N   UNL     1      17.639  -0.109  -4.729  0.00  0.00    -0.196 N 
ATOM     29  H   UNL     1      17.218   0.290  -3.899  0.00  0.00    +0.182 HD
ATOM     30  O   UNL     1      19.266   0.202  -6.276  0.00  0.00    -0.272 OA
BRANCH  28  31
ATOM     31  O   UNL     1      16.767  -0.434  -5.799  0.00  0.00    -0.295 OA
ATOM     32  H   UNL     1      17.336  -0.275  -6.587  0.00  0.00    +0.241 HD
ENDBRANCH  28  31
ENDBRANCH  26  27
BRANCH  26  33
ATOM     33  C   UNL     1      20.972   1.666  -4.513  0.00  0.00    +0.011 C 
ATOM     34  C   UNL     1      22.054   2.017  -3.493  0.00  0.00    +0.009 C 
ATOM     35  C   UNL     1      20.635   2.901  -5.360  0.00  0.00    +0.009 C 
ENDBRANCH  26  33
ENDBRANCH  25  26
BRANCH  25  36
ATOM     36  C   UNL     1      19.704   1.090  -1.452  0.00  0.00    +0.125 C 
BRANCH  36  37
ATOM     37  C   UNL     1      18.857   1.102  -0.163  0.00  0.00    +0.101 C 
BRANCH  37  38
ATOM     38  N   UNL     1      17.673   0.223  -0.143  0.00  0.00    -0.297 NA
ATOM     39  C   UNL     1      16.801   0.543   1.021  0.00  0.00    +0.112 C 
ATOM     40  C   UNL     1      17.398   0.137   2.378  0.00  0.00    +0.175 C 
ATOM     41  O   UNL     1      17.685  -1.264   2.410  0.00  0.00    -0.377 OA
ATOM     42  C   UNL     1      18.567  -1.637   1.345  0.00  0.00    +0.175 C 
ATOM     43  C   UNL     1      18.019  -1.215  -0.034  0.00  0.00    +0.112 C 
ENDBRANCH  37  38
ENDBRANCH  36  37
ENDBRANCH  25  36
ENDBRANCH   1  25
TORSDOF 15
