REMARK  Name = 
REMARK  13 active torsions:
REMARK  status: ('A' for Active; 'I' for Inactive)
REMARK    1  A    between atoms: N_1  and  CA_2
REMARK    2  A    between atoms: CA_2  and  CB_4
REMARK    3  A    between atoms: CA_2  and  C_16
REMARK    4  A    between atoms: CB_4  and  CG_5
REMARK    5  A    between atoms: CG_5  and  CD_6
REMARK    6  A    between atoms: CD_6  and  CE_7
REMARK    7  A    between atoms: CE_7  and  N_8
REMARK    8  A    between atoms: N_8  and  CA_9
REMARK    9  A    between atoms: CA_9  and  C_10
REMARK   10  A    between atoms: CA_9  and  C_13
REMARK   11  A    between atoms: C_10  and  O_11
REMARK   12  A    between atoms: C_13  and  O_14
REMARK   13  A    between atoms: C_16  and  O_17
REMARK                            x       y       z     vdW  Elec       q    Type
REMARK                         _______ _______ _______ _____ _____    ______ ____
ROOT
ATOM      1  CE  UNL     1       2.520   4.604  -1.997  0.00  0.00    +0.082 C 
ENDROOT
BRANCH   1   2
ATOM      2  N   UNL     1       3.088   5.963  -1.969  0.00  0.00    -0.295 NA
ATOM      3  H   UNL     1       4.080   5.832  -2.203  0.00  0.00    +0.123 HD
BRANCH   2   4
ATOM      4  CA  UNL     1       2.509   6.848  -3.061  0.00  0.00    +0.273 C 
BRANCH   4   5
ATOM      5  C   UNL     1       3.141   8.236  -2.919  0.00  0.00    +0.333 C 
ATOM      6  OXT UNL     1       2.850   9.182  -3.639  0.00  0.00    -0.249 OA
BRANCH   5   7
ATOM      7  O   UNL     1       3.975   8.350  -1.863  0.00  0.00    -0.479 OA
ATOM      8  H   UNL     1       3.897   7.536  -1.308  0.00  0.00    +0.295 HD
ENDBRANCH   5   7
ENDBRANCH   4   5
BRANCH   4   9
ATOM      9  C   UNL     1       0.966   6.941  -3.085  0.00  0.00    +0.333 C 
ATOM     10  O   UNL     1       0.234   5.959  -3.166  0.00  0.00    -0.249 OA
BRANCH   9  11
ATOM     11  O   UNL     1       0.419   8.177  -3.075  0.00  0.00    -0.479 OA
ATOM     12  H   UNL     1       1.027   8.946  -3.186  0.00  0.00    +0.295 HD
ENDBRANCH   9  11
ENDBRANCH   4   9
ENDBRANCH   2   4
ENDBRANCH   1   2
BRANCH   1  13
ATOM     13  CD  UNL     1       3.139   3.741  -0.890  0.00  0.00    +0.015 C 
BRANCH  13  14
ATOM     14  CG  UNL     1       2.589   2.313  -0.967  0.00  0.00    +0.003 C 
BRANCH  14  15
ATOM     15  CB  UNL     1       3.117   1.435   0.172  0.00  0.00    +0.030 C 
BRANCH  15  16
ATOM     16  CA  UNL     1       2.588  -0.001   0.123  0.00  0.00    +0.161 C 
BRANCH  16  17
ATOM     17  N   UNL     1       1.099  -0.061   0.246  0.00  0.00    -0.318 NA
ATOM     18  H1  UNL     1       0.786   0.739   0.806  0.00  0.00    +0.119 HD
ATOM     19  H2  UNL     1       0.703   0.119  -0.683  0.00  0.00    +0.119 HD
ENDBRANCH  16  17
BRANCH  16  20
ATOM     20  C   UNL     1       3.200  -0.827   1.271  0.00  0.00    +0.322 C 
ATOM     21  OXT UNL     1       4.391  -0.911   1.523  0.00  0.00    -0.249 OA
BRANCH  20  22
ATOM     22  O   UNL     1       2.237  -1.473   1.979  0.00  0.00    -0.480 OA
ATOM     23  H   UNL     1       1.384  -1.243   1.530  0.00  0.00    +0.295 HD
ENDBRANCH  20  22
ENDBRANCH  16  20
ENDBRANCH  15  16
ENDBRANCH  14  15
ENDBRANCH  13  14
ENDBRANCH   1  13
TORSDOF 13
