REMARK  Name = 
REMARK  11 active torsions:
REMARK  status: ('A' for Active; 'I' for Inactive)
REMARK    1  A    between atoms: C_1  and  C_2
REMARK    2  A    between atoms: C_2  and  C_3
REMARK    3  A    between atoms: C_2  and  C_4
REMARK    4  A    between atoms: C_2  and  N_5
REMARK    5  A    between atoms: N_5  and  C_6
REMARK    6  A    between atoms: C_6  and  C_7
REMARK    7  A    between atoms: C_7  and  O_8
REMARK    8  A    between atoms: C_7  and  C_9
REMARK    9  A    between atoms: C_11  and  C_12
REMARK   10  A    between atoms: C_12  and  O_13
REMARK   11  A    between atoms: C_14  and  O_15
REMARK                            x       y       z     vdW  Elec       q    Type
REMARK                         _______ _______ _______ _____ _____    ______ ____
ROOT
ATOM      1  C   UNL     1       6.459   0.821   2.818  0.00  0.00    -0.017 A 
ATOM      2  C   UNL     1       7.194   1.976   3.106  0.00  0.00    +0.010 A 
ATOM      3  C   UNL     1       8.587   1.933   3.194  0.00  0.00    +0.046 A 
ATOM      4  C   UNL     1       9.260   0.732   2.990  0.00  0.00    +0.122 A 
ATOM      5  C   UNL     1       8.563  -0.447   2.687  0.00  0.00    +0.020 A 
ATOM      6  C   UNL     1       7.159  -0.385   2.610  0.00  0.00    +0.015 A 
ENDROOT
BRANCH   4   7
ATOM      7  O   UNL     1      10.623   0.761   3.108  0.00  0.00    -0.506 OA
ATOM      8  H   UNL     1      10.957  -0.131   2.877  0.00  0.00    +0.292 HD
ENDBRANCH   4   7
BRANCH   1   9
ATOM      9  C   UNL     1       4.940   0.885   2.719  0.00  0.00    +0.158 C 
BRANCH   9  10
ATOM     10  O   UNL     1       4.330  -0.002   3.668  0.00  0.00    -0.386 OA
ATOM     11  H   UNL     1       5.014  -0.598   4.011  0.00  0.00    +0.210 HD
ENDBRANCH   9  10
BRANCH   9  12
ATOM     12  C   UNL     1       4.454   0.501   1.299  0.00  0.00    +0.117 C 
BRANCH  12  13
ATOM     13  N   UNL     1       2.987   0.558   1.168  0.00  0.00    -0.309 NA
ATOM     14  H   UNL     1       2.587   0.047   1.960  0.00  0.00    +0.123 HD
BRANCH  13  16
ATOM     15  C   UNL     1       2.824  -1.430  -0.352  0.00  0.00    +0.027 C 
ATOM     16  C   UNL     1       2.448   0.043  -0.106  0.00  0.00    +0.011 C 
ATOM     17  C   UNL     1       0.912   0.132  -0.023  0.00  0.00    +0.027 C 
ATOM     18  C   UNL     1       2.916   0.912  -1.286  0.00  0.00    +0.027 C 
ENDBRANCH  13  16
ENDBRANCH  12  13
ENDBRANCH   9  12
ENDBRANCH   1   9
BRANCH   5  19
ATOM     19  C   UNL     1       9.242  -1.778   2.507  0.00  0.00    +0.194 C 
BRANCH  19  20
ATOM     20  O   UNL     1      10.561  -1.607   1.994  0.00  0.00    -0.390 OA
ATOM     21  H   UNL     1      10.456  -1.370   1.053  0.00  0.00    +0.210 HD
ENDBRANCH  19  20
ENDBRANCH   5  19
TORSDOF 8
