REMARK  Name = 
REMARK  11 active torsions:
REMARK  status: ('A' for Active; 'I' for Inactive)
REMARK    1  A    between atoms: O_1  and  C_2
REMARK    2  A    between atoms: C_2  and  C_3
REMARK    3  A    between atoms: C_3  and  O_5
REMARK    4  A    between atoms: C_3  and  C_6
REMARK    5  A    between atoms: C_6  and  O_8
REMARK    6  A    between atoms: C_6  and  C_9
REMARK    7  A    between atoms: C_9  and  O_11
REMARK    8  A    between atoms: C_9  and  C_12
REMARK    9  A    between atoms: C_12  and  O_14
REMARK   10  A    between atoms: C_12  and  C_15
REMARK   11  A    between atoms: C_15  and  O_16
REMARK                            x       y       z     vdW  Elec       q    Type
REMARK                         _______ _______ _______ _____ _____    ______ ____
ROOT
ATOM      1  C   UNL     1       8.421   2.809  -0.836  0.00  0.00    +0.176 C 
ENDROOT
BRANCH   1   2
ATOM      2  O   UNL     1       8.301   4.171  -1.283  0.00  0.00    -0.386 OA
ATOM      3  H   UNL     1       9.219   4.486  -1.415  0.00  0.00    +0.210 HD
ENDBRANCH   1   2
BRANCH   1   4
ATOM      4  C   UNL     1       9.492   2.125  -1.707  0.00  0.00    +0.171 C 
BRANCH   4   5
ATOM      5  O   UNL     1      10.732   2.823  -1.429  0.00  0.00    -0.387 OA
ATOM      6  H   UNL     1      11.047   2.465  -0.575  0.00  0.00    +0.210 HD
ENDBRANCH   4   5
BRANCH   4   7
ATOM      7  C   UNL     1       9.723   0.631  -1.470  0.00  0.00    +0.189 C 
BRANCH   7   8
ATOM      8  O   UNL     1      10.067   0.406  -0.101  0.00  0.00    -0.392 OA
ATOM      9  H   UNL     1      10.210  -0.555  -0.017  0.00  0.00    +0.210 HD
ENDBRANCH   7   8
ENDBRANCH   4   7
ENDBRANCH   1   4
BRANCH   1  10
ATOM     10  C   UNL     1       7.012   2.200  -0.720  0.00  0.00    +0.176 C 
BRANCH  10  11
ATOM     11  O   UNL     1       7.030   0.891  -0.123  0.00  0.00    -0.386 OA
ATOM     12  H   UNL     1       7.380   1.006   0.783  0.00  0.00    +0.210 HD
ENDBRANCH  10  11
BRANCH  10  13
ATOM     13  C   UNL     1       6.123   2.160  -1.977  0.00  0.00    +0.171 C 
BRANCH  13  14
ATOM     14  O   UNL     1       4.816   1.685  -1.564  0.00  0.00    -0.387 OA
ATOM     15  H   UNL     1       4.996   0.945  -0.946  0.00  0.00    +0.210 HD
ENDBRANCH  13  14
BRANCH  13  16
ATOM     16  C   UNL     1       6.556   1.211  -3.094  0.00  0.00    +0.189 C 
BRANCH  16  17
ATOM     17  O   UNL     1       5.619   1.276  -4.171  0.00  0.00    -0.392 OA
ATOM     18  H   UNL     1       4.739   1.318  -3.747  0.00  0.00    +0.210 HD
ENDBRANCH  16  17
ENDBRANCH  13  16
ENDBRANCH  10  13
ENDBRANCH   1  10
TORSDOF 11
