REMARK  Name = 
REMARK  2 active torsions:
REMARK  status: ('A' for Active; 'I' for Inactive)
REMARK    1  A    between atoms: N_2  and  C_4
REMARK    2  A    between atoms: C_13  and  C_14
REMARK                            x       y       z     vdW  Elec       q    Type
REMARK                         _______ _______ _______ _____ _____    ______ ____
ROOT
ATOM      1  C   UNL     1       2.910  -0.925  -0.780  0.00  0.00    +0.274 A 
ATOM      2  C   UNL     1       2.798  -2.285  -0.487  0.00  0.00    +0.086 A 
ATOM      3  C   UNL     1       3.424  -3.218  -1.313  0.00  0.00    +0.030 A 
ATOM      4  C   UNL     1       4.148  -2.807  -2.443  0.00  0.00    +0.043 A 
ATOM      5  N   UNL     1       4.668  -3.845  -3.231  0.00  0.00    -0.283 N 
ATOM      6  H   UNL     1       4.735  -4.780  -2.846  0.00  0.00    +0.155 HD
ATOM      7  C   UNL     1       4.888  -3.829  -4.583  0.00  0.00    +0.239 C 
ATOM      8  C   UNL     1       4.497  -2.579  -5.337  0.00  0.00    +0.238 C 
ATOM      9  N   UNL     1       5.353  -1.472  -4.944  0.00  0.00    -0.273 NA
ATOM     10  C   UNL     1       5.231  -0.926  -3.785  0.00  0.00    +0.077 C 
ATOM     11  O   UNL     1       5.283  -4.854  -5.140  0.00  0.00    -0.273 OA
ATOM     12  C   UNL     1       4.305  -1.430  -2.711  0.00  0.00    +0.028 A 
ATOM     13  C   UNL     1       3.660  -0.491  -1.885  0.00  0.00    +0.096 A 
ENDROOT
BRANCH  10  14
ATOM     14  C   UNL     1       6.112   0.266  -3.505  0.00  0.00    +0.019 A 
ATOM     15  C   UNL     1       6.400   1.239  -4.482  0.00  0.00    +0.050 A 
ATOM     16 CL   UNL     1       5.716   1.250  -6.072  0.00  0.00    -0.083 Cl
ATOM     17  C   UNL     1       7.243   2.316  -4.174  0.00  0.00    +0.020 A 
ATOM     18  C   UNL     1       7.789   2.447  -2.899  0.00  0.00    +0.001 A 
ATOM     19  C   UNL     1       7.514   1.490  -1.927  0.00  0.00    +0.001 A 
ATOM     20  C   UNL     1       6.697   0.396  -2.232  0.00  0.00    +0.011 A 
ENDBRANCH  10  14
BRANCH   1  22
ATOM     21  O   UNL     1       2.442   1.258  -0.154  0.00  0.00    -0.576 OA
ATOM     22  N   UNL     1       2.257   0.059   0.095  0.00  0.00    +0.080 N 
ATOM     23  O   UNL     1       1.572  -0.370   1.032  0.00  0.00    +0.041 OA
ENDBRANCH   1  22
TORSDOF 2
