REMARK  Name = 
REMARK  7 active torsions:
REMARK  status: ('A' for Active; 'I' for Inactive)
REMARK    1  A    between atoms: C_1  and  O_2
REMARK    2  A    between atoms: O_2  and  N_3
REMARK    3  A    between atoms: C_8  and  C_9
REMARK    4  A    between atoms: C_9  and  N_10
REMARK    5  A    between atoms: C_20  and  C_26
REMARK    6  A    between atoms: N_22  and  C_23
REMARK    7  A    between atoms: C_26  and  O_27
REMARK                            x       y       z     vdW  Elec       q    Type
REMARK                         _______ _______ _______ _____ _____    ______ ____
ROOT
ATOM      1  N   UNL     1       5.335  -0.005  -3.701  0.00  0.00    -0.092 NA
ATOM      2  C   UNL     1       5.796  -0.016  -2.487  0.00  0.00    +0.080 C 
ATOM      3  C   UNL     1       6.671  -1.136  -1.989  0.00  0.00    +0.069 C 
ATOM      4  C   UNL     1       7.241  -0.543  -0.698  0.00  0.00    +0.117 C 
ATOM      5  N   UNL     1       6.496   0.682  -0.382  0.00  0.00    -0.307 N 
ATOM      6  C   UNL     1       7.142   1.709   0.299  0.00  0.00    +0.159 A 
ATOM      7  C   UNL     1       8.157   1.437   1.232  0.00  0.00    +0.164 A 
ATOM      8  F   UNL     1       8.539   0.180   1.511  0.00  0.00    -0.202 F 
ATOM      9  C   UNL     1       8.803   2.461   1.900  0.00  0.00    +0.057 A 
ATOM     10  C   UNL     1       8.417   3.767   1.633  0.00  0.00    +0.068 A 
ATOM     11  C   UNL     1       9.074   4.877   2.347  0.00  0.00    +0.205 A 
ATOM     12  C   UNL     1       8.598   6.252   2.108  0.00  0.00    +0.122 A 
ATOM     13  C   UNL     1       7.638   6.402   1.186  0.00  0.00    +0.106 A 
ATOM     14  N   UNL     1       7.072   5.384   0.434  0.00  0.00    -0.328 N 
ATOM     15  O   UNL     1       9.992   4.668   3.140  0.00  0.00    -0.286 OA
ATOM     16  C   UNL     1       7.406   4.021   0.704  0.00  0.00    +0.147 A 
ATOM     17  N   UNL     1       6.771   2.997   0.061  0.00  0.00    -0.211 NA
ATOM     18  C   UNL     1       5.498   0.994  -1.400  0.00  0.00    +0.161 C 
ENDROOT
BRANCH  14  19
ATOM     19  C   UNL     1       6.003   5.720  -0.522  0.00  0.00    +0.089 C 
ATOM     20  C   UNL     1       6.048   5.278  -1.963  0.00  0.00    +0.027 C 
ATOM     21  C   UNL     1       6.218   6.727  -1.630  0.00  0.00    +0.027 C 
ENDBRANCH  14  19
BRANCH   1  23
ATOM     22  C   UNL     1       4.070   1.104  -5.257  0.00  0.00    +0.313 C 
ATOM     23  O   UNL     1       4.519   1.115  -3.907  0.00  0.00    -0.397 OA
ENDBRANCH   1  23
BRANCH  12  24
ATOM     24  C   UNL     1       9.121   7.427   2.835  0.00  0.00    +0.342 C 
ATOM     25  O   UNL     1       8.709   8.564   2.651  0.00  0.00    -0.245 OA
BRANCH  24  26
ATOM     26  O   UNL     1      10.097   7.150   3.725  0.00  0.00    -0.477 OA
ATOM     27  H   UNL     1      10.344   6.194   3.782  0.00  0.00    +0.295 HD
ENDBRANCH  24  26
ENDBRANCH  12  24
BRANCH   3  28
ATOM     28  C   UNL     1       7.755  -1.538  -2.988  0.00  0.00    +0.088 C 
BRANCH  28  29
ATOM     29  N   UNL     1       8.627  -2.594  -2.467  0.00  0.00    -0.329 NA
ATOM     30  H   UNL     1       9.321  -2.833  -3.177  0.00  0.00    +0.118 HD
ATOM     31  H   UNL     1       9.162  -2.266  -1.665  0.00  0.00    +0.118 HD
ENDBRANCH  28  29
ENDBRANCH   3  28
TORSDOF 6
