REMARK  Name = 
REMARK  1 active torsions:
REMARK  status: ('A' for Active; 'I' for Inactive)
REMARK    1  A    between atoms: C_14  and  C_15
REMARK                            x       y       z     vdW  Elec       q    Type
REMARK                         _______ _______ _______ _____ _____    ______ ____
ROOT
ATOM      1 CL   UNL     1       1.261  -1.083   0.191  0.00  0.00    -0.084 Cl
ATOM      2  C   UNL     1       2.948  -0.723   0.236  0.00  0.00    +0.041 A 
ATOM      3  C   UNL     1       3.881  -1.729   0.129  0.00  0.00    +0.022 A 
ATOM      4  C   UNL     1       5.226  -1.387   0.020  0.00  0.00    +0.025 A 
ATOM      5  C   UNL     1       5.661  -0.039  -0.082  0.00  0.00    +0.041 A 
ATOM      6  N   UNL     1       6.992   0.089  -0.483  0.00  0.00    -0.284 N 
ATOM      7  H   UNL     1       7.473  -0.780  -0.697  0.00  0.00    +0.155 HD
ATOM      8  C   UNL     1       7.741   1.128  -0.879  0.00  0.00    +0.231 C 
ATOM      9  C   UNL     1       7.485   2.558  -0.475  0.00  0.00    +0.184 C 
ATOM     10  N   UNL     1       6.170   3.125  -0.639  0.00  0.00    -0.256 NA
ATOM     11  C   UNL     1       4.916   2.458  -0.285  0.00  0.00    +0.179 C 
ATOM     12  O   UNL     1       4.145   2.460  -1.549  0.00  0.00    -0.349 OA
ATOM     13  C   UNL     1       5.090   2.759  -2.582  0.00  0.00    +0.178 C 
ATOM     14  C   UNL     1       5.916   3.802  -1.899  0.00  0.00    +0.116 C 
ATOM     15  O   UNL     1       8.773   0.857  -1.504  0.00  0.00    -0.274 OA
ATOM     16  C   UNL     1       4.736   0.994   0.051  0.00  0.00    +0.026 A 
ATOM     17  C   UNL     1       3.371   0.592   0.258  0.00  0.00    +0.030 A 
ENDROOT
BRANCH  11  18
ATOM     18  C   UNL     1       4.252   3.404   0.749  0.00  0.00    +0.022 A 
ATOM     19  C   UNL     1       4.809   3.628   2.028  0.00  0.00    +0.049 A 
ATOM     20 CL   UNL     1       6.078   2.662   2.690  0.00  0.00    -0.083 Cl
ATOM     21  C   UNL     1       4.344   4.677   2.833  0.00  0.00    +0.020 A 
ATOM     22  C   UNL     1       3.285   5.475   2.411  0.00  0.00    +0.001 A 
ATOM     23  C   UNL     1       2.657   5.209   1.200  0.00  0.00    +0.000 A 
ATOM     24  C   UNL     1       3.137   4.184   0.377  0.00  0.00    +0.009 A 
ENDBRANCH  11  18
TORSDOF 1
