REMARK  Name = 
REMARK  8 active torsions:
REMARK  status: ('A' for Active; 'I' for Inactive)
REMARK    1  A    between atoms: C_1  and  C_2
REMARK    2  A    between atoms: C_2  and  C_3
REMARK    3  A    between atoms: C_3  and  O_4
REMARK    4  A    between atoms: O_4  and  C_5
REMARK    5  A    between atoms: C_7  and  C_13
REMARK    6  A    between atoms: C_10  and  O_11
REMARK    7  A    between atoms: O_11  and  C_12
REMARK    8  A    between atoms: C_13  and  C_14
REMARK                            x       y       z     vdW  Elec       q    Type
REMARK                         _______ _______ _______ _____ _____    ______ ____
ROOT
ATOM      1  C   UNL     1      10.476  -3.422   1.200  0.00  0.00    +0.162 A 
ATOM      2  C   UNL     1      11.258  -2.298   0.901  0.00  0.00    +0.162 A 
ATOM      3  C   UNL     1      11.114  -1.135   1.673  0.00  0.00    +0.050 A 
ATOM      4  C   UNL     1      10.167  -1.052   2.698  0.00  0.00    +0.011 A 
ATOM      5  C   UNL     1       9.341  -2.143   2.981  0.00  0.00    +0.001 A 
ATOM      6  C   UNL     1       9.533  -3.320   2.239  0.00  0.00    +0.057 A 
ENDROOT
BRANCH   5   7
ATOM      7  C   UNL     1       8.246  -2.101   4.049  0.00  0.00    +0.153 C 
ATOM      8  C   UNL     1       8.575  -3.048   5.207  0.00  0.00    +0.063 C 
ATOM      9  O   UNL     1       8.096  -0.766   4.578  0.00  0.00    -0.438 OA
ATOM     10  C   UNL     1       7.058  -0.160   3.925  0.00  0.00    +0.401 C 
ATOM     11  O   UNL     1       6.744   1.009   4.048  0.00  0.00    -0.226 OA
ATOM     12  N   UNL     1       6.393  -1.075   3.156  0.00  0.00    -0.277 N 
ATOM     13  H   UNL     1       5.501  -0.830   2.750  0.00  0.00    +0.152 HD
ATOM     14  C   UNL     1       6.851  -2.383   3.477  0.00  0.00    +0.160 C 
ENDBRANCH   5   7
BRANCH   2  15
ATOM     15  O   UNL     1      12.223  -2.181  -0.064  0.00  0.00    -0.491 OA
ATOM     16  C   UNL     1      12.037  -2.922  -1.262  0.00  0.00    +0.277 C 
ENDBRANCH   2  15
BRANCH   1  17
ATOM     17  O   UNL     1      10.667  -4.587   0.490  0.00  0.00    -0.488 OA
BRANCH  17  18
ATOM     18  C   UNL     1       9.795  -5.670   0.833  0.00  0.00    +0.229 C 
BRANCH  18  20
ATOM     19  C   UNL     1       9.118  -8.016   0.331  0.00  0.00    +0.007 C 
ATOM     20  C   UNL     1      10.041  -6.873  -0.065  0.00  0.00    +0.038 C 
ENDBRANCH  18  20
ENDBRANCH  17  18
ENDBRANCH   1  17
TORSDOF 5
