REMARK  Name = 
REMARK  8 active torsions:
REMARK  status: ('A' for Active; 'I' for Inactive)
REMARK    1  A    between atoms: C_1  and  C_2
REMARK    2  A    between atoms: C_2  and  O_3
REMARK    3  A    between atoms: C_2  and  P_4
REMARK    4  A    between atoms: C_2  and  P_8
REMARK    5  A    between atoms: P_4  and  O_5
REMARK    6  A    between atoms: P_4  and  O_6
REMARK    7  A    between atoms: P_8  and  O_9
REMARK    8  A    between atoms: P_8  and  O_10
REMARK                            x       y       z     vdW  Elec       q    Type
REMARK                         _______ _______ _______ _____ _____    ______ ____
ROOT
ATOM      1  C   UNL     1       1.070  -0.010   0.089  0.00  0.00    +0.068 C 
ATOM      2  C   UNL     1       2.605  -0.052   0.012  0.00  0.00    +0.264 C 
ENDROOT
BRANCH   2   3
ATOM      3  P   UNL     1       3.215  -1.550  -0.843  0.00  0.00    +0.371 P 
ATOM      4  O   UNL     1       3.731  -2.818  -1.567  0.00  0.00    -0.255 OA
BRANCH   3   5
ATOM      5  O   UNL     1       4.456  -0.607  -1.438  0.00  0.00    -0.322 OA
ATOM      6  H   UNL     1       4.084   0.227  -1.790  0.00  0.00    +0.220 HD
ENDBRANCH   3   5
BRANCH   3   7
ATOM      7  O   UNL     1       2.238  -1.220  -2.133  0.00  0.00    -0.322 OA
ATOM      8  H   UNL     1       2.552  -1.838  -2.831  0.00  0.00    +0.220 HD
ENDBRANCH   3   7
ENDBRANCH   2   3
BRANCH   2   9
ATOM      9  P   UNL     1       3.215  -0.044   1.738  0.00  0.00    +0.371 P 
ATOM     10  O   UNL     1       3.731  -0.037   3.197  0.00  0.00    -0.255 OA
BRANCH   9  11
ATOM     11  O   UNL     1       4.439   0.951   1.245  0.00  0.00    -0.322 OA
ATOM     12  H   UNL     1       4.717   0.852   0.307  0.00  0.00    +0.220 HD
ENDBRANCH   9  11
BRANCH   9  13
ATOM     13  O   UNL     1       4.020  -1.444   1.507  0.00  0.00    -0.322 OA
ATOM     14  H   UNL     1       4.629  -1.516   2.283  0.00  0.00    +0.220 HD
ENDBRANCH   9  13
ENDBRANCH   2   9
BRANCH   2  15
ATOM     15  O   UNL     1       3.037   1.147  -0.731  0.00  0.00    -0.367 OA
ATOM     16  H   UNL     1       2.505   1.900  -0.404  0.00  0.00    +0.212 HD
ENDBRANCH   2  15
TORSDOF 7
