REMARK  Name = 
REMARK  11 active torsions:
REMARK  status: ('A' for Active; 'I' for Inactive)
REMARK    1  A    between atoms: C_1  and  C_2
REMARK    2  A    between atoms: C_2  and  C_3
REMARK    3  A    between atoms: C_2  and  C_4
REMARK    4  A    between atoms: C_2  and  N_5
REMARK    5  A    between atoms: N_5  and  C_6
REMARK    6  A    between atoms: C_6  and  C_7
REMARK    7  A    between atoms: C_7  and  O_9
REMARK    8  A    between atoms: C_7  and  C_10
REMARK    9  A    between atoms: C_10  and  O_11
REMARK   10  A    between atoms: O_11  and  C_12
REMARK   11  A    between atoms: C_17  and  C_18
REMARK                            x       y       z     vdW  Elec       q    Type
REMARK                         _______ _______ _______ _____ _____    ______ ____
ROOT
ATOM      1  O   UNL     1       7.139  -3.974   0.981  0.00  0.00    -0.489 OA
ENDROOT
BRANCH   1   2
ATOM      2  C   UNL     1       8.500  -4.153   0.925  0.00  0.00    +0.124 A 
ATOM      3  C   UNL     1       8.976  -5.429   0.549  0.00  0.00    -0.003 A 
ATOM      4  C   UNL     1      10.370  -5.619   0.477  0.00  0.00    +0.007 A 
ATOM      5  C   UNL     1      11.262  -4.600   0.812  0.00  0.00    +0.001 A 
ATOM      6  C   UNL     1      10.780  -3.365   1.220  0.00  0.00    +0.004 A 
ATOM      7  C   UNL     1       9.406  -3.141   1.278  0.00  0.00    +0.046 A 
BRANCH   3   8
ATOM      8  C   UNL     1       8.011  -6.551   0.196  0.00  0.00    +0.023 C 
ATOM      9  C   UNL     1       7.093  -6.975   1.359  0.00  0.00    +0.008 C 
ATOM     10  C   UNL     1       6.767  -8.456   1.145  0.00  0.00    +0.001 C 
ATOM     11  C   UNL     1       7.448  -8.855  -0.154  0.00  0.00    +0.001 C 
ATOM     12  C   UNL     1       8.616  -7.890  -0.257  0.00  0.00    +0.008 C 
ENDBRANCH   3   8
ENDBRANCH   1   2
BRANCH   1  13
ATOM     13  C   UNL     1       6.667  -2.668   0.623  0.00  0.00    +0.261 C 
BRANCH  13  14
ATOM     14  C   UNL     1       5.128  -2.620   0.675  0.00  0.00    +0.166 C 
BRANCH  14  15
ATOM     15  O   UNL     1       4.554  -3.520  -0.286  0.00  0.00    -0.387 OA
ATOM     16  H   UNL     1       5.158  -3.578  -1.045  0.00  0.00    +0.210 HD
ENDBRANCH  14  15
BRANCH  14  17
ATOM     17  C   UNL     1       4.539  -2.964   2.063  0.00  0.00    +0.116 C 
BRANCH  17  18
ATOM     18  N   UNL     1       5.043  -2.105   3.148  0.00  0.00    -0.309 NA
ATOM     19  H   UNL     1       6.052  -2.245   3.217  0.00  0.00    +0.123 HD
BRANCH  18  21
ATOM     20  C   UNL     1       4.761  -3.796   4.971  0.00  0.00    +0.027 C 
ATOM     21  C   UNL     1       4.470  -2.365   4.487  0.00  0.00    +0.011 C 
ATOM     22  C   UNL     1       5.171  -1.384   5.452  0.00  0.00    +0.027 C 
ATOM     23  C   UNL     1       2.960  -2.085   4.539  0.00  0.00    +0.027 C 
ENDBRANCH  18  21
ENDBRANCH  17  18
ENDBRANCH  14  17
ENDBRANCH  13  14
ENDBRANCH   1  13
TORSDOF 8
