REMARK  Name = 
REMARK  16 active torsions:
REMARK  status: ('A' for Active; 'I' for Inactive)
REMARK    1  A    between atoms: C_1  and  O_2
REMARK    2  A    between atoms: O_2  and  C_3
REMARK    3  A    between atoms: C_3  and  C_4
REMARK    4  A    between atoms: C_4  and  O_6
REMARK    5  A    between atoms: O_6  and  C_7
REMARK    6  A    between atoms: C_7  and  C_8
REMARK    7  A    between atoms: C_8  and  C_9
REMARK    8  A    between atoms: C_9  and  N_10
REMARK    9  A    between atoms: N_10  and  C_11
REMARK   10  A    between atoms: N_10  and  C_12
REMARK   11  A    between atoms: C_12  and  C_13
REMARK   12  A    between atoms: C_13  and  C_14
REMARK   13  A    between atoms: C_14  and  C_15
REMARK   14  A    between atoms: C_33  and  C_35
REMARK   15  A    between atoms: C_35  and  C_36
REMARK   16  A    between atoms: C_35  and  C_37
REMARK                            x       y       z     vdW  Elec       q    Type
REMARK                         _______ _______ _______ _____ _____    ______ ____
ROOT
ATOM      1  C   UNL     1       6.505  -1.247  -1.933  0.00  0.00    +0.122 C 
ATOM      2  C   UNL     1       7.094  -0.027  -1.103  0.00  0.00    +0.066 C 
ATOM      3  C   UNL     1       8.617  -0.166  -1.002  0.00  0.00    -0.037 A 
ATOM      4  C   UNL     1       9.422   0.988  -0.951  0.00  0.00    +0.007 A 
ATOM      5  C   UNL     1      10.799   0.891  -0.764  0.00  0.00    +0.038 A 
ATOM      6  C   UNL     1      11.386  -0.360  -0.673  0.00  0.00    +0.124 A 
ATOM      7  C   UNL     1      10.621  -1.516  -0.769  0.00  0.00    +0.042 A 
ATOM      8  F   UNL     1      12.711  -0.458  -0.504  0.00  0.00    -0.205 F 
ATOM      9  C   UNL     1       9.228  -1.432  -0.928  0.00  0.00    -0.041 A 
ATOM     10  C   UNL     1       8.456  -2.711  -1.107  0.00  0.00    +0.039 C 
ATOM     11  C   UNL     1       6.939  -2.547  -1.212  0.00  0.00    +0.053 C 
ENDROOT
BRANCH   2  12
ATOM     12  C   UNL     1       6.493   0.194   0.351  0.00  0.00    -0.006 C 
ATOM     13  C   UNL     1       4.967   0.336   0.397  0.00  0.00    +0.008 C 
ATOM     14  C   UNL     1       7.060   1.443   1.055  0.00  0.00    +0.008 C 
ENDBRANCH   2  12
BRANCH   1  15
ATOM     15  O   UNL     1       5.055  -1.041  -2.038  0.00  0.00    -0.456 OA
BRANCH  15  16
ATOM     16  C   UNL     1       4.095  -1.972  -1.753  0.00  0.00    +0.334 C 
ATOM     17  O   UNL     1       4.293  -3.118  -1.376  0.00  0.00    -0.248 OA
BRANCH  16  18
ATOM     18  C   UNL     1       2.715  -1.343  -1.955  0.00  0.00    +0.279 C 
BRANCH  18  20
ATOM     19  C   UNL     1       0.387  -1.591  -1.600  0.00  0.00    +0.194 C 
ATOM     20  O   UNL     1       1.671  -2.178  -1.452  0.00  0.00    -0.372 OA
ENDBRANCH  18  20
ENDBRANCH  16  18
ENDBRANCH  15  16
ENDBRANCH   1  15
BRANCH   1  21
ATOM     21  C   UNL     1       7.031  -1.206  -3.416  0.00  0.00    +0.064 C 
BRANCH  21  22
ATOM     22  C   UNL     1       6.419  -2.312  -4.303  0.00  0.00    +0.088 C 
BRANCH  22  23
ATOM     23  N   UNL     1       6.808  -2.299  -5.730  0.00  0.00    -0.305 NA
ATOM     24  C   UNL     1       8.257  -2.476  -5.902  0.00  0.00    +0.104 C 
BRANCH  23  25
ATOM     25  C   UNL     1       6.112  -3.375  -6.479  0.00  0.00    +0.084 C 
BRANCH  25  26
ATOM     26  C   UNL     1       4.584  -3.231  -6.510  0.00  0.00    +0.023 C 
BRANCH  26  27
ATOM     27  C   UNL     1       3.919  -4.398  -7.241  0.00  0.00    +0.075 C 
BRANCH  27  28
ATOM     28  C   UNL     1       2.434  -4.271  -7.198  0.00  0.00    +0.108 A 
ATOM     29  N   UNL     1       1.670  -4.837  -6.204  0.00  0.00    -0.342 N 
ATOM     30  H   UNL     1       2.017  -5.373  -5.422  0.00  0.00    +0.167 HD
ATOM     31  C   UNL     1       0.352  -4.561  -6.464  0.00  0.00    +0.066 A 
ATOM     32  C   UNL     1       0.387  -3.796  -7.624  0.00  0.00    +0.089 A 
ATOM     33  C   UNL     1      -0.815  -3.334  -8.178  0.00  0.00    +0.030 A 
ATOM     34  C   UNL     1      -2.020  -3.675  -7.549  0.00  0.00    +0.002 A 
ATOM     35  C   UNL     1      -2.024  -4.450  -6.386  0.00  0.00    +0.002 A 
ATOM     36  C   UNL     1      -0.833  -4.907  -5.810  0.00  0.00    +0.028 A 
ATOM     37  N   UNL     1       1.678  -3.620  -8.058  0.00  0.00    -0.232 NA
ENDBRANCH  27  28
ENDBRANCH  26  27
ENDBRANCH  25  26
ENDBRANCH  23  25
ENDBRANCH  22  23
ENDBRANCH  21  22
ENDBRANCH   1  21
TORSDOF 12
