REMARK  Name = 
REMARK  13 active torsions:
REMARK  status: ('A' for Active; 'I' for Inactive)
REMARK    1  A    between atoms: N_10  and  C_11
REMARK    2  A    between atoms: C_14  and  C_16
REMARK    3  A    between atoms: C_16  and  O_17
REMARK    4  A    between atoms: O_17  and  P_18
REMARK    5  A    between atoms: P_18  and  O_19
REMARK    6  A    between atoms: P_18  and  O_21
REMARK    7  A    between atoms: O_21  and  P_22
REMARK    8  A    between atoms: P_22  and  O_23
REMARK    9  A    between atoms: P_22  and  O_25
REMARK   10  A    between atoms: O_25  and  P_26
REMARK   11  A    between atoms: P_26  and  O_27
REMARK   12  A    between atoms: P_26  and  O_28
REMARK   13  A    between atoms: C_31  and  O_33
REMARK                            x       y       z     vdW  Elec       q    Type
REMARK                         _______ _______ _______ _____ _____    ______ ____
ROOT
ATOM      1  C   UNL     1      20.155   2.413  -0.335  0.00  0.00    +0.251 C 
ATOM      2  C   UNL     1      19.011   3.358   0.045  0.00  0.00    +0.167 C 
ATOM      3  C   UNL     1      18.128   2.547   0.979  0.00  0.00    +0.070 C 
ATOM      4  C   UNL     1      18.733   1.148   0.982  0.00  0.00    +0.150 C 
ATOM      5  O   UNL     1      20.109   1.320   0.601  0.00  0.00    -0.348 OA
ENDROOT
BRANCH   1  13
ATOM      6  N   UNL     1      25.470   5.039  -1.488  0.00  0.00    -0.341 N 
ATOM      7  H   UNL     1      25.641   5.112  -0.491  0.00  0.00    +0.144 HD
ATOM      8  H   UNL     1      25.811   5.779  -2.087  0.00  0.00    +0.144 HD
ATOM      9  C   UNL     1      24.175   4.649  -1.802  0.00  0.00    +0.147 A 
ATOM     10  C   UNL     1      23.333   4.013  -0.895  0.00  0.00    +0.147 A 
ATOM     11  N   UNL     1      23.478   3.640   0.436  0.00  0.00    -0.231 NA
ATOM     12  C   UNL     1      22.345   3.046   0.753  0.00  0.00    +0.203 A 
ATOM     13  N   UNL     1      21.468   3.023  -0.300  0.00  0.00    -0.286 N 
ATOM     14  C   UNL     1      22.068   3.658  -1.357  0.00  0.00    +0.167 A 
ATOM     15  N   UNL     1      21.551   3.885  -2.579  0.00  0.00    -0.216 NA
ATOM     16  C   UNL     1      22.451   4.525  -3.358  0.00  0.00    +0.225 A 
ATOM     17  N   UNL     1      23.705   4.924  -3.041  0.00  0.00    -0.219 NA
ENDBRANCH   1  13
BRANCH   2  18
ATOM     18  O   UNL     1      18.250   3.745  -1.097  0.00  0.00    -0.387 OA
ATOM     19  H   UNL     1      17.647   4.460  -0.823  0.00  0.00    +0.210 HD
ENDBRANCH   2  18
BRANCH   4  20
ATOM     20  C   UNL     1      18.021   0.209   0.001  0.00  0.00    +0.204 C 
BRANCH  20  21
ATOM     21  O   UNL     1      18.589  -1.104   0.066  0.00  0.00    -0.284 OA
BRANCH  21  22
ATOM     22  P   UNL     1      17.836  -2.208  -1.032  0.00  0.00    +0.483 P 
ATOM     23  O   UNL     1      16.583  -2.201  -0.162  0.00  0.00    -0.227 OA
BRANCH  22  24
ATOM     24  O   UNL     1      18.944  -3.263  -0.484  0.00  0.00    -0.302 OA
ATOM     25  H   UNL     1      19.818  -3.162  -0.908  0.00  0.00    +0.222 HD
ENDBRANCH  22  24
BRANCH  22  26
ATOM     26  O   UNL     1      17.082  -3.313  -2.130  0.00  0.00    -0.186 OA
BRANCH  26  27
ATOM     27  P   UNL     1      16.993  -4.758  -1.415  0.00  0.00    +0.492 P 
ATOM     28  O   UNL     1      16.550  -4.928   0.001  0.00  0.00    -0.226 OA
BRANCH  27  29
ATOM     29  O   UNL     1      16.055  -5.626  -2.374  0.00  0.00    -0.302 OA
ATOM     30  H   UNL     1      15.145  -5.604  -2.007  0.00  0.00    +0.222 HD
ENDBRANCH  27  29
BRANCH  27  31
ATOM     31  O   UNL     1      18.478  -5.270  -1.677  0.00  0.00    -0.186 OA
BRANCH  31  32
ATOM     32  P   UNL     1      18.806  -6.833  -1.010  0.00  0.00    +0.481 P 
ATOM     33  O   UNL     1      19.099  -8.231  -0.414  0.00  0.00    -0.227 OA
BRANCH  32  34
ATOM     34  O   UNL     1      20.067  -6.088  -0.260  0.00  0.00    -0.302 OA
ATOM     35  H   UNL     1      19.769  -5.673   0.573  0.00  0.00    +0.222 HD
ENDBRANCH  32  34
BRANCH  32  36
ATOM     36  O   UNL     1      19.662  -7.091  -2.384  0.00  0.00    -0.302 OA
ATOM     37  H   UNL     1      20.599  -7.107  -2.117  0.00  0.00    +0.222 HD
ENDBRANCH  32  36
ENDBRANCH  31  32
ENDBRANCH  27  31
ENDBRANCH  26  27
ENDBRANCH  22  26
ENDBRANCH  21  22
ENDBRANCH  20  21
ENDBRANCH   4  20
TORSDOF 13
