REMARK  Name = 
REMARK  6 active torsions:
REMARK  status: ('A' for Active; 'I' for Inactive)
REMARK    1  A    between atoms: N_1  and  CA_2
REMARK    2  A    between atoms: CA_2  and  C_4
REMARK    3  A    between atoms: CA_2  and  C_13
REMARK    4  A    between atoms: C_4  and  N_5
REMARK    5  A    between atoms: C_10  and  O_11
REMARK    6  A    between atoms: C_13  and  O_14
REMARK                            x       y       z     vdW  Elec       q    Type
REMARK                         _______ _______ _______ _____ _____    ______ ____
ROOT
ATOM      1  C   UNL     1       3.068  -0.324   1.484  0.00  0.00    +0.151 C 
ENDROOT
BRANCH   1   2
ATOM      2  N   UNL     1       2.642   0.788   2.368  0.00  0.00    -0.348 N 
ATOM      3  C   UNL     1       3.399   1.956   2.447  0.00  0.00    +0.135 A 
ATOM      4  C   UNL     1       3.079   3.018   3.197  0.00  0.00    +0.180 A 
ATOM      5  C   UNL     1       1.820   2.946   3.998  0.00  0.00    +0.223 A 
ATOM      6  O   UNL     1       1.468   3.902   4.685  0.00  0.00    -0.284 OA
ATOM      7  C   UNL     1       1.036   1.691   3.930  0.00  0.00    +0.072 A 
ATOM      8  C   UNL     1       1.489   0.708   3.142  0.00  0.00    +0.089 A 
BRANCH   4   9
ATOM      9  O   UNL     1       3.849   4.158   3.257  0.00  0.00    -0.502 OA
ATOM     10  H   UNL     1       3.374   4.747   3.881  0.00  0.00    +0.292 HD
ENDBRANCH   4   9
ENDBRANCH   1   2
BRANCH   1  11
ATOM     11  CA  UNL     1       2.540  -0.127   0.049  0.00  0.00    +0.180 C 
BRANCH  11  12
ATOM     12  N   UNL     1       1.043  -0.064  -0.066  0.00  0.00    -0.317 NA
ATOM     13  H1  UNL     1       0.651  -0.817   0.510  0.00  0.00    +0.119 HD
ATOM     14  H2  UNL     1       0.758   0.789   0.434  0.00  0.00    +0.119 HD
ENDBRANCH  11  12
BRANCH  11  15
ATOM     15  C   UNL     1       3.035  -1.267  -0.844  0.00  0.00    +0.323 C 
ATOM     16  OXT UNL     1       4.101  -1.848  -0.727  0.00  0.00    -0.249 OA
BRANCH  15  17
ATOM     17  O   UNL     1       2.133  -1.546  -1.823  0.00  0.00    -0.479 OA
ATOM     18  H   UNL     1       1.355  -0.955  -1.662  0.00  0.00    +0.295 HD
ENDBRANCH  15  17
ENDBRANCH  11  15
ENDBRANCH   1  11
TORSDOF 6
