REMARK  Name = 
REMARK  5 active torsions:
REMARK  status: ('A' for Active; 'I' for Inactive)
REMARK    1  A    between atoms: O_1  and  N_2
REMARK    2  A    between atoms: C_3  and  C_5
REMARK    3  A    between atoms: C_5  and  C_6
REMARK    4  A    between atoms: C_6  and  C_7
REMARK    5  A    between atoms: C_7  and  P_8
REMARK                            x       y       z     vdW  Elec       q    Type
REMARK                         _______ _______ _______ _____ _____    ______ ____
ROOT
ATOM      1  C   UNL     1       4.549  -1.249   0.489  0.00  0.00    +0.098 C 
ENDROOT
BRANCH   1   4
ATOM      2  N   UNL     1       2.645  -1.353   1.945  0.00  0.00    -0.197 N 
ATOM      3  H   UNL     1       3.331  -1.180   2.686  0.00  0.00    +0.182 HD
ATOM      4  C   UNL     1       3.042  -1.227   0.632  0.00  0.00    +0.235 C 
ATOM      5  O   UNL     1       2.280  -1.107  -0.326  0.00  0.00    -0.274 OA
BRANCH   2   6
ATOM      6  O   UNL     1       1.264  -1.260   2.221  0.00  0.00    -0.295 OA
ATOM      7  H   UNL     1       1.260  -0.665   2.989  0.00  0.00    +0.241 HD
ENDBRANCH   2   6
ENDBRANCH   1   4
BRANCH   1   8
ATOM      8  C   UNL     1       5.120  -2.573   0.998  0.00  0.00    +0.017 C 
BRANCH   8   9
ATOM      9  C   UNL     1       6.641  -2.605   0.997  0.00  0.00    +0.070 C 
BRANCH   9  10
ATOM     10  P   UNL     1       7.405  -1.268   2.077  0.00  0.00    +0.109 P 
ATOM     11  O   UNL     1       6.356  -1.100   3.175  0.00  0.00    -0.461 OA
ATOM     12  O   UNL     1       7.508  -0.101   1.107  0.00  0.00    -0.358 OA
ATOM     13  O   UNL     1       8.721  -1.900   2.496  0.00  0.00    -0.358 OA
ENDBRANCH   9  10
ENDBRANCH   8   9
ENDBRANCH   1   8
TORSDOF 5
