REMARK  Name = 
REMARK  3 active torsions:
REMARK  status: ('A' for Active; 'I' for Inactive)
REMARK    1  A    between atoms: O_1  and  C_2
REMARK    2  A    between atoms: C_3  and  C_4
REMARK    3  A    between atoms: C_8  and  C_12
REMARK                            x       y       z     vdW  Elec       q    Type
REMARK                         _______ _______ _______ _____ _____    ______ ____
ROOT
ATOM      1  C   UNL     1       4.163  -1.748   1.239  0.00  0.00    +0.171 C 
ATOM      2  C   UNL     1       4.904  -0.848   2.187  0.00  0.00    +0.228 C 
ATOM      3  O   UNL     1       5.941  -1.205   2.743  0.00  0.00    -0.283 OA
ATOM      4  C   UNL     1       4.375   0.496   2.442  0.00  0.00    +0.036 A 
ATOM      5  C   UNL     1       3.243   0.937   1.776  0.00  0.00    +0.033 A 
ATOM      6  C   UNL     1       2.801   2.261   1.936  0.00  0.00    +0.012 A 
ATOM      7  C   UNL     1       3.462   3.120   2.813  0.00  0.00    +0.001 A 
ATOM      8  C   UNL     1       4.558   2.659   3.539  0.00  0.00    +0.001 A 
ATOM      9  C   UNL     1       2.466   0.005   0.954  0.00  0.00    +0.194 C 
ATOM     10  O   UNL     1       1.396   0.392   0.492  0.00  0.00    -0.287 OA
ATOM     11  C   UNL     1       5.023   1.356   3.344  0.00  0.00    +0.012 A 
ATOM     12  C   UNL     1       2.973  -1.395   0.707  0.00  0.00    +0.048 C 
ENDROOT
BRANCH  12  13
ATOM     13  C   UNL     1       1.954  -2.263  -0.059  0.00  0.00    +0.027 C 
ATOM     14  C   UNL     1       2.029  -3.814   0.024  0.00  0.00    +0.009 C 
ATOM     15  C   UNL     1       2.304  -4.584  -1.277  0.00  0.00    +0.009 C 
ATOM     16  C   UNL     1       1.643  -3.991  -2.535  0.00  0.00    +0.019 C 
ATOM     17  C   UNL     1       2.137  -2.541  -2.629  0.00  0.00    +0.009 C 
ATOM     18  C   UNL     1       1.628  -1.709  -1.465  0.00  0.00    +0.009 C 
BRANCH  16  19
ATOM     19  C   UNL     1       0.121  -4.109  -2.658  0.00  0.00    -0.044 A 
ATOM     20  C   UNL     1      -0.680  -4.763  -1.709  0.00  0.00    +0.005 A 
ATOM     21  C   UNL     1      -2.073  -4.802  -1.835  0.00  0.00    +0.020 A 
ATOM     22  C   UNL     1      -2.689  -4.216  -2.934  0.00  0.00    +0.041 A 
ATOM     23 CL   UNL     1      -4.400  -4.278  -3.091  0.00  0.00    -0.084 Cl
ATOM     24  C   UNL     1      -1.921  -3.594  -3.910  0.00  0.00    +0.020 A 
ATOM     25  C   UNL     1      -0.529  -3.546  -3.775  0.00  0.00    +0.005 A 
ENDBRANCH  16  19
ENDBRANCH  12  13
BRANCH   1  26
ATOM     26  O   UNL     1       4.775  -2.966   1.013  0.00  0.00    -0.503 OA
ATOM     27  H   UNL     1       4.479  -3.325   0.164  0.00  0.00    +0.292 HD
ENDBRANCH   1  26
TORSDOF 3
