REMARK  Name = 
REMARK  13 active torsions:
REMARK  status: ('A' for Active; 'I' for Inactive)
REMARK    1  A    between atoms: C_5  and  C_6
REMARK    2  A    between atoms: C_6  and  S_7
REMARK    3  A    between atoms: S_7  and  C_8
REMARK    4  A    between atoms: N_12  and  C_13
REMARK    5  A    between atoms: C_14  and  C_35
REMARK    6  A    between atoms: C_18  and  N_19
REMARK    7  A    between atoms: C_18  and  O_33
REMARK    8  A    between atoms: C_20  and  C_22
REMARK    9  A    between atoms: C_26  and  C_27
REMARK   10  A    between atoms: C_26  and  C_30
REMARK   11  A    between atoms: C_30  and  O_31
REMARK   12  A    between atoms: O_33  and  C_34
REMARK   13  A    between atoms: C_35  and  O_36
REMARK                            x       y       z     vdW  Elec       q    Type
REMARK                         _______ _______ _______ _____ _____    ______ ____
ROOT
ATOM      1  C   UNL     1       2.331   0.149   0.066  0.00  0.00    +0.199 C 
ATOM      2  C   UNL     1       2.951  -1.293  -0.173  0.00  0.00    +0.242 C 
ATOM      3  C   UNL     1       3.491  -0.585  -1.506  0.00  0.00    +0.275 C 
ATOM      4  O   UNL     1       4.024  -0.895  -2.548  0.00  0.00    -0.270 OA
ATOM      5  N   UNL     1       3.156   0.636  -1.029  0.00  0.00    -0.244 N 
ATOM      6  C   UNL     1       3.309   1.960  -1.356  0.00  0.00    +0.123 C 
ATOM      7  C   UNL     1       2.910   2.922  -0.468  0.00  0.00    -0.021 C 
ATOM      8  C   UNL     1       2.314   2.623   0.903  0.00  0.00    +0.104 C 
ATOM      9  S   UNL     1       2.793   1.015   1.583  0.00  0.00    -0.128 S 
ENDROOT
BRANCH   2  10
ATOM     10  N   UNL     1       3.950  -1.737   0.840  0.00  0.00    -0.276 N 
ATOM     11  H   UNL     1       3.599  -2.242   1.647  0.00  0.00    +0.152 HD
ATOM     12  C   UNL     1       5.307  -1.452   0.822  0.00  0.00    +0.239 C 
ATOM     13  O   UNL     1       5.790  -0.776  -0.091  0.00  0.00    -0.274 OA
BRANCH  12  14
ATOM     14  C   UNL     1       6.148  -2.012   2.031  0.00  0.00    +0.200 C 
ATOM     15  S   UNL     1       6.886  -3.644   1.654  0.00  0.00    -0.093 S 
ATOM     16  C   UNL     1       6.675  -3.654   3.396  0.00  0.00    +0.063 C 
ATOM     17  C   UNL     1       7.383  -4.208   4.410  0.00  0.00    +0.140 C 
ATOM     18  S   UNL     1       5.148  -2.782   3.368  0.00  0.00    -0.093 S 
BRANCH  17  19
ATOM     19  C   UNL     1       6.916  -4.104   5.821  0.00  0.00    +0.250 C 
ATOM     20  O   UNL     1       7.699  -4.323   6.746  0.00  0.00    -0.270 OA
ATOM     21  N   UNL     1       5.623  -3.826   6.103  0.00  0.00    -0.325 N 
ATOM     22  H   UNL     1       5.341  -3.761   7.074  0.00  0.00    +0.145 HD
ATOM     23  H   UNL     1       4.918  -3.656   5.395  0.00  0.00    +0.145 HD
ENDBRANCH  17  19
BRANCH  17  24
ATOM     24  C   UNL     1       8.670  -4.898   4.103  0.00  0.00    +0.343 C 
ATOM     25  O   UNL     1       9.147  -5.047   2.991  0.00  0.00    -0.245 OA
BRANCH  24  26
ATOM     26  O   UNL     1       9.327  -5.387   5.187  0.00  0.00    -0.477 OA
ATOM     27  H   UNL     1       8.936  -5.153   6.065  0.00  0.00    +0.295 HD
ENDBRANCH  24  26
ENDBRANCH  17  24
ENDBRANCH  12  14
ENDBRANCH   2  10
BRANCH   2  28
ATOM     28  O   UNL     1       1.956  -2.330  -0.412  0.00  0.00    -0.349 OA
ATOM     29  C   UNL     1       2.400  -3.467  -1.147  0.00  0.00    +0.197 C 
ENDBRANCH   2  28
BRANCH   6  30
ATOM     30  C   UNL     1       3.928   2.373  -2.685  0.00  0.00    +0.351 C 
ATOM     31  O   UNL     1       4.012   3.536  -3.060  0.00  0.00    -0.244 OA
BRANCH  30  32
ATOM     32  O   UNL     1       4.366   1.403  -3.505  0.00  0.00    -0.476 OA
ATOM     33  H   UNL     1       4.359   0.473  -3.188  0.00  0.00    +0.295 HD
ENDBRANCH  30  32
ENDBRANCH   6  30
BRANCH   7  34
ATOM     34  C   UNL     1       3.044   4.432  -0.675  0.00  0.00    +0.111 C 
BRANCH  34  35
ATOM     35  S   UNL     1       1.607   5.064  -1.594  0.00  0.00    -0.080 S 
BRANCH  35  36
ATOM     36  C   UNL     1       1.976   6.749  -1.625  0.00  0.00    +0.209 A 
ATOM     37  N   UNL     1       2.591   7.402  -2.654  0.00  0.00    -0.223 N 
ATOM     38  C   UNL     1       3.146   6.894  -3.878  0.00  0.00    +0.177 C 
ATOM     39  N   UNL     1       2.652   8.718  -2.373  0.00  0.00    -0.043 NA
ATOM     40  N   UNL     1       2.081   8.845  -1.181  0.00  0.00    -0.022 NA
ATOM     41  N   UNL     1       1.662   7.626  -0.700  0.00  0.00    -0.102 NA
ENDBRANCH  35  36
ENDBRANCH  34  35
ENDBRANCH   7  34
TORSDOF 11
