REMARK  Name = 
REMARK  13 active torsions:
REMARK  status: ('A' for Active; 'I' for Inactive)
REMARK    1  A    between atoms: C_1  and  C_2
REMARK    2  A    between atoms: C_2  and  N_3
REMARK    3  A    between atoms: N_3  and  C_4
REMARK    4  A    between atoms: N_3  and  C_6
REMARK    5  A    between atoms: C_4  and  C_5
REMARK    6  A    between atoms: C_6  and  C_7
REMARK    7  A    between atoms: C_8  and  C_9
REMARK    8  A    between atoms: C_9  and  O_10
REMARK    9  A    between atoms: O_10  and  C_11
REMARK   10  A    between atoms: C_11  and  C_13
REMARK   11  A    between atoms: C_13  and  O_14
REMARK   12  A    between atoms: C_13  and  C_15
REMARK   13  A    between atoms: C_13  and  C_21
REMARK                            x       y       z     vdW  Elec       q    Type
REMARK                         _______ _______ _______ _____ _____    ______ ____
ROOT
ATOM      1  C   UNL     1       5.372   8.240   2.344  0.00  0.00    +0.190 C 
ENDROOT
BRANCH   1   2
ATOM      2  C   UNL     1       5.920   9.446   3.150  0.00  0.00    -0.005 A 
ATOM      3  C   UNL     1       5.187  10.049   4.189  0.00  0.00    +0.007 A 
ATOM      4  C   UNL     1       5.747  11.061   4.983  0.00  0.00    +0.000 A 
ATOM      5  C   UNL     1       7.053  11.488   4.764  0.00  0.00    +0.000 A 
ATOM      6  C   UNL     1       7.799  10.915   3.741  0.00  0.00    +0.000 A 
ATOM      7  C   UNL     1       7.237   9.908   2.944  0.00  0.00    +0.007 A 
ENDBRANCH   1   2
BRANCH   1   8
ATOM      8  C   UNL     1       3.829   8.286   2.002  0.00  0.00    +0.036 C 
ATOM      9  C   UNL     1       3.288   7.062   1.210  0.00  0.00    +0.007 C 
ATOM     10  C   UNL     1       3.598   7.059  -0.286  0.00  0.00    +0.000 C 
ATOM     11  C   UNL     1       3.177   8.355  -0.963  0.00  0.00    +0.000 C 
ATOM     12  C   UNL     1       3.690   9.588  -0.227  0.00  0.00    +0.000 C 
ATOM     13  C   UNL     1       3.346   9.555   1.261  0.00  0.00    +0.007 C 
ENDBRANCH   1   8
BRANCH   1  14
ATOM     14  C   UNL     1       5.640   6.933   3.195  0.00  0.00    +0.345 C 
ATOM     15  O   UNL     1       5.607   6.853   4.415  0.00  0.00    -0.247 OA
BRANCH  14  16
ATOM     16  O   UNL     1       5.888   5.872   2.359  0.00  0.00    -0.449 OA
BRANCH  16  17
ATOM     17  C   UNL     1       6.134   4.609   3.009  0.00  0.00    +0.320 C 
BRANCH  17  19
ATOM     18  C   UNL     1       3.782   3.280   3.656  0.00  0.00    -0.083 C 
ATOM     19  C   UNL     1       4.887   3.886   3.323  0.00  0.00    -0.060 C 
BRANCH  18  20
ATOM     20  C   UNL     1       2.493   2.573   4.043  0.00  0.00    +0.174 C 
BRANCH  20  21
ATOM     21  N   UNL     1       1.790   3.264   5.138  0.00  0.00    -0.292 NA
BRANCH  21  23
ATOM     22  C   UNL     1      -0.347   3.237   6.478  0.00  0.00    +0.020 C 
ATOM     23  C   UNL     1       0.524   2.566   5.420  0.00  0.00    +0.082 C 
ENDBRANCH  21  23
BRANCH  21  24
ATOM     24  C   UNL     1       2.623   3.493   6.332  0.00  0.00    +0.082 C 
ATOM     25  C   UNL     1       3.206   2.255   7.006  0.00  0.00    +0.020 C 
ENDBRANCH  21  24
ENDBRANCH  20  21
ENDBRANCH  18  20
ENDBRANCH  17  19
ENDBRANCH  16  17
ENDBRANCH  14  16
ENDBRANCH   1  14
BRANCH   1  26
ATOM     26  O   UNL     1       6.117   8.205   1.118  0.00  0.00    -0.373 OA
ATOM     27  H   UNL     1       6.144   7.267   0.849  0.00  0.00    +0.211 HD
ENDBRANCH   1  26
TORSDOF 11
