REMARK  Name = 
REMARK  14 active torsions:
REMARK  status: ('A' for Active; 'I' for Inactive)
REMARK    1  A    between atoms: C_4  and  O_6
REMARK    2  A    between atoms: O_6  and  C_7
REMARK    3  A    between atoms: C_7  and  C_9
REMARK    4  A    between atoms: C_11  and  O_12
REMARK    5  A    between atoms: O_12  and  C_13
REMARK    6  A    between atoms: C_14  and  O_15
REMARK    7  A    between atoms: O_15  and  C_16
REMARK    8  A    between atoms: C_17  and  O_18
REMARK    9  A    between atoms: O_18  and  C_19
REMARK   10  A    between atoms: C_21  and  O_23
REMARK   11  A    between atoms: O_23  and  C_24
REMARK   12  A    between atoms: C_25  and  C_27
REMARK   13  A    between atoms: C_27  and  O_29
REMARK   14  A    between atoms: O_29  and  C_30
REMARK                            x       y       z     vdW  Elec       q    Type
REMARK                         _______ _______ _______ _____ _____    ______ ____
ROOT
ATOM      1  C   UNL     1       1.890   0.512  -0.460  0.00  0.00    +0.011 C 
ATOM      2  C   UNL     1       1.757   1.854   0.263  0.00  0.00    +0.089 C 
ATOM      3  N   UNL     1       2.886   1.942   1.169  0.00  0.00    -0.293 NA
ATOM      4  C   UNL     1       3.253   3.336   1.504  0.00  0.00    +0.090 C 
ATOM      5  C   UNL     1       2.203   4.074   2.353  0.00  0.00    +0.053 C 
ATOM      6  C   UNL     1       1.860   3.210   3.512  0.00  0.00    -0.016 A 
ATOM      7  C   UNL     1       1.508   3.604   4.827  0.00  0.00    +0.003 A 
ATOM      8  C   UNL     1       1.528   2.443   5.608  0.00  0.00    +0.047 A 
ATOM      9  C   UNL     1       1.310   2.461   6.984  0.00  0.00    +0.026 A 
ATOM     10  C   UNL     1       1.081   3.695   7.592  0.00  0.00    +0.002 A 
ATOM     11  C   UNL     1       1.048   4.871   6.845  0.00  0.00    +0.001 A 
ATOM     12  N   UNL     1       1.776   1.372   4.740  0.00  0.00    -0.356 N 
ATOM     13  H   UNL     1       1.873   0.411   5.040  0.00  0.00    +0.166 HD
ATOM     14  C   UNL     1       1.265   4.835   5.464  0.00  0.00    +0.010 A 
ATOM     15  C   UNL     1       2.032   1.830   3.468  0.00  0.00    +0.038 A 
ATOM     16  C   UNL     1       2.689   1.046   2.322  0.00  0.00    +0.104 C 
ATOM     17  C   UNL     1       2.056  -0.374   1.934  0.00  0.00    +0.030 C 
ATOM     18  C   UNL     1       1.867  -0.781   0.386  0.00  0.00    +0.012 C 
ATOM     19  C   UNL     1       2.623  -2.047  -0.485  0.00  0.00    +0.133 C 
ATOM     20  C   UNL     1       3.911  -1.661  -1.369  0.00  0.00    +0.172 C 
ATOM     21  C   UNL     1       4.358  -0.336  -0.769  0.00  0.00    +0.206 C 
ATOM     22  C   UNL     1       3.199   0.597  -1.244  0.00  0.00    +0.052 C 
ENDROOT
BRANCH  19  23
ATOM     23  C   UNL     1       2.952  -3.341   0.266  0.00  0.00    +0.313 C 
ATOM     24  O   UNL     1       2.463  -3.689   1.327  0.00  0.00    -0.250 OA
BRANCH  23  25
ATOM     25  O   UNL     1       3.836  -4.082  -0.475  0.00  0.00    -0.468 OA
ATOM     26  C   UNL     1       4.464  -5.271   0.023  0.00  0.00    +0.280 C 
ENDBRANCH  23  25
ENDBRANCH  19  23
BRANCH  20  27
ATOM     27  O   UNL     1       3.597  -1.502  -2.766  0.00  0.00    -0.375 OA
ATOM     28  C   UNL     1       3.897  -2.564  -3.649  0.00  0.00    +0.194 C 
ENDBRANCH  20  27
BRANCH  21  29
ATOM     29  O   UNL     1       4.485  -0.770   0.651  0.00  0.00    -0.455 OA
BRANCH  29  30
ATOM     30  C   UNL     1       5.477  -0.536   1.532  0.00  0.00    +0.340 C 
ATOM     31  O   UNL     1       6.312   0.350   1.445  0.00  0.00    -0.245 OA
BRANCH  30  32
ATOM     32  C   UNL     1       5.323  -1.443   2.747  0.00  0.00    +0.066 A 
ATOM     33  C   UNL     1       5.162  -2.828   2.688  0.00  0.00    +0.064 A 
ATOM     34  C   UNL     1       4.912  -3.614   3.850  0.00  0.00    +0.166 A 
ATOM     35  C   UNL     1       4.822  -3.005   5.123  0.00  0.00    +0.204 A 
ATOM     36  C   UNL     1       5.026  -1.605   5.190  0.00  0.00    +0.166 A 
ATOM     37  C   UNL     1       5.292  -0.853   4.011  0.00  0.00    +0.064 A 
BRANCH  34  38
ATOM     38  O   UNL     1       4.747  -4.951   3.550  0.00  0.00    -0.491 OA
ATOM     39  C   UNL     1       4.749  -5.925   4.591  0.00  0.00    +0.277 C 
ENDBRANCH  34  38
BRANCH  35  40
ATOM     40  O   UNL     1       4.512  -3.828   6.176  0.00  0.00    -0.488 OA
ATOM     41  C   UNL     1       4.520  -3.356   7.516  0.00  0.00    +0.277 C 
ENDBRANCH  35  40
BRANCH  36  42
ATOM     42  O   UNL     1       4.906  -0.999   6.418  0.00  0.00    -0.491 OA
ATOM     43  C   UNL     1       5.179   0.394   6.499  0.00  0.00    +0.277 C 
ENDBRANCH  36  42
ENDBRANCH  30  32
ENDBRANCH  29  30
ENDBRANCH  21  29
TORSDOF 9
