REMARK  Name = 
REMARK  11 active torsions:
REMARK  status: ('A' for Active; 'I' for Inactive)
REMARK    1  A    between atoms: C_1  and  C_2
REMARK    2  A    between atoms: C_2  and  O_3
REMARK    3  A    between atoms: O_3  and  C_4
REMARK    4  A    between atoms: C_4  and  C_6
REMARK    5  A    between atoms: C_6  and  C_8
REMARK    6  A    between atoms: C_6  and  N_16
REMARK    7  A    between atoms: C_8  and  C_9
REMARK    8  A    between atoms: C_9  and  C_10
REMARK    9  A    between atoms: N_16  and  C_17
REMARK   10  A    between atoms: C_26  and  C_31
REMARK   11  A    between atoms: C_31  and  O_32
REMARK                            x       y       z     vdW  Elec       q    Type
REMARK                         _______ _______ _______ _____ _____    ______ ____
ROOT
ATOM      1  N   UNL     1       7.426  -4.720   1.886  0.00  0.00    -0.293 NA
ATOM      2  H   UNL     1       7.776  -4.159   1.097  0.00  0.00    +0.123 HD
ENDROOT
BRANCH   1   3
ATOM      3  C   UNL     1       6.738  -3.804   2.840  0.00  0.00    +0.143 C 
ATOM      4  C   UNL     1       7.692  -2.569   2.998  0.00  0.00    +0.247 C 
ATOM      5  O   UNL     1       8.483  -2.313   2.076  0.00  0.00    -0.273 OA
ATOM      6  N   UNL     1       7.626  -1.708   4.096  0.00  0.00    -0.219 N 
ATOM      7  N   UNL     1       6.575  -1.669   5.025  0.00  0.00    -0.224 NA
ATOM      8  C   UNL     1       5.501  -0.740   4.698  0.00  0.00    +0.106 C 
ATOM      9  C   UNL     1       6.098   0.669   4.587  0.00  0.00    +0.019 C 
ATOM     10  C   UNL     1       7.317   0.702   3.656  0.00  0.00    +0.037 C 
ATOM     11  C   UNL     1       6.266  -2.818   5.841  0.00  0.00    +0.106 C 
ATOM     12  C   UNL     1       5.511  -3.885   5.085  0.00  0.00    +0.019 C 
ATOM     13  C   UNL     1       8.334  -0.397   4.001  0.00  0.00    +0.202 C 
ATOM     14  C   UNL     1       6.421  -4.602   4.105  0.00  0.00    +0.029 C 
BRANCH  13  15
ATOM     15  C   UNL     1       9.131  -0.104   5.279  0.00  0.00    +0.327 C 
ATOM     16  O   UNL     1       9.510   1.007   5.622  0.00  0.00    -0.249 OA
BRANCH  15  17
ATOM     17  O   UNL     1       9.492  -1.224   5.957  0.00  0.00    -0.479 OA
ATOM     18  H   UNL     1       9.087  -2.006   5.525  0.00  0.00    +0.295 HD
ENDBRANCH  15  17
ENDBRANCH  13  15
ENDBRANCH   1   3
BRANCH   1  19
ATOM     19  C   UNL     1       6.682  -5.887   1.374  0.00  0.00    +0.164 C 
BRANCH  19  20
ATOM     20  C   UNL     1       7.621  -6.662   0.430  0.00  0.00    +0.324 C 
ATOM     21  O   UNL     1       8.073  -6.219  -0.619  0.00  0.00    -0.249 OA
BRANCH  20  22
ATOM     22  O   UNL     1       7.847  -7.914   0.922  0.00  0.00    -0.464 OA
BRANCH  22  24
ATOM     23  C   UNL     1       7.911  -9.442  -0.950  0.00  0.00    +0.048 C 
ATOM     24  C   UNL     1       8.712  -8.746   0.136  0.00  0.00    +0.229 C 
ENDBRANCH  22  24
ENDBRANCH  20  22
ENDBRANCH  19  20
BRANCH  19  25
ATOM     25  C   UNL     1       5.395  -5.519   0.629  0.00  0.00    +0.035 C 
BRANCH  25  26
ATOM     26  C   UNL     1       4.616  -6.750   0.147  0.00  0.00    +0.037 C 
BRANCH  26  27
ATOM     27  C   UNL     1       3.345  -6.313  -0.539  0.00  0.00    -0.047 A 
ATOM     28  C   UNL     1       2.178  -6.086   0.203  0.00  0.00    +0.003 A 
ATOM     29  C   UNL     1       1.036  -5.581  -0.418  0.00  0.00    +0.000 A 
ATOM     30  C   UNL     1       1.051  -5.300  -1.783  0.00  0.00    +0.000 A 
ATOM     31  C   UNL     1       2.202  -5.537  -2.532  0.00  0.00    +0.000 A 
ATOM     32  C   UNL     1       3.346  -6.042  -1.913  0.00  0.00    +0.003 A 
ENDBRANCH  26  27
ENDBRANCH  25  26
ENDBRANCH  19  25
ENDBRANCH   1  19
TORSDOF 10
