REMARK  Name = 
REMARK  7 active torsions:
REMARK  status: ('A' for Active; 'I' for Inactive)
REMARK    1  A    between atoms: N_1  and  C_2
REMARK    2  A    between atoms: C_2  and  C_4
REMARK    3  A    between atoms: C_2  and  C_9
REMARK    4  A    between atoms: C_4  and  S_5
REMARK    5  A    between atoms: S_5  and  AS_6
REMARK    6  A    between atoms: AS_6  and  O_8
REMARK    7  A    between atoms: C_9  and  O_10
REMARK                            x       y       z     vdW  Elec       q    Type
REMARK                         _______ _______ _______ _____ _____    ______ ____
ROOT
ATOM      1  C   UNK     1       2.483  -0.064  -0.101  0.00  0.00    +0.000 C 
ENDROOT
BRANCH   1   2
ATOM      2  N   UNK     1       1.019  -0.102  -0.075  0.00  0.00    +0.000 NA
ATOM      3  H   UNK     1       0.621   0.615  -0.724  0.00  0.00    +0.000 HD
ATOM      4  H   UNK     1       0.687  -1.046  -0.382  0.00  0.00    +0.000 HD
ENDBRANCH   1   2
BRANCH   1   5
ATOM      5  C   UNK     1       2.966   1.249   0.476  0.00  0.00    +0.000 C 
ATOM      6  O   UNK     1       3.659   1.246   1.481  0.00  0.00    +0.000 OA
BRANCH   5   7
ATOM      7  O   UNK     1       2.650   2.430  -0.100  0.00  0.00    +0.000 OA
ATOM      8  H   UNK     1       2.106   2.486  -0.897  0.00  0.00    +0.000 HD
ENDBRANCH   5   7
ENDBRANCH   1   5
BRANCH   1   9
ATOM      9  C   UNK     1       3.013  -0.288  -1.530  0.00  0.00    +0.000 C 
BRANCH   9  10
ATOM     10  S   UNK     1       4.839  -0.325  -1.536  0.00  0.00    +0.000 S 
BRANCH  10  11
ATOM     11 AS   UNK     1       4.978  -0.692  -3.767  0.00  0.00    +0.000 As
ATOM     12  H   UNK     1       4.903   0.836  -4.091  0.00  0.00    +0.000 HD
BRANCH  11  13
ATOM     13  O   UNK     1       6.816  -0.647  -3.722  0.00  0.00    +0.000 OA
ATOM     14  H   UNK     1       7.084  -1.583  -3.542  0.00  0.00    +0.000 HD
ENDBRANCH  11  13
ENDBRANCH  10  11
ENDBRANCH   9  10
ENDBRANCH   1   9
TORSDOF 7
