REMARK  Name = 
REMARK  4 active torsions:
REMARK  status: ('A' for Active; 'I' for Inactive)
REMARK    1  A    between atoms: O_1  and  C_2
REMARK    2  A    between atoms: C_2  and  C_3
REMARK    3  A    between atoms: C_3  and  C_4
REMARK    4  A    between atoms: C_4  and  C_5
REMARK                            x       y       z     vdW  Elec       q    Type
REMARK                         _______ _______ _______ _____ _____    ______ ____
ROOT
ATOM      1  C   UNL     1       2.944   1.362  -0.335  0.00  0.00    +0.034 C 
ENDROOT
BRANCH   1   2
ATOM      2  C   UNL     1       2.453  -0.059  -0.090  0.00  0.00    +0.156 C 
BRANCH   2   3
ATOM      3  O   UNL     1       1.029  -0.052   0.027  0.00  0.00    -0.395 OA
ATOM      4  H   UNL     1       0.768  -0.988   0.012  0.00  0.00    +0.209 HD
ENDBRANCH   2   3
ENDBRANCH   1   2
BRANCH   1   5
ATOM      5  C   UNL     1       4.462   1.484  -0.293  0.00  0.00    +0.054 C 
BRANCH   5   6
ATOM      6  C   UNL     1       5.097   0.625  -1.384  0.00  0.00    +0.042 C 
ATOM      7  O   UNL     1       5.381  -0.554  -1.028  0.00  0.00    -0.550 OA
ATOM      8  O   UNL     1       5.256   1.197  -2.497  0.00  0.00    -0.550 OA
ENDBRANCH   5   6
ENDBRANCH   1   5
TORSDOF 4
