REMARK  Name = 
REMARK  10 active torsions:
REMARK  status: ('A' for Active; 'I' for Inactive)
REMARK    1  A    between atoms: C_1  and  O_2
REMARK    2  A    between atoms: O_2  and  C_3
REMARK    3  A    between atoms: C_9  and  C_10
REMARK    4  A    between atoms: C_9  and  C_11
REMARK    5  A    between atoms: N_14  and  C_15
REMARK    6  A    between atoms: C_15  and  C_16
REMARK    7  A    between atoms: C_16  and  C_17
REMARK    8  A    between atoms: C_20  and  S_23
REMARK    9  A    between atoms: S_23  and  N_26
REMARK   10  A    between atoms: N_29  and  C_30
REMARK                            x       y       z     vdW  Elec       q    Type
REMARK                         _______ _______ _______ _____ _____    ______ ____
ROOT
ATOM      1  C   UNL     1       6.551   8.023  -3.376  0.00  0.00    -0.046 A 
ATOM      2  C   UNL     1       7.916   7.948  -3.058  0.00  0.00    +0.005 A 
ATOM      3  C   UNL     1       8.671   9.110  -2.874  0.00  0.00    +0.029 A 
ATOM      4  C   UNL     1       8.056  10.357  -2.987  0.00  0.00    +0.109 A 
ATOM      5  C   UNL     1       6.693  10.457  -3.251  0.00  0.00    +0.029 A 
ATOM      6  C   UNL     1       5.945   9.293  -3.427  0.00  0.00    +0.005 A 
ENDROOT
BRANCH   4   7
ATOM      7  S   UNL     1       9.020  11.833  -2.908  0.00  0.00    +0.076 S 
ATOM      8  O   UNL     1       8.362  12.827  -3.742  0.00  0.00    -0.150 OA
ATOM      9  O   UNL     1      10.412  11.516  -3.115  0.00  0.00    -0.150 OA
BRANCH   7  10
ATOM     10  N   UNL     1       8.797  12.372  -1.358  0.00  0.00    -0.169 N 
ATOM     11  H   UNL     1       8.275  13.235  -1.319  0.00  0.00    +0.178 HD
ATOM     12  C   UNL     1       9.120  11.673  -0.213  0.00  0.00    +0.319 C 
ATOM     13  N   UNL     1       8.813  12.397   0.897  0.00  0.00    -0.295 N 
ATOM     14  H   UNL     1       8.641  13.376   0.741  0.00  0.00    +0.151 HD
ATOM     15  O   UNL     1       9.620  10.558  -0.200  0.00  0.00    -0.251 OA
BRANCH  13  16
ATOM     16  C   UNL     1       9.190  11.989   2.245  0.00  0.00    +0.074 C 
ATOM     17  C   UNL     1       8.272  12.664   3.270  0.00  0.00    +0.022 C 
ATOM     18  C   UNL     1       8.460  14.182   3.307  0.00  0.00    +0.002 C 
ATOM     19  C   UNL     1       9.924  14.591   3.472  0.00  0.00    +0.000 C 
ATOM     20  C   UNL     1      10.871  13.860   2.521  0.00  0.00    +0.002 C 
ATOM     21  C   UNL     1      10.651  12.347   2.542  0.00  0.00    +0.022 C 
ENDBRANCH  13  16
ENDBRANCH   7  10
ENDBRANCH   4   7
BRANCH   1  22
ATOM     22  C   UNL     1       5.778   6.749  -3.672  0.00  0.00    +0.054 C 
BRANCH  22  23
ATOM     23  C   UNL     1       4.744   6.967  -4.778  0.00  0.00    +0.121 C 
BRANCH  23  30
ATOM     24  C   UNL     1       3.422   2.369  -8.566  0.00  0.00    +0.121 A 
ATOM     25  C   UNL     1       2.045   2.580  -8.532  0.00  0.00    +0.046 A 
ATOM     26  C   UNL     1       1.477   3.447  -7.593  0.00  0.00    +0.009 A 
ATOM     27  C   UNL     1       2.286   4.146  -6.684  0.00  0.00    -0.021 A 
ATOM     28  C   UNL     1       1.702   5.106  -5.654  0.00  0.00    +0.067 C 
ATOM     29  C   UNL     1       2.765   5.557  -4.639  0.00  0.00    +0.232 C 
ATOM     30  N   UNL     1       3.994   5.812  -5.220  0.00  0.00    -0.237 N 
ATOM     31  C   UNL     1       4.596   4.879  -6.036  0.00  0.00    +0.253 C 
ATOM     32  O   UNL     1       5.810   4.785  -6.187  0.00  0.00    -0.270 OA
ATOM     33  O   UNL     1       2.518   5.808  -3.462  0.00  0.00    -0.274 OA
ATOM     34  C   UNL     1       1.242   6.400  -6.361  0.00  0.00    +0.025 C 
ATOM     35  C   UNL     1       0.512   4.490  -4.897  0.00  0.00    +0.025 C 
ATOM     36  C   UNL     1       3.678   3.985  -6.786  0.00  0.00    +0.045 A 
ATOM     37  C   UNL     1       4.240   3.085  -7.700  0.00  0.00    +0.059 A 
BRANCH  24  39
ATOM     38  C   UNL     1       5.119   0.873  -9.241  0.00  0.00    +0.277 C 
ATOM     39  O   UNL     1       3.868   1.497  -9.521  0.00  0.00    -0.495 OA
ENDBRANCH  24  39
ENDBRANCH  23  30
ENDBRANCH  22  23
ENDBRANCH   1  22
TORSDOF 7
