REMARK  Name = 
REMARK  10 active torsions:
REMARK  status: ('A' for Active; 'I' for Inactive)
REMARK    1  A    between atoms: C_5  and  C_6
REMARK    2  A    between atoms: C_6  and  O_7
REMARK    3  A    between atoms: O_7  and  C_8
REMARK    4  A    between atoms: CA_9  and  C_28
REMARK    5  A    between atoms: CA_13  and  N_15
REMARK    6  A    between atoms: C_16  and  C_18
REMARK    7  A    between atoms: C_18  and  C_22
REMARK    8  A    between atoms: N_19  and  O_20
REMARK    9  A    between atoms: O_20  and  C_21
REMARK   10  A    between atoms: C_28  and  O_29
REMARK                            x       y       z     vdW  Elec       q    Type
REMARK                         _______ _______ _______ _____ _____    ______ ____
ROOT
ATOM      1  C   UNL     1       1.797  -0.120  -0.724  0.00  0.00    +0.169 C 
ATOM      2  CA  UNL     1       2.700  -1.436  -0.677  0.00  0.00    +0.191 C 
ATOM      3  C   UNL     1       3.350  -0.721  -1.889  0.00  0.00    +0.244 C 
ATOM      4  O   UNL     1       4.172  -0.999  -2.751  0.00  0.00    -0.273 OA
ATOM      5  N   UNL     1       2.867   0.459  -1.482  0.00  0.00    -0.249 N 
ATOM      6  CA  UNL     1       3.132   1.783  -1.690  0.00  0.00    +0.124 C 
ATOM      7  C   UNL     1       2.634   2.721  -0.837  0.00  0.00    -0.006 C 
ATOM      8  C   UNL     1       1.755   2.459   0.357  0.00  0.00    +0.106 C 
ATOM      9  S   UNL     1       1.109   0.793   0.629  0.00  0.00    -0.131 S 
ENDROOT
BRANCH   2  10
ATOM     10  N   UNL     1       3.770  -1.941   0.280  0.00  0.00    -0.296 N 
ATOM     11  H   UNL     1       3.604  -2.836   0.726  0.00  0.00    +0.150 HD
ATOM     12  C   UNL     1       5.078  -1.526   0.646  0.00  0.00    +0.268 C 
ATOM     13  O   UNL     1       5.704  -2.261   1.398  0.00  0.00    -0.268 OA
BRANCH  12  14
ATOM     14  C   UNL     1       5.646  -0.145   0.317  0.00  0.00    +0.190 C 
ATOM     15  N   UNL     1       5.167   1.019   0.668  0.00  0.00    -0.078 NA
BRANCH  14  16
ATOM     16  C   UNL     1       7.020   0.025  -0.218  0.00  0.00    +0.107 A 
ATOM     17  N   UNL     1       8.066  -0.736   0.293  0.00  0.00    -0.223 NA
ATOM     18  C   UNL     1       9.212  -0.135   0.098  0.00  0.00    +0.156 A 
ATOM     19  N   UNL     1      10.354  -0.543   0.669  0.00  0.00    -0.338 N 
ATOM     20  H   UNL     1      10.328  -1.448   1.123  0.00  0.00    +0.144 HD
ATOM     21  H   UNL     1      11.238  -0.297   0.242  0.00  0.00    +0.144 HD
ATOM     22  S   UNL     1       9.156   1.243  -0.919  0.00  0.00    -0.060 S 
ATOM     23  C   UNL     1       7.444   1.110  -0.974  0.00  0.00    +0.078 A 
ENDBRANCH  14  16
BRANCH  15  24
ATOM     24  O   UNL     1       4.127   1.217   1.586  0.00  0.00    -0.396 OA
ATOM     25  C   UNL     1       3.610   0.125   2.302  0.00  0.00    +0.313 C 
ENDBRANCH  15  24
ENDBRANCH  12  14
ENDBRANCH   2  10
BRANCH   6  26
ATOM     26  C   UNL     1       4.091   2.207  -2.796  0.00  0.00    +0.351 C 
ATOM     27  OXT UNL     1       4.618   3.304  -2.891  0.00  0.00    -0.244 OA
BRANCH  26  28
ATOM     28  O   UNL     1       4.337   1.295  -3.757  0.00  0.00    -0.476 OA
ATOM     29  H   UNL     1       4.195   0.350  -3.535  0.00  0.00    +0.295 HD
ENDBRANCH  26  28
ENDBRANCH   6  26
BRANCH   7  30
ATOM     30  C   UNL     1       3.008   4.193  -0.901  0.00  0.00    +0.193 C 
BRANCH  30  31
ATOM     31  O   UNL     1       2.235   4.780  -1.941  0.00  0.00    -0.379 OA
ATOM     32  C   UNL     1       2.669   6.100  -2.239  0.00  0.00    +0.194 C 
ENDBRANCH  30  31
ENDBRANCH   7  30
TORSDOF 8
