REMARK  Name = 
REMARK  8 active torsions:
REMARK  status: ('A' for Active; 'I' for Inactive)
REMARK    1  A    between atoms: C_5  and  C_6
REMARK    2  A    between atoms: CA_7  and  C_26
REMARK    3  A    between atoms: CA_11  and  N_13
REMARK    4  A    between atoms: C_14  and  CA_16
REMARK    5  A    between atoms: CA_16  and  N_18
REMARK    6  A    between atoms: CA_16  and  C_19
REMARK    7  A    between atoms: C_22  and  O_23
REMARK    8  A    between atoms: C_26  and  O_27
REMARK                            x       y       z     vdW  Elec       q    Type
REMARK                         _______ _______ _______ _____ _____    ______ ____
ROOT
ATOM      1  N   UNL     1       7.238  -1.930   3.361  0.00  0.00    -0.300 N 
ATOM      2  H   UNL     1       6.802  -2.426   4.141  0.00  0.00    +0.150 HD
ATOM      3  C   UNL     1       6.534  -1.992   2.180  0.00  0.00    +0.235 C 
ATOM      4  O   UNL     1       6.908  -1.446   1.147  0.00  0.00    -0.274 OA
ENDROOT
BRANCH   1   6
ATOM      5  C   UNL     1       9.111  -1.245   4.987  0.00  0.00    +0.169 C 
ATOM      6  CA  UNL     1       8.539  -1.249   3.531  0.00  0.00    +0.191 C 
ATOM      7  C   UNL     1       9.803  -2.130   3.228  0.00  0.00    +0.244 C 
ATOM      8  O   UNL     1      10.360  -2.634   2.283  0.00  0.00    -0.273 OA
ATOM      9  N   UNL     1      10.050  -2.263   4.546  0.00  0.00    -0.249 N 
ATOM     10  CA  UNL     1      10.834  -3.017   5.375  0.00  0.00    +0.122 C 
ATOM     11  C   UNL     1      10.538  -3.064   6.707  0.00  0.00    -0.034 C 
ATOM     12  C   UNL     1      11.305  -3.899   7.713  0.00  0.00    +0.042 C 
ATOM     13  C   UNL     1       9.382  -2.337   7.367  0.00  0.00    +0.103 C 
ATOM     14  S   UNL     1       8.022  -1.938   6.253  0.00  0.00    -0.131 S 
BRANCH  10  15
ATOM     15  C   UNL     1      12.007  -3.824   4.835  0.00  0.00    +0.351 C 
ATOM     16  OXT UNL     1      12.731  -4.519   5.536  0.00  0.00    -0.244 OA
BRANCH  15  17
ATOM     17  O   UNL     1      12.298  -3.690   3.529  0.00  0.00    -0.476 OA
ATOM     18  H   UNL     1      11.619  -3.292   2.942  0.00  0.00    +0.295 HD
ENDBRANCH  15  17
ENDBRANCH  10  15
ENDBRANCH   1   6
BRANCH   3  19
ATOM     19  CA  UNL     1       5.227  -2.815   2.298  0.00  0.00    +0.168 C 
BRANCH  19  20
ATOM     20  C   UNL     1       5.424  -4.248   1.839  0.00  0.00    -0.022 A 
ATOM     21  C   UNL     1       5.767  -5.281   2.729  0.00  0.00    +0.009 A 
ATOM     22  C   UNL     1       5.903  -6.596   2.279  0.00  0.00    +0.046 A 
ATOM     23  C   UNL     1       5.710  -6.887   0.935  0.00  0.00    +0.117 A 
ATOM     24  C   UNL     1       5.412  -5.879   0.026  0.00  0.00    +0.046 A 
ATOM     25  C   UNL     1       5.274  -4.563   0.478  0.00  0.00    +0.009 A 
BRANCH  23  26
ATOM     26  O   UNL     1       5.820  -8.188   0.545  0.00  0.00    -0.507 OA
ATOM     27  H   UNL     1       5.600  -8.247  -0.399  0.00  0.00    +0.292 HD
ENDBRANCH  23  26
ENDBRANCH  19  20
BRANCH  19  28
ATOM     28  N   UNL     1       4.720  -2.744   3.698  0.00  0.00    -0.316 NA
ATOM     29  H1  UNL     1       4.469  -1.775   3.893  0.00  0.00    +0.119 HD
ATOM     30  H2  UNL     1       3.843  -3.266   3.730  0.00  0.00    +0.119 HD
ENDBRANCH  19  28
ENDBRANCH   3  19
TORSDOF 7
