REMARK  Name = 
REMARK  1 active torsions:
REMARK  status: ('A' for Active; 'I' for Inactive)
REMARK    1  A    between atoms: N_4  and  O_5
REMARK                            x       y       z     vdW  Elec       q    Type
REMARK                         _______ _______ _______ _____ _____    ______ ____
ROOT
ATOM      1  N   UNL     1       1.220   0.047  -0.087  0.00  0.00    -0.312 N 
ATOM      2  H   UNL     1       0.692   0.637  -0.709  0.00  0.00    +0.147 HD
ATOM      3  H   UNL     1       0.725  -0.586   0.529  0.00  0.00    +0.147 HD
ATOM      4  C   UNL     1       2.571   0.004  -0.075  0.00  0.00    +0.320 C 
ATOM      5  N   UNL     1       3.173   0.839  -0.961  0.00  0.00    -0.181 N 
ATOM      6  H   UNL     1       2.696   1.558  -1.485  0.00  0.00    +0.184 HD
ATOM      7  O   UNL     1       3.192  -0.748   0.675  0.00  0.00    -0.251 OA
ENDROOT
BRANCH   5   8
ATOM      8  O   UNL     1       4.583   0.887  -0.934  0.00  0.00    -0.294 OA
ATOM      9  H   UNL     1       4.799   0.212  -0.256  0.00  0.00    +0.241 HD
ENDBRANCH   5   8
TORSDOF 1
