REMARK  Name = 
REMARK  25 active torsions:
REMARK  status: ('A' for Active; 'I' for Inactive)
REMARK    1  A    between atoms: NE_4  and  CD_5
REMARK    2  A    between atoms: CD_5  and  CG_6
REMARK    3  A    between atoms: CG_6  and  CB_7
REMARK    4  A    between atoms: CB_7  and  CA_8
REMARK    5  A    between atoms: CA_8  and  N_10
REMARK    6  A    between atoms: CA_8  and  C_35
REMARK    7  A    between atoms: C_11  and  C_13
REMARK    8  A    between atoms: C_13  and  C_15
REMARK    9  A    between atoms: C_15  and  C_17
REMARK   10  A    between atoms: C_15  and  N_24
REMARK   11  A    between atoms: C_17  and  C_18
REMARK   12  A    between atoms: C_25  and  O_27
REMARK   13  A    between atoms: O_27  and  C_28
REMARK   14  A    between atoms: C_28  and  C_29
REMARK   15  A    between atoms: N_37  and  CA_38
REMARK   16  A    between atoms: CA_38  and  CB_40
REMARK   17  A    between atoms: CA_38  and  C_45
REMARK   18  A    between atoms: CB_40  and  CG_41
REMARK   19  A    between atoms: CG_41  and  CD_42
REMARK   20  A    between atoms: CD_42  and  OE1_43
REMARK   21  A    between atoms: N_47  and  CA_48
REMARK   22  A    between atoms: CA_48  and  CB_50
REMARK   23  A    between atoms: CA_48  and  C_57
REMARK   24  A    between atoms: CB_50  and  CG_51
REMARK   25  A    between atoms: C_57  and  O_58
REMARK                            x       y       z     vdW  Elec       q    Type
REMARK                         _______ _______ _______ _____ _____    ______ ____
ROOT
ATOM      1  CA  GLU A   1      10.159   1.683  -6.402  0.00  0.00    +0.159 C 
ENDROOT
BRANCH   1   2
ATOM      2  N   GLU A   1       8.789   2.044  -6.794  0.00  0.00    -0.298 N 
ATOM      3  H   GLU A   1       8.228   2.558  -6.121  0.00  0.00    +0.150 HD
ATOM      4  C   UNK A   0       8.366   2.067  -8.111  0.00  0.00    +0.282 C 
ATOM      5  O   UNK A   0       9.039   1.723  -9.069  0.00  0.00    -0.267 OA
BRANCH   4   6
ATOM      6  C   UNK A   0       6.921   2.554  -8.317  0.00  0.00    +0.237 C 
ATOM      7  O   UNK A   0       6.615   3.682  -7.949  0.00  0.00    -0.285 OA
BRANCH   6   8
ATOM      8  C   UNK A   0       5.971   1.552  -8.993  0.00  0.00    +0.152 C 
BRANCH   8   9
ATOM      9  N   UNK A   0       5.993   1.675 -10.448  0.00  0.00    -0.271 N 
ATOM     10  H   UNK A   0       5.659   2.514 -10.905  0.00  0.00    +0.153 HD
ATOM     11  C   UNK A   0       6.450   0.668 -11.250  0.00  0.00    +0.401 C 
ATOM     12  O   UNK A   0       6.899  -0.389 -10.834  0.00  0.00    -0.226 OA
BRANCH  11  13
ATOM     13  O   UNK A   0       6.340   1.017 -12.555  0.00  0.00    -0.446 OA
BRANCH  13  14
ATOM     14  C   UNK A   0       7.079   0.184 -13.460  0.00  0.00    +0.269 C 
BRANCH  14  15
ATOM     15  C   UNK A   0       6.197  -0.578 -14.420  0.00  0.00    -0.010 A 
ATOM     16  C   UNK A   0       5.775  -1.882 -14.123  0.00  0.00    +0.007 A 
ATOM     17  C   UNK A   0       5.030  -2.617 -15.050  0.00  0.00    +0.000 A 
ATOM     18  C   UNK A   0       4.690  -2.053 -16.279  0.00  0.00    +0.000 A 
ATOM     19  C   UNK A   0       5.091  -0.754 -16.580  0.00  0.00    +0.000 A 
ATOM     20  C   UNK A   0       5.837  -0.018 -15.655  0.00  0.00    +0.007 A 
ENDBRANCH  14  15
ENDBRANCH  13  14
ENDBRANCH  11  13
ENDBRANCH   8   9
BRANCH   8  21
ATOM     21  C   UNK A   0       4.518   1.722  -8.480  0.00  0.00    +0.034 C 
BRANCH  21  22
ATOM     22  C   UNK A   0       3.517   0.698  -9.083  0.00  0.00    -0.009 C 
ATOM     23  C   UNK A   0       2.061   0.986  -8.662  0.00  0.00    +0.003 C 
ATOM     24  C   UNK A   0       1.695   0.495  -7.261  0.00  0.00    +0.000 C 
ATOM     25  C   UNK A   0       2.122  -0.948  -7.016  0.00  0.00    +0.000 C 
ATOM     26  C   UNK A   0       3.598  -1.148  -7.332  0.00  0.00    +0.000 C 
ATOM     27  C   UNK A   0       3.882  -0.764  -8.780  0.00  0.00    +0.003 C 
ENDBRANCH  21  22
ENDBRANCH   8  21
ENDBRANCH   6   8
ENDBRANCH   4   6
ENDBRANCH   1   2
BRANCH   1  28
ATOM     28  C   GLU A   1      10.814   2.882  -5.637  0.00  0.00    +0.234 C 
ATOM     29  N   GLU A   1      12.129   2.713  -5.229  0.00  0.00    -0.302 N 
ATOM     30  H   GLU A   1      12.715   2.082  -5.764  0.00  0.00    +0.150 HD
ATOM     31  O   GLU A   1      10.197   3.911  -5.361  0.00  0.00    -0.274 OA
BRANCH  29  32
ATOM     32  CA  GLU A   1      12.793   3.720  -4.386  0.00  0.00    +0.159 C 
BRANCH  32  33
ATOM     33  C   GLU A   1      13.445   4.837  -5.243  0.00  0.00    +0.234 C 
ATOM     34  N   PHE A   2      13.213   6.120  -4.774  0.00  0.00    -0.301 N 
ATOM     35  H   PHE A   2      12.462   6.254  -4.102  0.00  0.00    +0.150 HD
ATOM     36  O   GLU A   1      14.136   4.599  -6.228  0.00  0.00    -0.274 OA
BRANCH  34  37
ATOM     37  CA  PHE A   2      13.703   7.346  -5.439  0.00  0.00    +0.182 C 
BRANCH  37  38
ATOM     38  C   PHE A   2      12.534   8.011  -6.211  0.00  0.00    +0.325 C 
ATOM     39  OXT PHE A   2      12.484   9.199  -6.496  0.00  0.00    -0.249 OA
BRANCH  38  40
ATOM     40  O   PHE A   2      11.563   7.156  -6.607  0.00  0.00    -0.479 OA
ATOM     41  H   PHE A   2      11.763   6.221  -6.413  0.00  0.00    +0.295 HD
ENDBRANCH  38  40
ENDBRANCH  37  38
BRANCH  37  42
ATOM     42  CB  PHE A   2      14.258   8.386  -4.437  0.00  0.00    +0.037 C 
BRANCH  42  43
ATOM     43  CG  PHE A   2      15.523   8.027  -3.619  0.00  0.00    -0.009 C 
ATOM     44  CD2 PHE A   2      15.811   9.120  -2.564  0.00  0.00    +0.003 C 
ATOM     45  CE2 PHE A   2      16.292  10.438  -3.175  0.00  0.00    +0.000 C 
ATOM     46  CZ  PHE A   2      17.490  10.249  -4.101  0.00  0.00    +0.000 C 
ATOM     47  CE1 PHE A   2      17.304   9.113  -5.105  0.00  0.00    +0.000 C 
ATOM     48  CD1 PHE A   2      16.796   7.824  -4.455  0.00  0.00    +0.003 C 
ENDBRANCH  42  43
ENDBRANCH  37  42
ENDBRANCH  34  37
ENDBRANCH  32  33
BRANCH  32  49
ATOM     49  CB  GLU A   1      13.864   3.072  -3.489  0.00  0.00    +0.043 C 
BRANCH  49  50
ATOM     50  CG  GLU A   1      14.600   4.095  -2.623  0.00  0.00    +0.123 C 
BRANCH  50  51
ATOM     51  CD  GLU A   1      15.540   3.438  -1.648  0.00  0.00    +0.305 C 
ATOM     52  OE2 GLU A   1      15.223   3.118  -0.514  0.00  0.00    -0.251 OA
BRANCH  51  53
ATOM     53  OE1 GLU A   1      16.773   3.216  -2.153  0.00  0.00    -0.481 OA
ATOM     54  HE1 GLU A   1      16.908   3.532  -3.067  0.00  0.00    +0.295 HD
ENDBRANCH  51  53
ENDBRANCH  50  51
ENDBRANCH  49  50
ENDBRANCH  32  49
ENDBRANCH  29  32
ENDBRANCH   1  28
BRANCH   1  55
ATOM     55  CB  GLU A   1      10.156   0.432  -5.497  0.00  0.00    +0.035 C 
BRANCH  55  56
ATOM     56  CG  GLU A   1       9.585  -0.832  -6.164  0.00  0.00    +0.039 C 
BRANCH  56  57
ATOM     57  CD  GLU A   1       9.606  -2.060  -5.240  0.00  0.00    +0.196 C 
BRANCH  57  62
ATOM     58  NH1 GLU A   1      12.549  -3.588  -3.835  0.00  0.00    -0.289 N 
ATOM     59 HH11 GLU A   1      13.124  -3.451  -4.657  0.00  0.00    +0.255 HD
ATOM     60 HH12 GLU A   1      12.820  -4.428  -3.344  0.00  0.00    +0.255 HD
ATOM     61  CZ  GLU A   1      11.229  -3.486  -4.088  0.00  0.00    +0.376 C 
ATOM     62  NE  GLU A   1      10.969  -2.520  -5.000  0.00  0.00    -0.276 N 
ATOM     63  HE  GLU A   1      11.676  -1.802  -5.033  0.00  0.00    +0.258 HD
ATOM     64  NH2 GLU A   1      10.347  -4.217  -3.516  0.00  0.00    -0.130 NA
ATOM     65  HH2 GLU A   1      10.795  -4.855  -2.857  0.00  0.00    +0.306 HD
ENDBRANCH  57  62
ENDBRANCH  56  57
ENDBRANCH  55  56
ENDBRANCH   1  55
TORSDOF 25
