REMARK  Name = 
REMARK  5 active torsions:
REMARK  status: ('A' for Active; 'I' for Inactive)
REMARK    1  A    between atoms: C_1  and  C_2
REMARK    2  A    between atoms: C_2  and  C_3
REMARK    3  A    between atoms: C_3  and  N_4
REMARK    4  A    between atoms: C_3  and  C_5
REMARK    5  A    between atoms: C_5  and  C_6
REMARK                            x       y       z     vdW  Elec       q    Type
REMARK                         _______ _______ _______ _____ _____    ______ ____
ROOT
ATOM      1  C   UNL     1       5.070  -2.146   1.958  0.00  0.00    -0.021 A 
ATOM      2  C   UNL     1       4.723  -3.536   1.985  0.00  0.00    +0.003 A 
ATOM      3  C   UNL     1       5.275  -4.081   3.144  0.00  0.00    +0.047 A 
ATOM      4  C   UNL     1       5.042  -5.401   3.546  0.00  0.00    +0.026 A 
ATOM      5  C   UNL     1       4.228  -6.194   2.729  0.00  0.00    +0.002 A 
ATOM      6  C   UNL     1       3.699  -5.694   1.543  0.00  0.00    +0.001 A 
ATOM      7  N   UNL     1       6.023  -3.091   3.739  0.00  0.00    -0.360 N 
ATOM      8  H   UNL     1       6.555  -3.210   4.589  0.00  0.00    +0.165 HD
ATOM      9  C   UNL     1       3.945  -4.373   1.156  0.00  0.00    +0.010 A 
ATOM     10  C   UNL     1       5.904  -1.922   3.037  0.00  0.00    +0.087 A 
ENDROOT
BRANCH   1  11
ATOM     11  C   UNL     1       4.577  -1.112   0.987  0.00  0.00    +0.055 C 
BRANCH  11  12
ATOM     12  C   UNL     1       3.032  -0.975   0.969  0.00  0.00    +0.055 C 
BRANCH  12  13
ATOM     13  N   UNL     1       2.638  -0.006  -0.066  0.00  0.00    -0.327 NA
ATOM     14  H   UNL     1       1.630  -0.051  -0.202  0.00  0.00    +0.118 HD
ATOM     15  H   UNL     1       2.834   0.941   0.263  0.00  0.00    +0.118 HD
ENDBRANCH  12  13
BRANCH  12  17
ATOM     16  C   UNL     1       0.940  -0.578   2.399  0.00  0.00    +0.005 C 
ATOM     17  C   UNL     1       2.463  -0.578   2.348  0.00  0.00    +0.015 C 
ENDBRANCH  12  17
ENDBRANCH  11  12
ENDBRANCH   1  11
TORSDOF 4
