REMARK  Name = 
REMARK  22 active torsions:
REMARK  status: ('A' for Active; 'I' for Inactive)
REMARK    1  A    between atoms: N_1  and  C_2
REMARK    2  A    between atoms: C_2  and  C_3
REMARK    3  A    between atoms: C_6  and  O_8
REMARK    4  A    between atoms: O_8  and  C_9
REMARK    5  A    between atoms: C_11  and  C_13
REMARK    6  A    between atoms: C_13  and  O_14
REMARK    7  A    between atoms: C_16  and  O_18
REMARK    8  A    between atoms: O_18  and  C_19
REMARK    9  A    between atoms: C_21  and  O_23
REMARK   10  A    between atoms: C_24  and  N_26
REMARK   11  A    between atoms: C_28  and  N_30
REMARK   12  A    between atoms: C_31  and  O_33
REMARK   13  A    between atoms: O_33  and  C_34
REMARK   14  A    between atoms: C_37  and  C_39
REMARK   15  A    between atoms: C_39  and  O_40
REMARK   16  A    between atoms: C_41  and  O_43
REMARK   17  A    between atoms: C_44  and  O_46
REMARK   18  A    between atoms: C_47  and  N_49
REMARK   19  A    between atoms: C_50  and  O_52
REMARK   20  A    between atoms: C_53  and  N_55
REMARK   21  A    between atoms: C_56  and  O_58
REMARK   22  A    between atoms: C_59  and  O_61
REMARK                            x       y       z     vdW  Elec       q    Type
REMARK                         _______ _______ _______ _____ _____    ______ ____
ROOT
ATOM      1  C   UNL     1       0.228   6.919  -0.533  0.00  0.00    +0.182 C 
ATOM      2  C   UNL     1       1.364   7.474   0.362  0.00  0.00    +0.169 C 
ATOM      3  C   UNL     1       0.946   8.705   1.225  0.00  0.00    +0.084 C 
ATOM      4  C   UNL     1       0.042   9.707   0.497  0.00  0.00    +0.042 C 
ATOM      5  C   UNL     1      -1.198   9.032  -0.081  0.00  0.00    +0.084 C 
ATOM      6  C   UNL     1      -0.759   7.945  -1.067  0.00  0.00    +0.163 C 
ENDROOT
BRANCH   3   7
ATOM      7  N   UNL     1       2.153   9.439   1.685  0.00  0.00    -0.325 NA
ATOM      8  H   UNL     1       2.673   9.786   0.877  0.00  0.00    +0.119 HD
ATOM      9  H   UNL     1       1.854  10.280   2.186  0.00  0.00    +0.119 HD
ENDBRANCH   3   7
BRANCH   5  10
ATOM     10  N   UNL     1      -1.995  10.034  -0.835  0.00  0.00    -0.325 NA
ATOM     11  H   UNL     1      -1.398  10.471  -1.543  0.00  0.00    +0.119 HD
ATOM     12  H   UNL     1      -2.663   9.492  -1.401  0.00  0.00    +0.119 HD
ENDBRANCH   5  10
BRANCH   6  13
ATOM     13  O   UNL     1      -1.902   7.271  -1.619  0.00  0.00    -0.388 OA
ATOM     14  H   UNL     1      -1.523   6.557  -2.174  0.00  0.00    +0.210 HD
ENDBRANCH   6  13
BRANCH   2  15
ATOM     15  O   UNL     1       1.873   6.458   1.290  0.00  0.00    -0.342 OA
BRANCH  15  16
ATOM     16  C   UNL     1       2.407   5.292   0.650  0.00  0.00    +0.270 C 
ATOM     17  C   UNL     1       3.011   4.247   1.647  0.00  0.00    +0.139 C 
ATOM     18  C   UNL     1       4.332   4.757   2.259  0.00  0.00    +0.167 C 
ATOM     19  C   UNL     1       5.277   5.286   1.165  0.00  0.00    +0.176 C 
ATOM     20  C   UNL     1       4.525   6.310   0.313  0.00  0.00    +0.178 C 
ATOM     21  O   UNL     1       3.396   5.680  -0.310  0.00  0.00    -0.342 OA
BRANCH  17  22
ATOM     22  N   UNL     1       2.086   3.779   2.707  0.00  0.00    -0.321 NA
ATOM     23  H   UNL     1       2.620   3.141   3.308  0.00  0.00    +0.119 HD
ATOM     24  H   UNL     1       1.845   4.571   3.303  0.00  0.00    +0.119 HD
ENDBRANCH  17  22
BRANCH  19  25
ATOM     25  O   UNL     1       6.445   5.845   1.777  0.00  0.00    -0.387 OA
ATOM     26  H   UNL     1       6.167   6.579   2.356  0.00  0.00    +0.210 HD
ENDBRANCH  19  25
BRANCH  18  27
ATOM     27  O   UNL     1       4.978   3.691   2.981  0.00  0.00    -0.387 OA
ATOM     28  H   UNL     1       5.919   3.939   3.066  0.00  0.00    +0.210 HD
ENDBRANCH  18  27
BRANCH  20  29
ATOM     29  C   UNL     1       5.355   6.971  -0.789  0.00  0.00    +0.190 C 
BRANCH  29  30
ATOM     30  O   UNL     1       5.762   6.041  -1.785  0.00  0.00    -0.392 OA
ATOM     31  H   UNL     1       6.493   5.519  -1.411  0.00  0.00    +0.210 HD
ENDBRANCH  29  30
ENDBRANCH  20  29
ENDBRANCH  15  16
ENDBRANCH   2  15
BRANCH   1  32
ATOM     32  O   UNL     1       0.704   6.116  -1.653  0.00  0.00    -0.340 OA
BRANCH  32  35
ATOM     33  C   UNL     1       1.564   6.384  -5.099  0.00  0.00    +0.186 C 
ATOM     34  C   UNL     1       1.834   5.710  -3.756  0.00  0.00    +0.202 C 
ATOM     35  C   UNL     1       1.425   6.767  -2.720  0.00  0.00    +0.282 C 
ATOM     36  O   UNL     1       0.641   7.742  -3.403  0.00  0.00    -0.341 OA
ATOM     37  C   UNL     1       0.464   7.389  -4.778  0.00  0.00    +0.178 C 
BRANCH  34  38
ATOM     38  O   UNL     1       3.180   5.261  -3.600  0.00  0.00    -0.384 OA
ATOM     39  H   UNL     1       3.425   5.327  -2.654  0.00  0.00    +0.210 HD
ENDBRANCH  34  38
BRANCH  37  40
ATOM     40  C   UNL     1      -0.974   6.921  -5.020  0.00  0.00    +0.190 C 
BRANCH  40  41
ATOM     41  O   UNL     1      -1.246   5.677  -4.388  0.00  0.00    -0.392 OA
ATOM     42  H   UNL     1      -2.179   5.468  -4.582  0.00  0.00    +0.210 HD
ENDBRANCH  40  41
ENDBRANCH  37  40
BRANCH  33  43
ATOM     43  O   UNL     1       2.650   7.187  -5.599  0.00  0.00    -0.341 OA
BRANCH  43  48
ATOM     44  C   UNL     1       4.033   4.722  -7.877  0.00  0.00    +0.166 C 
ATOM     45  C   UNL     1       5.129   5.538  -8.597  0.00  0.00    +0.175 C 
ATOM     46  C   UNL     1       5.744   6.575  -7.631  0.00  0.00    +0.167 C 
ATOM     47  C   UNL     1       4.654   7.404  -6.918  0.00  0.00    +0.139 C 
ATOM     48  C   UNL     1       3.644   6.422  -6.270  0.00  0.00    +0.270 C 
ATOM     49  O   UNL     1       3.061   5.611  -7.292  0.00  0.00    -0.343 OA
BRANCH  47  50
ATOM     50  N   UNL     1       3.964   8.319  -7.876  0.00  0.00    -0.321 NA
ATOM     51  H   UNL     1       3.382   7.721  -8.480  0.00  0.00    +0.119 HD
ATOM     52  H   UNL     1       3.257   8.822  -7.329  0.00  0.00    +0.119 HD
ENDBRANCH  47  50
BRANCH  46  53
ATOM     53  O   UNL     1       6.625   5.944  -6.693  0.00  0.00    -0.387 OA
ATOM     54  H   UNL     1       6.130   5.366  -6.087  0.00  0.00    +0.210 HD
ENDBRANCH  46  53
BRANCH  45  55
ATOM     55  O   UNL     1       4.565   6.176  -9.755  0.00  0.00    -0.387 OA
ATOM     56  H   UNL     1       4.942   7.074  -9.822  0.00  0.00    +0.210 HD
ENDBRANCH  45  55
BRANCH  44  57
ATOM     57  C   UNL     1       3.286   3.779  -8.836  0.00  0.00    +0.112 C 
BRANCH  57  58
ATOM     58  N   UNL     1       2.372   2.895  -8.096  0.00  0.00    -0.328 NA
ATOM     59  H   UNL     1       1.723   3.487  -7.574  0.00  0.00    +0.118 HD
ATOM     60  H   UNL     1       1.807   2.371  -8.762  0.00  0.00    +0.118 HD
ENDBRANCH  57  58
ENDBRANCH  44  57
ENDBRANCH  43  48
ENDBRANCH  33  43
ENDBRANCH  32  35
ENDBRANCH   1  32
TORSDOF 22
