REMARK  Name = 
REMARK  13 active torsions:
REMARK  status: ('A' for Active; 'I' for Inactive)
REMARK    1  A    between atoms: O_1  and  C_2
REMARK    2  A    between atoms: C_5  and  N_24
REMARK    3  A    between atoms: C_8  and  C_10
REMARK    4  A    between atoms: C_10  and  O_11
REMARK    5  A    between atoms: O_11  and  P_12
REMARK    6  A    between atoms: P_12  and  O_13
REMARK    7  A    between atoms: P_12  and  N_15
REMARK    8  A    between atoms: N_15  and  P_16
REMARK    9  A    between atoms: P_16  and  O_17
REMARK   10  A    between atoms: P_16  and  O_19
REMARK   11  A    between atoms: O_19  and  P_20
REMARK   12  A    between atoms: P_20  and  O_21
REMARK   13  A    between atoms: P_20  and  O_22
REMARK                            x       y       z     vdW  Elec       q    Type
REMARK                         _______ _______ _______ _____ _____    ______ ____
ROOT
ATOM      1  O   UNL     1      -3.904   1.800   1.911  0.00  0.00    -0.293 OA
ENDROOT
BRANCH   1   2
ATOM      2  P   UNL     1      -2.673   0.730   1.965  0.00  0.00    +0.415 P 
ATOM      3  O   UNL     1      -1.658   1.175   2.964  0.00  0.00    -0.240 OA
BRANCH   2   4
ATOM      4  N   UNL     1      -3.176  -0.797   2.108  0.00  0.00    -0.125 NA
ATOM      5  H   UNL     1      -3.212  -1.078   3.079  0.00  0.00    +0.146 HD
BRANCH   4   6
ATOM      6  P   UNL     1      -2.015  -1.646   1.346  0.00  0.00    +0.423 P 
ATOM      7  O   UNL     1      -0.651  -1.128   1.051  0.00  0.00    -0.239 OA
BRANCH   6   8
ATOM      8  O   UNL     1      -1.791  -2.932   2.285  0.00  0.00    -0.312 OA
ATOM      9  H   UNL     1      -0.957  -3.362   1.997  0.00  0.00    +0.221 HD
ENDBRANCH   6   8
BRANCH   6  10
ATOM     10  O   UNL     1      -2.718  -2.362   0.111  0.00  0.00    -0.196 OA
BRANCH  10  11
ATOM     11  P   UNL     1      -3.111  -1.698  -1.270  0.00  0.00    +0.480 P 
ATOM     12  O   UNL     1      -2.046  -1.365  -2.247  0.00  0.00    -0.227 OA
BRANCH  11  13
ATOM     13  O   UNL     1      -4.035  -0.434  -0.910  0.00  0.00    -0.302 OA
ATOM     14  H   UNL     1      -4.445  -0.098  -1.736  0.00  0.00    +0.222 HD
ENDBRANCH  11  13
BRANCH  11  15
ATOM     15  O   UNL     1      -4.235  -2.694  -1.811  0.00  0.00    -0.302 OA
ATOM     16  H   UNL     1      -4.886  -2.941  -1.130  0.00  0.00    +0.222 HD
ENDBRANCH  11  15
ENDBRANCH  10  11
ENDBRANCH   6  10
ENDBRANCH   4   6
ENDBRANCH   2   4
BRANCH   2  17
ATOM     17  O   UNL     1      -2.254   0.912   0.431  0.00  0.00    -0.312 OA
ATOM     18  H   UNL     1      -3.012   0.707  -0.155  0.00  0.00    +0.221 HD
ENDBRANCH   2  17
ENDBRANCH   1   2
BRANCH   1  19
ATOM     19  C   UNL     1      -3.391   3.111   1.634  0.00  0.00    +0.205 C 
BRANCH  19  21
ATOM     20  C   UNL     1      -5.339   4.688   2.178  0.00  0.00    +0.150 C 
ATOM     21  C   UNL     1      -4.363   4.165   1.136  0.00  0.00    +0.175 C 
ATOM     22  O   UNL     1      -3.513   5.283   0.759  0.00  0.00    -0.348 OA
ATOM     23  C   UNL     1      -3.900   6.453   1.495  0.00  0.00    +0.226 C 
ATOM     24  C   UNL     1      -4.640   5.917   2.716  0.00  0.00    +0.088 C 
BRANCH  23  25
ATOM     25  N   UNL     1      -4.675   7.328   0.610  0.00  0.00    -0.274 N 
ATOM     26  C   UNL     1      -5.157   8.523   1.128  0.00  0.00    +0.331 A 
ATOM     27  O   UNL     1      -4.977   8.894   2.278  0.00  0.00    -0.246 OA
ATOM     28  N   UNL     1      -5.864   9.313   0.251  0.00  0.00    -0.275 N 
ATOM     29  H   UNL     1      -6.231  10.177   0.619  0.00  0.00    +0.173 HD
ATOM     30  C   UNL     1      -6.027   9.086  -1.078  0.00  0.00    +0.254 A 
ATOM     31  O   UNL     1      -6.623   9.849  -1.826  0.00  0.00    -0.268 OA
ATOM     32  C   UNL     1      -5.414   7.857  -1.593  0.00  0.00    +0.088 A 
ATOM     33  C   UNL     1      -4.767   7.059  -0.748  0.00  0.00    +0.098 A 
ENDBRANCH  23  25
BRANCH  20  34
ATOM     34  O   UNL     1      -6.576   5.069   1.567  0.00  0.00    -0.389 OA
ATOM     35  H   UNL     1      -6.389   5.710   0.857  0.00  0.00    +0.210 HD
ENDBRANCH  20  34
ENDBRANCH  19  21
ENDBRANCH   1  19
TORSDOF 13
