REMARK  Name = 
REMARK  24 active torsions:
REMARK  status: ('A' for Active; 'I' for Inactive)
REMARK    1  A    between atoms: C_1  and  C_2
REMARK    2  A    between atoms: C_2  and  C_3
REMARK    3  A    between atoms: C_2  and  S_4
REMARK    4  A    between atoms: C_2  and  S_20
REMARK    5  A    between atoms: S_4  and  C_5
REMARK    6  A    between atoms: C_7  and  C_16
REMARK    7  A    between atoms: C_8  and  O_9
REMARK    8  A    between atoms: C_10  and  C_12
REMARK    9  A    between atoms: C_12  and  C_13
REMARK   10  A    between atoms: C_12  and  C_14
REMARK   11  A    between atoms: C_12  and  C_15
REMARK   12  A    between atoms: C_16  and  C_17
REMARK   13  A    between atoms: C_16  and  C_18
REMARK   14  A    between atoms: C_16  and  C_19
REMARK   15  A    between atoms: S_20  and  C_21
REMARK   16  A    between atoms: C_23  and  C_32
REMARK   17  A    between atoms: C_24  and  O_25
REMARK   18  A    between atoms: C_26  and  C_28
REMARK   19  A    between atoms: C_28  and  C_29
REMARK   20  A    between atoms: C_28  and  C_30
REMARK   21  A    between atoms: C_28  and  C_31
REMARK   22  A    between atoms: C_32  and  C_33
REMARK   23  A    between atoms: C_32  and  C_34
REMARK   24  A    between atoms: C_32  and  C_35
REMARK                            x       y       z     vdW  Elec       q    Type
REMARK                         _______ _______ _______ _____ _____    ______ ____
ROOT
ATOM      1  C   UNL     1       0.978  -0.127  -0.071  0.00  0.00    +0.035 C 
ATOM      2  C   UNL     1       2.510  -0.020  -0.103  0.00  0.00    +0.066 C 
ATOM      3  C   UNL     1       3.022  -0.267  -1.525  0.00  0.00    +0.035 C 
ENDROOT
BRANCH   2   4
ATOM      4  S   UNL     1       3.115  -1.377   1.040  0.00  0.00    -0.108 S 
BRANCH   4   5
ATOM      5  C   UNL     1       4.892  -1.254   0.905  0.00  0.00    +0.010 A 
ATOM      6  C   UNL     1       5.581  -1.964  -0.074  0.00  0.00    +0.022 A 
ATOM      7  C   UNL     1       6.979  -1.877  -0.203  0.00  0.00    +0.001 A 
ATOM      8  C   UNL     1       7.670  -1.073   0.750  0.00  0.00    +0.124 A 
ATOM      9  C   UNL     1       7.013  -0.373   1.797  0.00  0.00    +0.001 A 
ATOM     10  C   UNL     1       5.607  -0.494   1.831  0.00  0.00    +0.022 A 
BRANCH   7  11
ATOM     11  C   UNL     1       7.706  -2.630  -1.350  0.00  0.00    -0.009 C 
ATOM     12  C   UNL     1       8.460  -1.637  -2.265  0.00  0.00    +0.015 C 
ATOM     13  C   UNL     1       6.744  -3.411  -2.288  0.00  0.00    +0.015 C 
ATOM     14  C   UNL     1       8.692  -3.678  -0.787  0.00  0.00    +0.015 C 
ENDBRANCH   7  11
BRANCH   9  15
ATOM     15  C   UNL     1       7.720   0.469   2.894  0.00  0.00    -0.009 C 
ATOM     16  C   UNL     1       8.491   1.670   2.297  0.00  0.00    +0.015 C 
ATOM     17  C   UNL     1       8.666  -0.425   3.728  0.00  0.00    +0.015 C 
ATOM     18  C   UNL     1       6.736   1.101   3.922  0.00  0.00    +0.015 C 
ENDBRANCH   9  15
BRANCH   8  19
ATOM     19  O   UNL     1       9.029  -1.028   0.600  0.00  0.00    -0.506 OA
ATOM     20  H   UNL     1       9.428  -0.435   1.244  0.00  0.00    +0.292 HD
ENDBRANCH   8  19
ENDBRANCH   4   5
ENDBRANCH   2   4
BRANCH   2  21
ATOM     21  S   UNL     1       3.043   1.627   0.582  0.00  0.00    -0.108 S 
BRANCH  21  22
ATOM     22  C   UNL     1       2.326   2.805  -0.555  0.00  0.00    +0.010 A 
ATOM     23  C   UNL     1       3.045   3.234  -1.667  0.00  0.00    +0.022 A 
ATOM     24  C   UNL     1       2.541   4.213  -2.544  0.00  0.00    +0.001 A 
ATOM     25  C   UNL     1       1.258   4.755  -2.245  0.00  0.00    +0.124 A 
ATOM     26  C   UNL     1       0.502   4.372  -1.104  0.00  0.00    +0.001 A 
ATOM     27  C   UNL     1       1.090   3.391  -0.273  0.00  0.00    +0.022 A 
BRANCH  24  28
ATOM     28  C   UNL     1       3.387   4.676  -3.764  0.00  0.00    -0.009 C 
ATOM     29  C   UNL     1       2.645   4.403  -5.091  0.00  0.00    +0.015 C 
ATOM     30  C   UNL     1       4.750   3.943  -3.884  0.00  0.00    +0.015 C 
ATOM     31  C   UNL     1       3.723   6.179  -3.650  0.00  0.00    +0.015 C 
ENDBRANCH  24  28
BRANCH  26  32
ATOM     32  C   UNL     1      -0.884   4.962  -0.716  0.00  0.00    -0.009 C 
ATOM     33  C   UNL     1      -1.949   4.660  -1.797  0.00  0.00    +0.015 C 
ATOM     34  C   UNL     1      -0.794   6.485  -0.460  0.00  0.00    +0.015 C 
ATOM     35  C   UNL     1      -1.466   4.363   0.598  0.00  0.00    +0.015 C 
ENDBRANCH  26  32
BRANCH  25  36
ATOM     36  O   UNL     1       0.798   5.690  -3.132  0.00  0.00    -0.506 OA
ATOM     37  H   UNL     1      -0.077   6.007  -2.885  0.00  0.00    +0.292 HD
ENDBRANCH  25  36
ENDBRANCH  21  22
ENDBRANCH   2  21
TORSDOF 10
