REMARK  Name = 
REMARK  8 active torsions:
REMARK  status: ('A' for Active; 'I' for Inactive)
REMARK    1  A    between atoms: CA_2  and  CB_3
REMARK    2  A    between atoms: CA_2  and  N_7
REMARK    3  A    between atoms: CA_2  and  C_11
REMARK    4  A    between atoms: CB_3  and  CG_4
REMARK    5  A    between atoms: CG_4  and  SD_5
REMARK    6  A    between atoms: SD_5  and  CE_6
REMARK    7  A    between atoms: C_8  and  C_9
REMARK    8  A    between atoms: C_11  and  O_12
REMARK                            x       y       z     vdW  Elec       q    Type
REMARK                         _______ _______ _______ _____ _____    ______ ____
ROOT
ATOM      1  CA  MET A   1       2.141  -0.046   0.004  0.00  0.00    +0.182 C 
ENDROOT
BRANCH   1   2
ATOM      2  N   MET A   1       2.636   0.096   1.374  0.00  0.00    -0.303 N 
ATOM      3  H   MET A   1       3.250  -0.636   1.722  0.00  0.00    +0.149 HD
ATOM      4  C   UNK A   0       2.204   1.092   2.212  0.00  0.00    +0.211 C 
ATOM      5  O   UNK A   0       1.436   1.982   1.862  0.00  0.00    -0.276 OA
ATOM      6  C   UNK A   0       2.740   1.005   3.614  0.00  0.00    +0.109 C 
ENDBRANCH   1   2
BRANCH   1   7
ATOM      7  C   MET A   1       2.550  -1.445  -0.474  0.00  0.00    +0.325 C 
ATOM      8  OXT MET A   1       3.543  -2.038  -0.070  0.00  0.00    -0.249 OA
BRANCH   7   9
ATOM      9  O   MET A   1       1.724  -1.976  -1.405  0.00  0.00    -0.479 OA
ATOM     10  H   MET A   1       0.963  -1.400  -1.633  0.00  0.00    +0.295 HD
ENDBRANCH   7   9
ENDBRANCH   1   7
BRANCH   1  11
ATOM     11  CB  MET A   1       2.706   1.043  -0.921  0.00  0.00    +0.044 C 
BRANCH  11  12
ATOM     12  CG  MET A   1       2.271   0.961  -2.387  0.00  0.00    +0.071 C 
BRANCH  12  13
ATOM     13  SD  MET A   1       0.455   0.926  -2.560  0.00  0.00    -0.164 S 
ATOM     14  CE  MET A   1       0.338   0.868  -4.364  0.00  0.00    +0.084 C 
ENDBRANCH  12  13
ENDBRANCH  11  12
ENDBRANCH   1  11
TORSDOF 6
