REMARK  Name = 
REMARK  6 active torsions:
REMARK  status: ('A' for Active; 'I' for Inactive)
REMARK    1  A    between atoms: C_1  and  O_2
REMARK    2  A    between atoms: O_2  and  C_3
REMARK    3  A    between atoms: C_4  and  O_5
REMARK    4  A    between atoms: C_7  and  C_10
REMARK    5  A    between atoms: C_16  and  O_17
REMARK    6  A    between atoms: C_19  and  O_20
REMARK                            x       y       z     vdW  Elec       q    Type
REMARK                         _______ _______ _______ _____ _____    ______ ____
ROOT
ATOM      1  C   UNL     1       5.534   2.039   4.511  0.00  0.00    +0.211 C 
ATOM      2  O   UNL     1       5.141   3.372   4.890  0.00  0.00    -0.483 OA
ATOM      3  C   UNL     1       5.797   3.862   5.987  0.00  0.00    +0.139 A 
ATOM      4  C   UNL     1       6.462   3.062   6.917  0.00  0.00    +0.101 A 
ATOM      5  C   UNL     1       7.105   3.645   8.014  0.00  0.00    +0.134 A 
ATOM      6  C   UNL     1       7.065   5.023   8.201  0.00  0.00    +0.091 A 
ATOM      7  C   UNL     1       6.374   5.811   7.285  0.00  0.00    +0.124 A 
ATOM      8  C   UNL     1       6.400   1.602   6.749  0.00  0.00    +0.174 C 
ATOM      9  O   UNL     1       7.035   0.869   7.503  0.00  0.00    -0.292 OA
ATOM     10  C   UNL     1       5.744   5.243   6.179  0.00  0.00    +0.092 A 
ATOM     11  C   UNL     1       5.466   1.089   5.698  0.00  0.00    +0.129 C 
ENDROOT
BRANCH   1  15
ATOM     12  C   UNL     1       2.847   0.499   1.469  0.00  0.00    +0.161 A 
ATOM     13  C   UNL     1       2.380   1.400   2.422  0.00  0.00    +0.050 A 
ATOM     14  C   UNL     1       3.251   1.911   3.390  0.00  0.00    +0.011 A 
ATOM     15  C   UNL     1       4.605   1.541   3.417  0.00  0.00    -0.003 A 
ATOM     16  C   UNL     1       5.069   0.626   2.460  0.00  0.00    +0.056 A 
ATOM     17  C   UNL     1       4.188   0.107   1.515  0.00  0.00    +0.159 A 
BRANCH  12  19
ATOM     18  C   UNL     1       0.979   0.679   0.035  0.00  0.00    +0.277 C 
ATOM     19  O   UNL     1       2.079  -0.098   0.503  0.00  0.00    -0.491 OA
ENDBRANCH  12  19
BRANCH  17  20
ATOM     20  O   UNL     1       4.670  -0.816   0.626  0.00  0.00    -0.503 OA
ATOM     21  H   UNL     1       3.891  -1.102   0.111  0.00  0.00    +0.292 HD
ENDBRANCH  17  20
ENDBRANCH   1  15
BRANCH   7  22
ATOM     22  O   UNL     1       6.286   7.163   7.439  0.00  0.00    -0.507 OA
ATOM     23  H   UNL     1       6.751   7.416   8.255  0.00  0.00    +0.292 HD
ENDBRANCH   7  22
BRANCH   5  24
ATOM     24  O   UNL     1       7.779   2.915   8.956  0.00  0.00    -0.506 OA
ATOM     25  H   UNL     1       7.730   1.965   8.701  0.00  0.00    +0.292 HD
ENDBRANCH   5  24
TORSDOF 5
