REMARK  Name = 
REMARK  0 active torsions:
REMARK  status: ('A' for Active; 'I' for Inactive)
REMARK                            x       y       z     vdW  Elec       q    Type
REMARK                         _______ _______ _______ _____ _____    ______ ____
ROOT
ATOM      1  O   UNL     1       1.407  -1.035   1.097  0.00  0.00    -0.287 OA
ATOM      2  C   UNL     1       2.548  -0.800   0.731  0.00  0.00    +0.194 A 
ATOM      3  C   UNL     1       3.553  -1.911   0.451  0.00  0.00    +0.032 A 
ATOM      4  C   UNL     1       3.168  -3.240   0.637  0.00  0.00    +0.012 A 
ATOM      5  C   UNL     1       3.967  -4.260   0.115  0.00  0.00    +0.001 A 
ATOM      6  C   UNL     1       5.129  -3.957  -0.600  0.00  0.00    +0.001 A 
ATOM      7  C   UNL     1       5.592  -2.643  -0.667  0.00  0.00    +0.011 A 
ATOM      8  C   UNL     1       4.833  -1.625  -0.095  0.00  0.00    +0.014 A 
ATOM      9  C   UNL     1       5.269  -0.243  -0.089  0.00  0.00    +0.102 A 
ATOM     10  N   UNL     1       6.479   0.287  -0.302  0.00  0.00    -0.173 NA
ATOM     11  N   UNL     1       6.254   1.626  -0.193  0.00  0.00    -0.276 N 
ATOM     12  H   UNL     1       7.048   2.252  -0.272  0.00  0.00    +0.189 HD
ATOM     13  C   UNL     1       4.936   1.961  -0.001  0.00  0.00    +0.067 A 
ATOM     14  C   UNL     1       4.206   3.148   0.058  0.00  0.00    +0.028 A 
ATOM     15  C   UNL     1       2.814   3.009   0.266  0.00  0.00    +0.003 A 
ATOM     16  C   UNL     1       2.198   1.758   0.485  0.00  0.00    +0.012 A 
ATOM     17  C   UNL     1       4.320   0.744   0.166  0.00  0.00    +0.038 A 
ATOM     18  C   UNL     1       2.976   0.605   0.476  0.00  0.00    +0.034 A 
ENDROOT
TORSDOF 0
