REMARK  Name = 
REMARK  2 active torsions:
REMARK  status: ('A' for Active; 'I' for Inactive)
REMARK    1  A    between atoms: C_1  and  N_2
REMARK    2  A    between atoms: N_12  and  C_13
REMARK                            x       y       z     vdW  Elec       q    Type
REMARK                         _______ _______ _______ _____ _____    ______ ____
ROOT
ATOM      1  C   UNL     1       1.109  -0.055  -0.034  0.00  0.00    +0.150 C 
ATOM      2  N   UNL     1       2.549  -0.098  -0.035  0.00  0.00    -0.328 N 
ATOM      3  C   UNL     1       3.329  -1.217  -0.036  0.00  0.00    +0.151 A 
ATOM      4  C   UNL     1       3.011  -2.600  -0.036  0.00  0.00    +0.280 A 
ATOM      5  N   UNL     1       4.136  -3.395  -0.037  0.00  0.00    -0.273 N 
ATOM      6  H   UNL     1       3.986  -4.391  -0.038  0.00  0.00    +0.173 HD
ATOM      7  C   UNL     1       5.456  -2.982  -0.038  0.00  0.00    +0.331 A 
ATOM      8  N   UNL     1       5.693  -1.611  -0.037  0.00  0.00    -0.280 N 
ATOM      9  C   UNL     1       7.047  -1.093  -0.037  0.00  0.00    +0.155 C 
ATOM     10  O   UNL     1       6.344  -3.835  -0.039  0.00  0.00    -0.246 OA
ATOM     11  O   UNL     1       1.876  -3.062  -0.036  0.00  0.00    -0.265 OA
ATOM     12  C   UNL     1       4.614  -0.753  -0.036  0.00  0.00    +0.168 A 
ATOM     13  N   UNL     1       4.661   0.608  -0.035  0.00  0.00    -0.218 NA
ATOM     14  C   UNL     1       3.395   0.980  -0.034  0.00  0.00    +0.202 A 
ENDROOT
TORSDOF 0
