REMARK  Name = 
REMARK  4 active torsions:
REMARK  status: ('A' for Active; 'I' for Inactive)
REMARK    1  A    between atoms: C_1  and  C_2
REMARK    2  A    between atoms: C_2  and  C_4
REMARK    3  A    between atoms: C_4  and  C_5
REMARK    4  A    between atoms: C_5  and  O_6
REMARK                            x       y       z     vdW  Elec       q    Type
REMARK                         _______ _______ _______ _____ _____    ______ ____
ROOT
ATOM      1  C   UNL     1       3.381   0.964  -0.671  0.00  0.00    +0.194 C 
ENDROOT
BRANCH   1   3
ATOM      2  C   UNL     1       1.083   0.063   0.021  0.00  0.00    +0.086 C 
ATOM      3  C   UNL     1       2.582  -0.046   0.105  0.00  0.00    +0.141 C 
ATOM      4  O   UNL     1       3.126  -0.924   0.778  0.00  0.00    -0.297 OA
ENDBRANCH   1   3
BRANCH   1   5
ATOM      5  C   UNL     1       4.879   0.874  -0.601  0.00  0.00    +0.312 C 
ATOM      6  O   UNL     1       5.593   1.664  -1.208  0.00  0.00    -0.251 OA
BRANCH   5   7
ATOM      7  O   UNL     1       5.409  -0.109   0.152  0.00  0.00    -0.480 OA
ATOM      8  H   UNL     1       4.741  -0.687   0.596  0.00  0.00    +0.295 HD
ENDBRANCH   5   7
ENDBRANCH   1   5
TORSDOF 3
