REMARK  Name = 
REMARK  3 active torsions:
REMARK  status: ('A' for Active; 'I' for Inactive)
REMARK    1  A    between atoms: C_1  and  O_2
REMARK    2  A    between atoms: O_2  and  C_3
REMARK    3  A    between atoms: C_6  and  C_9
REMARK                            x       y       z     vdW  Elec       q    Type
REMARK                         _______ _______ _______ _____ _____    ______ ____
ROOT
ATOM      1  C   UNL     1       4.321   3.663  -4.046  0.00  0.00    +0.161 C 
ATOM      2  C   UNL     1       5.816   3.959  -4.033  0.00  0.00    +0.179 C 
ATOM      3  O   UNL     1       6.739   3.167  -4.138  0.00  0.00    -0.291 OA
ATOM      4  C   UNL     1       6.013   5.399  -3.896  0.00  0.00    +0.029 A 
ATOM      5  C   UNL     1       4.787   6.042  -3.879  0.00  0.00    +0.029 A 
ATOM      6  C   UNL     1       4.687   7.416  -3.748  0.00  0.00    +0.012 A 
ATOM      7  C   UNL     1       5.877   8.139  -3.633  0.00  0.00    +0.001 A 
ATOM      8  C   UNL     1       7.124   7.485  -3.656  0.00  0.00    +0.001 A 
ATOM      9  C   UNL     1       7.201   6.096  -3.790  0.00  0.00    +0.012 A 
ATOM     10  C   UNL     1       3.711   5.062  -4.008  0.00  0.00    +0.179 C 
ATOM     11  O   UNL     1       2.534   5.371  -4.071  0.00  0.00    -0.291 OA
ENDROOT
BRANCH   1  15
ATOM     12  C   UNL     1       3.042   0.901  -0.951  0.00  0.00    +0.120 A 
ATOM     13  C   UNL     1       3.966   0.509  -1.917  0.00  0.00    +0.046 A 
ATOM     14  C   UNL     1       4.380   1.411  -2.903  0.00  0.00    +0.008 A 
ATOM     15  C   UNL     1       3.895   2.730  -2.927  0.00  0.00    -0.029 A 
ATOM     16  C   UNL     1       3.013   3.122  -1.910  0.00  0.00    +0.008 A 
ATOM     17  C   UNL     1       2.594   2.219  -0.930  0.00  0.00    +0.046 A 
BRANCH  12  19
ATOM     18  C   UNL     1       1.305   0.066   0.386  0.00  0.00    +0.277 C 
ATOM     19  O   UNL     1       2.656  -0.058  -0.054  0.00  0.00    -0.495 OA
ENDBRANCH  12  19
ENDBRANCH   1  15
TORSDOF 2
