REMARK  Name = 
REMARK  6 active torsions:
REMARK  status: ('A' for Active; 'I' for Inactive)
REMARK    1  A    between atoms: C_16  and  C_18
REMARK    2  A    between atoms: C_18  and  S_19
REMARK    3  A    between atoms: S_19  and  C_20
REMARK    4  A    between atoms: N_22  and  C_23
REMARK    5  A    between atoms: C_23  and  C_24
REMARK    6  A    between atoms: C_24  and  C_25
REMARK                            x       y       z     vdW  Elec       q    Type
REMARK                         _______ _______ _______ _____ _____    ______ ____
ROOT
ATOM      1  C   UNL     1       2.473  -1.025  -0.085  0.00  0.00    +0.068 C 
ATOM      2  N   UNL     1       2.975  -1.248   1.272  0.00  0.00    -0.298 NA
ATOM      3  C   UNL     1       1.877  -1.064   2.240  0.00  0.00    +0.089 C 
ATOM      4  C   UNL     1       0.610  -0.292   1.731  0.00  0.00    +0.013 C 
ATOM      5  C   UNL     1       1.022   0.879   0.780  0.00  0.00    +0.015 C 
ATOM      6  C   UNL     1       2.071   0.493  -0.309  0.00  0.00    +0.037 C 
ATOM      7  C   UNL     1       1.669   0.751  -1.755  0.00  0.00    -0.033 A 
ATOM      8  C   UNL     1       1.861  -0.295  -2.676  0.00  0.00    +0.006 A 
ATOM      9  C   UNL     1       1.460  -0.226  -3.991  0.00  0.00    +0.047 A 
ATOM     10  C   UNL     1       0.989   0.959  -4.546  0.00  0.00    +0.026 A 
ATOM     11  C   UNL     1       0.943   2.073  -3.682  0.00  0.00    +0.002 A 
ATOM     12  N   UNL     1       1.647  -1.493  -4.504  0.00  0.00    -0.360 N 
ATOM     13  H   UNL     1       1.366  -1.795  -5.424  0.00  0.00    +0.165 HD
ATOM     14  C   UNL     1       2.299  -2.290  -3.581  0.00  0.00    +0.087 A 
ATOM     15  C   UNL     1       2.544  -1.511  -2.480  0.00  0.00    -0.021 A 
ATOM     16  C   UNL     1       1.247   1.966  -2.309  0.00  0.00    +0.004 A 
ATOM     17  C   UNL     1       3.286  -1.719  -1.204  0.00  0.00    +0.056 C 
ENDROOT
BRANCH   2  18
ATOM     18  C   UNL     1       4.200  -0.492   1.579  0.00  0.00    +0.084 C 
BRANCH  18  19
ATOM     19  C   UNL     1       5.228  -1.429   2.218  0.00  0.00    +0.012 C 
ATOM     20  C   UNL     1       6.612  -0.798   2.291  0.00  0.00    +0.005 C 
ENDBRANCH  18  19
ENDBRANCH   2  18
BRANCH   4  21
ATOM     21  C   UNL     1      -0.532  -1.126   1.073  0.00  0.00    +0.073 C 
BRANCH  21  22
ATOM     22  S   UNL     1      -1.012  -2.705   1.852  0.00  0.00    -0.164 S 
ATOM     23  C   UNL     1      -1.730  -2.104   3.396  0.00  0.00    +0.084 C 
ENDBRANCH  21  22
ENDBRANCH   4  21
TORSDOF 4
