REMARK  Name = 
REMARK  19 active torsions:
REMARK  status: ('A' for Active; 'I' for Inactive)
REMARK    1  A    between atoms: C_1  and  C_2
REMARK    2  A    between atoms: N_4  and  C_5
REMARK    3  A    between atoms: N_4  and  C_10
REMARK    4  A    between atoms: C_5  and  C_6
REMARK    5  A    between atoms: C_6  and  O_7
REMARK    6  A    between atoms: C_6  and  C_8
REMARK    7  A    between atoms: C_8  and  O_9
REMARK    8  A    between atoms: C_13  and  C_14
REMARK    9  A    between atoms: N_16  and  C_17
REMARK   10  A    between atoms: C_17  and  C_18
REMARK   11  A    between atoms: C_18  and  O_19
REMARK   12  A    between atoms: C_18  and  C_20
REMARK   13  A    between atoms: C_20  and  O_21
REMARK   14  A    between atoms: C_24  and  C_25
REMARK   15  A    between atoms: N_27  and  C_28
REMARK   16  A    between atoms: C_28  and  C_29
REMARK   17  A    between atoms: C_29  and  O_30
REMARK   18  A    between atoms: C_29  and  C_31
REMARK   19  A    between atoms: C_31  and  O_32
REMARK                            x       y       z     vdW  Elec       q    Type
REMARK                         _______ _______ _______ _____ _____    ______ ____
ROOT
ATOM      1  C   UNL     1       4.743   1.185   0.669  0.00  0.00    +0.064 A 
ATOM      2  C   UNL     1       5.399  -0.040   0.944  0.00  0.00    +0.049 A 
ATOM      3  I   UNL     1       4.203  -1.706   1.630  0.00  0.00    -0.041 I 
ATOM      4  C   UNL     1       6.805  -0.137   0.851  0.00  0.00    +0.065 A 
ATOM      5  C   UNL     1       7.574   1.045   0.631  0.00  0.00    +0.040 A 
ATOM      6  I   UNL     1       9.695   0.845   0.239  0.00  0.00    -0.042 I 
ATOM      7  C   UNL     1       6.943   2.314   0.539  0.00  0.00    +0.065 A 
ATOM      8  C   UNL     1       5.527   2.352   0.459  0.00  0.00    +0.049 A 
ATOM      9  I   UNL     1       4.562   4.154  -0.269  0.00  0.00    -0.041 I 
ENDROOT
BRANCH   4  10
ATOM     10  C   UNL     1       7.495  -1.440   1.095  0.00  0.00    +0.246 C 
ATOM     11  N   UNL     1       7.093  -2.539   0.364  0.00  0.00    -0.309 N 
ATOM     12  H   UNL     1       6.320  -2.498  -0.292  0.00  0.00    +0.149 HD
ATOM     13  O   UNL     1       8.382  -1.504   1.941  0.00  0.00    -0.270 OA
BRANCH  11  14
ATOM     14  C   UNL     1       7.740  -3.829   0.568  0.00  0.00    +0.138 C 
BRANCH  14  15
ATOM     15  C   UNL     1       6.918  -5.009   0.034  0.00  0.00    +0.157 C 
BRANCH  15  16
ATOM     16  O   UNL     1       6.658  -4.815  -1.363  0.00  0.00    -0.388 OA
ATOM     17  H   UNL     1       7.445  -5.113  -1.854  0.00  0.00    +0.210 HD
ENDBRANCH  15  16
BRANCH  15  18
ATOM     18  C   UNL     1       7.664  -6.333   0.280  0.00  0.00    +0.188 C 
BRANCH  18  19
ATOM     19  O   UNL     1       6.953  -7.445  -0.256  0.00  0.00    -0.392 OA
ATOM     20  H   UNL     1       6.010  -7.338  -0.040  0.00  0.00    +0.210 HD
ENDBRANCH  18  19
ENDBRANCH  15  18
ENDBRANCH  14  15
ENDBRANCH  11  14
ENDBRANCH   4  10
BRANCH   1  23
ATOM     21  C   UNL     1       3.618   0.345  -1.862  0.00  0.00    +0.109 C 
ATOM     22  C   UNL     1       2.735   0.851  -0.739  0.00  0.00    +0.217 C 
ATOM     23  N   UNL     1       3.324   1.187   0.487  0.00  0.00    -0.267 N 
ATOM     24  O   UNL     1       1.520   0.922  -0.921  0.00  0.00    -0.276 OA
BRANCH  23  25
ATOM     25  C   UNL     1       2.412   1.725   1.509  0.00  0.00    +0.147 C 
BRANCH  25  26
ATOM     26  C   UNL     1       2.878   1.894   2.967  0.00  0.00    +0.157 C 
BRANCH  26  27
ATOM     27  O   UNL     1       3.984   2.789   3.088  0.00  0.00    -0.388 OA
ATOM     28  H   UNL     1       3.699   3.679   2.810  0.00  0.00    +0.210 HD
ENDBRANCH  26  27
BRANCH  26  29
ATOM     29  C   UNL     1       1.700   2.430   3.809  0.00  0.00    +0.188 C 
BRANCH  29  30
ATOM     30  O   UNL     1       2.061   2.654   5.169  0.00  0.00    -0.392 OA
ATOM     31  H   UNL     1       2.909   2.206   5.338  0.00  0.00    +0.210 HD
ENDBRANCH  29  30
ENDBRANCH  26  29
ENDBRANCH  25  26
ENDBRANCH  23  25
ENDBRANCH   1  23
BRANCH   7  32
ATOM     32  C   UNL     1       7.667   3.609   0.785  0.00  0.00    +0.246 C 
ATOM     33  N   UNL     1       8.842   3.879   0.108  0.00  0.00    -0.309 N 
ATOM     34  H   UNL     1       9.220   3.216  -0.557  0.00  0.00    +0.149 HD
ATOM     35  O   UNL     1       7.218   4.396   1.613  0.00  0.00    -0.270 OA
BRANCH  33  36
ATOM     36  C   UNL     1       9.629   5.077   0.380  0.00  0.00    +0.138 C 
BRANCH  36  37
ATOM     37  C   UNL     1      11.048   4.970  -0.199  0.00  0.00    +0.157 C 
BRANCH  37  38
ATOM     38  O   UNL     1      10.967   4.701  -1.607  0.00  0.00    -0.388 OA
ATOM     39  H   UNL     1      10.751   5.539  -2.055  0.00  0.00    +0.210 HD
ENDBRANCH  37  38
BRANCH  37  40
ATOM     40  C   UNL     1      11.870   6.246   0.057  0.00  0.00    +0.188 C 
BRANCH  40  41
ATOM     41  O   UNL     1      13.163   6.165  -0.541  0.00  0.00    -0.392 OA
ATOM     42  H   UNL     1      13.471   5.243  -0.480  0.00  0.00    +0.210 HD
ENDBRANCH  40  41
ENDBRANCH  37  40
ENDBRANCH  36  37
ENDBRANCH  33  36
ENDBRANCH   7  32
TORSDOF 18
