REMARK  Name = 
REMARK  6 active torsions:
REMARK  status: ('A' for Active; 'I' for Inactive)
REMARK    1  A    between atoms: N_1  and  CA_2
REMARK    2  A    between atoms: CA_2  and  C_4
REMARK    3  A    between atoms: CA_2  and  C_13
REMARK    4  A    between atoms: C_4  and  C_5
REMARK    5  A    between atoms: C_8  and  O_9
REMARK    6  A    between atoms: C_13  and  O_14
REMARK                            x       y       z     vdW  Elec       q    Type
REMARK                         _______ _______ _______ _____ _____    ______ ____
ROOT
ATOM      1  C   UNL     1       2.940  -0.360   1.344  0.00  0.00    +0.065 C 
ENDROOT
BRANCH   1   2
ATOM      2  C   UNL     1       2.547   0.760   2.280  0.00  0.00    -0.044 A 
ATOM      3  C   UNL     1       3.332   1.919   2.365  0.00  0.00    +0.021 A 
ATOM      4  C   UNL     1       2.944   2.976   3.197  0.00  0.00    +0.055 A 
ATOM      5  I   UNL     1       4.170   4.668   3.281  0.00  0.00    -0.040 I 
ATOM      6  C   UNL     1       1.765   2.881   3.939  0.00  0.00    +0.130 A 
ATOM      7  C   UNL     1       0.984   1.728   3.869  0.00  0.00    +0.047 A 
ATOM      8  C   UNL     1       1.380   0.670   3.050  0.00  0.00    +0.007 A 
BRANCH   6   9
ATOM      9  O   UNL     1       1.364   3.916   4.737  0.00  0.00    -0.506 OA
ATOM     10  H   UNL     1       0.524   3.688   5.168  0.00  0.00    +0.292 HD
ENDBRANCH   6   9
ENDBRANCH   1   2
BRANCH   1  11
ATOM     11  CA  UNL     1       2.392  -0.173  -0.082  0.00  0.00    +0.165 C 
BRANCH  11  12
ATOM     12  N   UNL     1       0.891  -0.152  -0.140  0.00  0.00    -0.318 NA
ATOM     13  H1  UNL     1       0.536  -0.773   0.594  0.00  0.00    +0.119 HD
ATOM     14  H2  UNL     1       0.599   0.781   0.176  0.00  0.00    +0.119 HD
ENDBRANCH  11  12
BRANCH  11  15
ATOM     15  C   UNL     1       2.888  -1.323  -0.971  0.00  0.00    +0.322 C 
ATOM     16  OXT UNL     1       4.044  -1.705  -1.058  0.00  0.00    -0.249 OA
BRANCH  15  17
ATOM     17  O   UNL     1       1.863  -1.879  -1.672  0.00  0.00    -0.480 OA
ATOM     18  H   UNL     1       1.059  -1.354  -1.427  0.00  0.00    +0.295 HD
ENDBRANCH  15  17
ENDBRANCH  11  15
ENDBRANCH   1  11
TORSDOF 6
