REMARK  Name = 
REMARK  8 active torsions:
REMARK  status: ('A' for Active; 'I' for Inactive)
REMARK    1  A    between atoms: C_1  and  C_2
REMARK    2  A    between atoms: N_4  and  C_5
REMARK    3  A    between atoms: C_8  and  O_10
REMARK    4  A    between atoms: C_11  and  C_13
REMARK    5  A    between atoms: C_13  and  O_14
REMARK    6  A    between atoms: O_14  and  P_15
REMARK    7  A    between atoms: P_15  and  O_16
REMARK    8  A    between atoms: P_15  and  O_17
REMARK                            x       y       z     vdW  Elec       q    Type
REMARK                         _______ _______ _______ _____ _____    ______ ____
ROOT
ATOM      1  C   UNL     1       5.350   2.579  -0.464  0.00  0.00    +0.226 C 
ATOM      2  O   UNL     1       6.357   2.616   0.560  0.00  0.00    -0.348 OA
ATOM      3  C   UNL     1       6.756   3.994   0.764  0.00  0.00    +0.175 C 
ATOM      4  C   UNL     1       5.806   4.857  -0.092  0.00  0.00    +0.150 C 
ATOM      5  C   UNL     1       4.642   3.919  -0.331  0.00  0.00    +0.088 C 
ENDROOT
BRANCH   1  14
ATOM      6  C   UNL     1       1.050   0.178   0.451  0.00  0.00    +0.051 C 
ATOM      7  C   UNL     1       2.505   0.227   0.119  0.00  0.00    +0.030 A 
ATOM      8  C   UNL     1       3.169  -1.058  -0.177  0.00  0.00    +0.257 A 
ATOM      9  O   UNL     1       2.560  -2.117  -0.194  0.00  0.00    -0.267 OA
ATOM     10  N   UNL     1       4.505  -0.979  -0.449  0.00  0.00    -0.275 N 
ATOM     11  H   UNL     1       4.970  -1.838  -0.693  0.00  0.00    +0.173 HD
ATOM     12  C   UNL     1       5.226   0.168  -0.638  0.00  0.00    +0.331 A 
ATOM     13  O   UNL     1       6.353   0.101  -1.107  0.00  0.00    -0.246 OA
ATOM     14  N   UNL     1       4.564   1.359  -0.320  0.00  0.00    -0.274 N 
ATOM     15  C   UNL     1       3.232   1.347   0.050  0.00  0.00    +0.101 A 
ENDBRANCH   1  14
BRANCH   4  16
ATOM     16  O   UNL     1       6.411   5.194  -1.342  0.00  0.00    -0.389 OA
ATOM     17  H   UNL     1       5.778   5.753  -1.829  0.00  0.00    +0.210 HD
ENDBRANCH   4  16
BRANCH   3  18
ATOM     18  C   UNL     1       6.610   4.315   2.256  0.00  0.00    +0.206 C 
BRANCH  18  19
ATOM     19  O   UNL     1       7.481   3.505   3.054  0.00  0.00    -0.284 OA
BRANCH  19  20
ATOM     20  P   UNL     1       7.323   3.712   4.765  0.00  0.00    +0.472 P 
ATOM     21  O   UNL     1       7.182   3.897   6.295  0.00  0.00    -0.228 OA
BRANCH  20  22
ATOM     22  O   UNL     1       7.945   2.205   4.859  0.00  0.00    -0.303 OA
ATOM     23  H   UNL     1       8.841   2.158   4.486  0.00  0.00    +0.222 HD
ENDBRANCH  20  22
BRANCH  20  24
ATOM     24  O   UNL     1       5.746   3.307   4.609  0.00  0.00    -0.303 OA
ATOM     25  H   UNL     1       5.373   3.331   5.510  0.00  0.00    +0.222 HD
ENDBRANCH  20  24
ENDBRANCH  19  20
ENDBRANCH  18  19
ENDBRANCH   3  18
TORSDOF 7
