REMARK  Name = 
REMARK  12 active torsions:
REMARK  status: ('A' for Active; 'I' for Inactive)
REMARK    1  A    between atoms: C_1  and  C_2
REMARK    2  A    between atoms: N_4  and  C_5
REMARK    3  A    between atoms: C_7  and  O_9
REMARK    4  A    between atoms: C_11  and  O_12
REMARK    5  A    between atoms: C_11  and  C_24
REMARK    6  A    between atoms: C_14  and  C_16
REMARK    7  A    between atoms: C_16  and  O_18
REMARK    8  A    between atoms: C_16  and  C_19
REMARK    9  A    between atoms: C_19  and  O_21
REMARK   10  A    between atoms: C_19  and  C_22
REMARK   11  A    between atoms: C_22  and  O_23
REMARK   12  A    between atoms: C_24  and  O_25
REMARK                            x       y       z     vdW  Elec       q    Type
REMARK                         _______ _______ _______ _____ _____    ______ ____
ROOT
ATOM      1  C   UNL     1       4.685   0.714  -0.690  0.00  0.00    +0.133 C 
ATOM      2  C   UNL     1       5.378  -0.667  -0.709  0.00  0.00    +0.176 C 
ATOM      3  O   UNL     1       5.149  -1.360   0.544  0.00  0.00    -0.332 OA
ATOM      4  C   UNL     1       5.477  -0.652   1.742  0.00  0.00    +0.270 C 
ATOM      5  C   UNL     1       4.910   0.769   1.811  0.00  0.00    +0.110 C 
ATOM      6  C   UNL     1       5.187   1.528   0.520  0.00  0.00    +0.143 C 
ENDROOT
BRANCH   1   9
ATOM      7  C   UNL     1       0.912   1.211  -0.926  0.00  0.00    +0.109 C 
ATOM      8  C   UNL     1       2.368   1.606  -0.897  0.00  0.00    +0.210 C 
ATOM      9  N   UNL     1       3.221   0.550  -0.672  0.00  0.00    -0.308 N 
ATOM     10  H   UNL     1       2.834  -0.385  -0.597  0.00  0.00    +0.149 HD
ATOM     11  O   UNL     1       2.746   2.758  -1.071  0.00  0.00    -0.276 OA
ENDBRANCH   1   9
BRANCH   4  12
ATOM     12  O   UNL     1       6.896  -0.651   1.955  0.00  0.00    -0.356 OA
ATOM     13  H   UNL     1       7.195   0.263   1.760  0.00  0.00    +0.213 HD
ENDBRANCH   4  12
BRANCH   4  14
ATOM     14  C   UNL     1       4.878  -1.454   2.938  0.00  0.00    +0.365 C 
ATOM     15  O   UNL     1       3.684  -1.616   3.156  0.00  0.00    -0.245 OA
BRANCH  14  16
ATOM     16  O   UNL     1       5.851  -1.977   3.738  0.00  0.00    -0.477 OA
ATOM     17  H   UNL     1       6.716  -1.733   3.329  0.00  0.00    +0.295 HD
ENDBRANCH  14  16
ENDBRANCH   4  14
BRANCH   6  18
ATOM     18  O   UNL     1       6.601   1.757   0.454  0.00  0.00    -0.390 OA
ATOM     19  H   UNL     1       6.789   2.090  -0.455  0.00  0.00    +0.210 HD
ENDBRANCH   6  18
BRANCH   2  20
ATOM     20  C   UNL     1       6.886  -0.749  -1.083  0.00  0.00    +0.176 C 
BRANCH  20  21
ATOM     21  O   UNL     1       7.224  -2.143  -1.218  0.00  0.00    -0.387 OA
ATOM     22  H   UNL     1       6.887  -2.579  -0.410  0.00  0.00    +0.210 HD
ENDBRANCH  20  21
BRANCH  20  23
ATOM     23  C   UNL     1       7.295  -0.015  -2.369  0.00  0.00    +0.171 C 
BRANCH  23  24
ATOM     24  O   UNL     1       7.005   1.388  -2.275  0.00  0.00    -0.387 OA
ATOM     25  H   UNL     1       7.352   1.774  -3.108  0.00  0.00    +0.210 HD
ENDBRANCH  23  24
BRANCH  23  26
ATOM     26  C   UNL     1       8.800  -0.154  -2.637  0.00  0.00    +0.189 C 
BRANCH  26  27
ATOM     27  O   UNL     1       9.118   0.559  -3.837  0.00  0.00    -0.392 OA
ATOM     28  H   UNL     1       8.909  -0.032  -4.582  0.00  0.00    +0.210 HD
ENDBRANCH  26  27
ENDBRANCH  23  26
ENDBRANCH  20  23
ENDBRANCH   2  20
TORSDOF 11
