REMARK  Name = 
REMARK  8 active torsions:
REMARK  status: ('A' for Active; 'I' for Inactive)
REMARK    1  A    between atoms: O_1  and  C_2
REMARK    2  A    between atoms: C_2  and  C_4
REMARK    3  A    between atoms: C_6  and  N_11
REMARK    4  A    between atoms: C_9  and  O_10
REMARK    5  A    between atoms: N_12  and  C_13
REMARK    6  A    between atoms: C_16  and  O_17
REMARK    7  A    between atoms: C_18  and  C_20
REMARK    8  A    between atoms: C_20  and  O_21
REMARK                            x       y       z     vdW  Elec       q    Type
REMARK                         _______ _______ _______ _____ _____    ______ ____
ROOT
ATOM      1  N   UNL     1       5.503  -1.801  -3.621  0.00  0.00    -0.149 NA
ATOM      2  N   UNL     1       5.694  -0.605  -3.921  0.00  0.00    -0.149 NA
ENDROOT
BRANCH   1   7
ATOM      3  C   UNL     1       2.807  -1.334  -1.039  0.00  0.00    +0.102 A 
ATOM      4  C   UNL     1       2.930  -2.551  -0.357  0.00  0.00    +0.131 A 
ATOM      5  C   UNL     1       3.916  -3.464  -0.718  0.00  0.00    +0.048 A 
ATOM      6  C   UNL     1       4.769  -3.172  -1.786  0.00  0.00    +0.033 A 
ATOM      7  C   UNL     1       4.666  -1.967  -2.493  0.00  0.00    +0.087 A 
ATOM      8  C   UNL     1       3.684  -1.047  -2.099  0.00  0.00    +0.048 A 
BRANCH   3   9
ATOM      9  C   UNL     1       1.776  -0.314  -0.706  0.00  0.00    +0.340 C 
ATOM     10  O   UNL     1       1.908   0.868  -0.980  0.00  0.00    -0.245 OA
BRANCH   9  11
ATOM     11  O   UNL     1       0.656  -0.817  -0.145  0.00  0.00    -0.477 OA
ATOM     12  H   UNL     1       0.755  -1.762   0.104  0.00  0.00    +0.295 HD
ENDBRANCH   9  11
ENDBRANCH   3   9
BRANCH   4  13
ATOM     13  O   UNL     1       2.057  -2.861   0.651  0.00  0.00    -0.506 OA
ATOM     14  H   UNL     1       2.399  -3.637   1.136  0.00  0.00    +0.292 HD
ENDBRANCH   4  13
ENDBRANCH   1   7
BRANCH   2  15
ATOM     15  C   UNL     1       6.401  -0.466  -5.134  0.00  0.00    +0.087 A 
ATOM     16  C   UNL     1       6.185  -1.285  -6.253  0.00  0.00    +0.048 A 
ATOM     17  C   UNL     1       6.847  -1.053  -7.472  0.00  0.00    +0.102 A 
ATOM     18  C   UNL     1       7.735   0.027  -7.562  0.00  0.00    +0.131 A 
ATOM     19  C   UNL     1       7.970   0.848  -6.459  0.00  0.00    +0.048 A 
ATOM     20  C   UNL     1       7.302   0.600  -5.256  0.00  0.00    +0.033 A 
BRANCH  17  21
ATOM     21  C   UNL     1       6.536  -1.979  -8.600  0.00  0.00    +0.340 C 
ATOM     22  O   UNL     1       5.779  -2.928  -8.479  0.00  0.00    -0.245 OA
BRANCH  21  23
ATOM     23  O   UNL     1       7.149  -1.693  -9.769  0.00  0.00    -0.477 OA
ATOM     24  H   UNL     1       7.731  -0.904  -9.704  0.00  0.00    +0.295 HD
ENDBRANCH  21  23
ENDBRANCH  17  21
BRANCH  18  25
ATOM     25  O   UNL     1       8.375   0.296  -8.745  0.00  0.00    -0.506 OA
ATOM     26  H   UNL     1       8.915   1.103  -8.634  0.00  0.00    +0.292 HD
ENDBRANCH  18  25
ENDBRANCH   2  15
TORSDOF 8
