REMARK  Name = 
REMARK  7 active torsions:
REMARK  status: ('A' for Active; 'I' for Inactive)
REMARK    1  A    between atoms: C_1  and  C_2
REMARK    2  A    between atoms: C_2  and  C_3
REMARK    3  A    between atoms: C_3  and  C_4
REMARK    4  A    between atoms: C_4  and  C_5
REMARK    5  A    between atoms: C_4  and  C_6
REMARK    6  A    between atoms: C_6  and  C_7
REMARK    7  A    between atoms: C_7  and  C_8
REMARK                            x       y       z     vdW  Elec       q    Type
REMARK                         _______ _______ _______ _____ _____    ______ ____
ROOT
ATOM      1  C   UNL     1       5.015   1.719  -2.202  0.00  0.00    +0.129 C 
ATOM      2  C   UNL     1       5.515   2.980  -1.505  0.00  0.00    +0.234 C 
ATOM      3  O   UNL     1       6.645   3.101  -1.033  0.00  0.00    -0.274 OA
ATOM      4  N   UNL     1       4.601   3.982  -1.324  0.00  0.00    -0.267 N 
ATOM      5  H   UNL     1       4.909   4.765  -0.761  0.00  0.00    +0.157 HD
ATOM      6  C   UNL     1       3.443   4.122  -2.020  0.00  0.00    +0.143 C 
ATOM      7  S   UNL     1       2.453   5.437  -1.794  0.00  0.00    -0.018 S 
ATOM      8  N   UNL     1       3.142   3.157  -2.928  0.00  0.00    -0.267 N 
ATOM      9  H   UNL     1       2.333   3.298  -3.520  0.00  0.00    +0.157 HD
ATOM     10  C   UNL     1       3.873   2.022  -3.171  0.00  0.00    +0.234 C 
ATOM     11  O   UNL     1       3.535   1.266  -4.080  0.00  0.00    -0.274 OA
ENDROOT
BRANCH   1  12
ATOM     12  C   UNL     1       4.480   0.693  -1.105  0.00  0.00    +0.010 C 
ATOM     13  C   UNL     1       3.189   1.149  -0.400  0.00  0.00    +0.009 C 
BRANCH  12  14
ATOM     14  C   UNL     1       5.560   0.341  -0.043  0.00  0.00    +0.004 C 
BRANCH  14  16
ATOM     15  C   UNL     1       6.329  -1.055   1.894  0.00  0.00    +0.004 C 
ATOM     16  C   UNL     1       5.179  -0.773   0.935  0.00  0.00    -0.003 C 
ENDBRANCH  14  16
ENDBRANCH  12  14
ENDBRANCH   1  12
BRANCH   1  17
ATOM     17  C   UNL     1       6.174   1.068  -3.015  0.00  0.00    +0.052 C 
BRANCH  17  18
ATOM     18  C   UNL     1       6.764   1.911  -4.122  0.00  0.00    -0.033 C 
ATOM     19  C   UNL     1       8.043   2.306  -4.139  0.00  0.00    +0.004 C 
ENDBRANCH  17  18
ENDBRANCH   1  17
TORSDOF 5
