REMARK  Name = 
REMARK  16 active torsions:
REMARK  status: ('A' for Active; 'I' for Inactive)
REMARK    1  A    between atoms: C_10  and  O_12
REMARK    2  A    between atoms: O_12  and  C_13
REMARK    3  A    between atoms: N_15  and  C_16
REMARK    4  A    between atoms: C_16  and  C_18
REMARK    5  A    between atoms: C_16  and  C_25
REMARK    6  A    between atoms: C_18  and  C_19
REMARK    7  A    between atoms: C_25  and  O_27
REMARK    8  A    between atoms: C_25  and  C_28
REMARK    9  A    between atoms: C_28  and  N_29
REMARK   10  A    between atoms: N_29  and  C_30
REMARK   11  A    between atoms: N_29  and  S_34
REMARK   12  A    between atoms: C_30  and  C_31
REMARK   13  A    between atoms: C_31  and  C_32
REMARK   14  A    between atoms: C_31  and  C_33
REMARK   15  A    between atoms: S_34  and  C_37
REMARK   16  A    between atoms: C_40  and  N_41
REMARK                            x       y       z     vdW  Elec       q    Type
REMARK                         _______ _______ _______ _____ _____    ______ ____
ROOT
ATOM      1  C   UNL     1       2.840   6.486  -1.493  0.00  0.00    +0.110 C 
ENDROOT
BRANCH   1   3
ATOM      2  C   UNL     1       2.800   5.125  -3.597  0.00  0.00    +0.401 C 
ATOM      3  N   UNL     1       2.197   5.585  -2.463  0.00  0.00    -0.275 N 
ATOM      4  H   UNL     1       1.409   5.015  -2.190  0.00  0.00    +0.152 HD
ATOM      5  O   UNL     1       3.889   5.466  -4.029  0.00  0.00    -0.226 OA
BRANCH   2   6
ATOM      6  O   UNL     1       2.024   4.150  -4.127  0.00  0.00    -0.444 OA
BRANCH   6   8
ATOM      7  C   UNL     1       1.727   2.578  -5.986  0.00  0.00    +0.090 C 
ATOM      8  C   UNL     1       2.675   3.175  -4.962  0.00  0.00    +0.212 C 
ATOM      9  C   UNL     1       3.068   1.978  -4.096  0.00  0.00    +0.208 C 
ATOM     10  O   UNL     1       2.501   0.794  -4.671  0.00  0.00    -0.347 OA
ATOM     11  C   UNL     1       2.097   1.115  -6.001  0.00  0.00    +0.257 C 
ATOM     12  O   UNL     1       0.929   0.399  -6.378  0.00  0.00    -0.351 OA
ATOM     13  C   UNL     1      -0.209   1.154  -5.966  0.00  0.00    +0.163 C 
ATOM     14  C   UNL     1       0.252   2.559  -5.629  0.00  0.00    +0.040 C 
ENDBRANCH   6   8
ENDBRANCH   2   6
ENDBRANCH   1   3
BRANCH   1  15
ATOM     15  C   UNL     1       2.029   6.667  -0.173  0.00  0.00    +0.151 C 
BRANCH  15  16
ATOM     16  O   UNL     1       2.669   7.608   0.699  0.00  0.00    -0.389 OA
ATOM     17  H   UNL     1       2.183   7.628   1.542  0.00  0.00    +0.210 HD
ENDBRANCH  15  16
BRANCH  15  18
ATOM     18  C   UNL     1       1.614   5.398   0.606  0.00  0.00    +0.142 C 
BRANCH  18  19
ATOM     19  N   UNL     1       2.686   4.499   1.209  0.00  0.00    -0.174 NA
BRANCH  19  20
ATOM     20  S   UNL     1       1.913   3.125   1.995  0.00  0.00    +0.061 S 
ATOM     21  O   UNL     1       1.129   3.673   3.084  0.00  0.00    -0.153 OA
ATOM     22  O   UNL     1       2.904   2.098   2.220  0.00  0.00    -0.153 OA
BRANCH  20  23
ATOM     23  C   UNL     1       0.769   2.491   0.779  0.00  0.00    +0.106 A 
ATOM     24  C   UNL     1      -0.610   2.551   1.014  0.00  0.00    +0.030 A 
ATOM     25  C   UNL     1      -1.499   2.086   0.044  0.00  0.00    +0.024 A 
ATOM     26  C   UNL     1      -1.039   1.579  -1.171  0.00  0.00    +0.025 A 
ATOM     27  C   UNL     1       0.345   1.456  -1.364  0.00  0.00    +0.024 A 
ATOM     28  C   UNL     1       1.251   1.927  -0.403  0.00  0.00    +0.030 A 
BRANCH  26  29
ATOM     29  N   UNL     1      -1.932   0.996  -2.083  0.00  0.00    -0.358 N 
ATOM     30  H   UNL     1      -2.874   1.370  -2.041  0.00  0.00    +0.142 HD
ATOM     31  H   UNL     1      -1.568   0.885  -3.020  0.00  0.00    +0.142 HD
ENDBRANCH  26  29
ENDBRANCH  20  23
ENDBRANCH  19  20
BRANCH  19  32
ATOM     32  C   UNL     1       3.583   5.277   2.171  0.00  0.00    +0.112 C 
BRANCH  32  33
ATOM     33  C   UNL     1       4.680   4.518   2.948  0.00  0.00    -0.001 C 
ATOM     34  C   UNL     1       5.404   5.503   3.890  0.00  0.00    +0.008 C 
ATOM     35  C   UNL     1       5.738   3.872   2.054  0.00  0.00    +0.008 C 
ENDBRANCH  32  33
ENDBRANCH  19  32
ENDBRANCH  18  19
ENDBRANCH  15  18
ENDBRANCH   1  15
BRANCH   1  36
ATOM     36  C   UNL     1       3.156   7.884  -2.118  0.00  0.00    +0.060 C 
BRANCH  36  37
ATOM     37  C   UNL     1       1.956   8.687  -2.591  0.00  0.00    -0.046 A 
ATOM     38  C   UNL     1       1.550   8.642  -3.930  0.00  0.00    +0.004 A 
ATOM     39  C   UNL     1       0.457   9.393  -4.371  0.00  0.00    +0.000 A 
ATOM     40  C   UNL     1      -0.251  10.194  -3.474  0.00  0.00    +0.000 A 
ATOM     41  C   UNL     1       0.141  10.251  -2.140  0.00  0.00    +0.000 A 
ATOM     42  C   UNL     1       1.246   9.514  -1.704  0.00  0.00    +0.004 A 
ENDBRANCH  36  37
ENDBRANCH   1  36
TORSDOF 14
