REMARK  Name = 
REMARK  7 active torsions:
REMARK  status: ('A' for Active; 'I' for Inactive)
REMARK    1  A    between atoms: C_1  and  O_2
REMARK    2  A    between atoms: O_2  and  C_3
REMARK    3  A    between atoms: C_6  and  C_8
REMARK    4  A    between atoms: C_8  and  O_9
REMARK    5  A    between atoms: C_10  and  O_12
REMARK    6  A    between atoms: C_13  and  O_15
REMARK    7  A    between atoms: C_16  and  O_18
REMARK                            x       y       z     vdW  Elec       q    Type
REMARK                         _______ _______ _______ _____ _____    ______ ____
ROOT
ATOM      1  C   UNL     1       2.967   0.630   1.330  0.00  0.00    +0.281 C 
ATOM      2  C   UNL     1       2.897   2.147   1.020  0.00  0.00    +0.201 C 
ATOM      3  C   UNL     1       3.853   2.508  -0.122  0.00  0.00    +0.179 C 
ATOM      4  C   UNL     1       5.255   1.949   0.139  0.00  0.00    +0.177 C 
ATOM      5  C   UNL     1       5.155   0.440   0.380  0.00  0.00    +0.178 C 
ATOM      6  O   UNL     1       4.313   0.179   1.514  0.00  0.00    -0.341 OA
ENDROOT
BRANCH   1   8
ATOM      7  C   UNL     1       2.090  -0.974   2.850  0.00  0.00    +0.197 C 
ATOM      8  O   UNL     1       2.208   0.399   2.520  0.00  0.00    -0.352 OA
ENDBRANCH   1   8
BRANCH   2   9
ATOM      9  O   UNL     1       1.547   2.536   0.698  0.00  0.00    -0.384 OA
ATOM     10  H   UNL     1       1.390   2.391  -0.248  0.00  0.00    +0.210 HD
ENDBRANCH   2   9
BRANCH   3  11
ATOM     11  O   UNL     1       3.928   3.929  -0.295  0.00  0.00    -0.386 OA
ATOM     12  H   UNL     1       4.781   4.116  -0.737  0.00  0.00    +0.210 HD
ENDBRANCH   3  11
BRANCH   4  13
ATOM     13  O   UNL     1       6.100   2.278  -0.968  0.00  0.00    -0.386 OA
ATOM     14  H   UNL     1       5.816   1.770  -1.749  0.00  0.00    +0.210 HD
ENDBRANCH   4  13
BRANCH   5  15
ATOM     15  C   UNL     1       6.533  -0.169   0.661  0.00  0.00    +0.190 C 
BRANCH  15  16
ATOM     16  O   UNL     1       6.407  -1.585   0.801  0.00  0.00    -0.392 OA
ATOM     17  H   UNL     1       5.787  -1.722   1.541  0.00  0.00    +0.210 HD
ENDBRANCH  15  16
ENDBRANCH   5  15
TORSDOF 6
