REMARK  Name = 
REMARK  5 active torsions:
REMARK  status: ('A' for Active; 'I' for Inactive)
REMARK    1  A    between atoms: N_1  and  CA_2
REMARK    2  A    between atoms: CA_2  and  C_4
REMARK    3  A    between atoms: CA_2  and  C_11
REMARK    4  A    between atoms: C_4  and  C_5
REMARK    5  A    between atoms: C_11  and  O_12
REMARK                            x       y       z     vdW  Elec       q    Type
REMARK                         _______ _______ _______ _____ _____    ______ ____
ROOT
ATOM      1  CA  UNL     1       2.319  -0.001   0.183  0.00  0.00    +0.165 C 
ENDROOT
BRANCH   1   2
ATOM      2  N   UNL     1       0.822  -0.014   0.227  0.00  0.00    -0.318 NA
ATOM      3  H1  UNL     1       0.511   0.744   0.853  0.00  0.00    +0.119 HD
ATOM      4  H2  UNL     1       0.482   0.301  -0.688  0.00  0.00    +0.119 HD
ENDBRANCH   1   2
BRANCH   1   5
ATOM      5  C   UNL     1       2.839  -0.971   1.257  0.00  0.00    +0.322 C 
ATOM      6  OXT UNL     1       4.011  -1.112   1.569  0.00  0.00    -0.249 OA
BRANCH   5   7
ATOM      7  O   UNL     1       1.824  -1.679   1.816  0.00  0.00    -0.480 OA
ATOM      8  H   UNL     1       1.001  -1.363   1.361  0.00  0.00    +0.295 HD
ENDBRANCH   5   7
ENDBRANCH   1   5
BRANCH   1   9
ATOM      9  C   UNL     1       2.934   1.386   0.420  0.00  0.00    +0.073 C 
BRANCH   9  10
ATOM     10  C   UNL     1       2.498   2.397  -0.571  0.00  0.00    +0.059 A 
ATOM     11  C   UNL     1       1.276   3.192  -0.452  0.00  0.00    +0.283 A 
ATOM     12  O   UNL     1       0.490   3.125   0.475  0.00  0.00    -0.265 OA
ATOM     13  N   UNL     1       1.204   3.987  -1.564  0.00  0.00    -0.185 N 
ATOM     14  H   UNL     1       0.635   4.820  -1.630  0.00  0.00    +0.211 HD
ATOM     15  O   UNL     1       2.384   3.870  -2.333  0.00  0.00    -0.385 OA
ATOM     16  C   UNL     1       3.068   2.880  -1.670  0.00  0.00    +0.235 A 
ENDBRANCH   9  10
ENDBRANCH   1   9
TORSDOF 5
