REMARK  Name = 
REMARK  18 active torsions:
REMARK  status: ('A' for Active; 'I' for Inactive)
REMARK    1  A    between atoms: O_1  and  C_2
REMARK    2  A    between atoms: C_2  and  C_3
REMARK    3  A    between atoms: C_6  and  O_8
REMARK    4  A    between atoms: O_8  and  C_9
REMARK    5  A    between atoms: C_11  and  O_13
REMARK    6  A    between atoms: C_14  and  O_16
REMARK    7  A    between atoms: C_17  and  O_19
REMARK    8  A    between atoms: O_19  and  C_20
REMARK    9  A    between atoms: C_22  and  O_24
REMARK   10  A    between atoms: C_25  and  O_27
REMARK   11  A    between atoms: C_28  and  O_30
REMARK   12  A    between atoms: C_32  and  C_34
REMARK   13  A    between atoms: C_34  and  O_35
REMARK   14  A    between atoms: C_37  and  C_39
REMARK   15  A    between atoms: C_39  and  O_40
REMARK   16  A    between atoms: C_41  and  O_43
REMARK   17  A    between atoms: C_44  and  O_46
REMARK   18  A    between atoms: C_47  and  O_49
REMARK                            x       y       z     vdW  Elec       q    Type
REMARK                         _______ _______ _______ _____ _____    ______ ____
ROOT
ATOM      1  C   UNL     1       2.287  -1.332   0.549  0.00  0.00    +0.183 C 
ATOM      2  C   UNL     1       2.033  -1.252   2.083  0.00  0.00    +0.178 C 
ATOM      3  O   UNL     1       0.648  -1.327   2.464  0.00  0.00    -0.341 OA
ATOM      4  C   UNL     1      -0.176  -0.364   1.797  0.00  0.00    +0.282 C 
ATOM      5  C   UNL     1      -0.182  -0.760   0.314  0.00  0.00    +0.201 C 
ATOM      6  C   UNL     1       1.214  -0.543  -0.250  0.00  0.00    +0.179 C 
ENDROOT
BRANCH   6   7
ATOM      7  O   UNL     1       1.577   0.843  -0.312  0.00  0.00    -0.386 OA
ATOM      8  H   UNL     1       2.315   0.952  -0.938  0.00  0.00    +0.210 HD
ENDBRANCH   6   7
BRANCH   5   9
ATOM      9  O   UNL     1      -0.572  -2.128   0.158  0.00  0.00    -0.384 OA
ATOM     10  H   UNL     1      -0.096  -2.658   0.837  0.00  0.00    +0.210 HD
ENDBRANCH   5   9
BRANCH   4  11
ATOM     11  O   UNL     1       0.275   0.978   2.066  0.00  0.00    -0.340 OA
BRANCH  11  12
ATOM     12  C   UNL     1      -0.477   2.026   1.415  0.00  0.00    +0.183 C 
ATOM     13  C   UNL     1       0.168   3.413   1.697  0.00  0.00    +0.178 C 
ATOM     14  O   UNL     1       0.038   3.824   3.078  0.00  0.00    -0.341 OA
ATOM     15  C   UNL     1      -1.282   3.757   3.613  0.00  0.00    +0.279 C 
ATOM     16  C   UNL     1      -1.897   2.366   3.434  0.00  0.00    +0.201 C 
ATOM     17  C   UNL     1      -1.922   2.033   1.933  0.00  0.00    +0.179 C 
BRANCH  17  18
ATOM     18  O   UNL     1      -2.726   2.930   1.159  0.00  0.00    -0.386 OA
ATOM     19  H   UNL     1      -2.589   3.842   1.498  0.00  0.00    +0.210 HD
ENDBRANCH  17  18
BRANCH  16  20
ATOM     20  O   UNL     1      -1.149   1.400   4.196  0.00  0.00    -0.384 OA
ATOM     21  H   UNL     1      -0.220   1.409   3.845  0.00  0.00    +0.210 HD
ENDBRANCH  16  20
BRANCH  15  22
ATOM     22  O   UNL     1      -2.123   4.737   3.014  0.00  0.00    -0.365 OA
ATOM     23  H   UNL     1      -2.772   4.979   3.702  0.00  0.00    +0.213 HD
ENDBRANCH  15  22
BRANCH  13  24
ATOM     24  C   UNL     1       1.672   3.464   1.390  0.00  0.00    +0.190 C 
BRANCH  24  25
ATOM     25  O   UNL     1       2.142   4.814   1.489  0.00  0.00    -0.392 OA
ATOM     26  H   UNL     1       1.730   5.179   2.296  0.00  0.00    +0.210 HD
ENDBRANCH  24  25
ENDBRANCH  13  24
ENDBRANCH  11  12
ENDBRANCH   4  11
BRANCH   2  27
ATOM     27  C   UNL     1       2.763  -2.315   2.908  0.00  0.00    +0.190 C 
BRANCH  27  28
ATOM     28  O   UNL     1       2.625  -1.990   4.300  0.00  0.00    -0.392 OA
ATOM     29  H   UNL     1       1.680  -1.774   4.430  0.00  0.00    +0.210 HD
ENDBRANCH  27  28
ENDBRANCH   2  27
BRANCH   1  30
ATOM     30  O   UNL     1       2.453  -2.675   0.039  0.00  0.00    -0.340 OA
BRANCH  30  35
ATOM     31  C   UNL     1       4.035  -4.695  -2.000  0.00  0.00    +0.178 C 
ATOM     32  C   UNL     1       5.342  -3.864  -1.947  0.00  0.00    +0.177 C 
ATOM     33  C   UNL     1       5.216  -2.371  -1.614  0.00  0.00    +0.179 C 
ATOM     34  C   UNL     1       3.837  -1.793  -1.889  0.00  0.00    +0.201 C 
ATOM     35  C   UNL     1       2.713  -2.730  -1.384  0.00  0.00    +0.282 C 
ATOM     36  O   UNL     1       2.776  -4.051  -1.884  0.00  0.00    -0.341 OA
BRANCH  34  37
ATOM     37  O   UNL     1       3.691  -1.473  -3.277  0.00  0.00    -0.384 OA
ATOM     38  H   UNL     1       2.844  -1.003  -3.387  0.00  0.00    +0.210 HD
ENDBRANCH  34  37
BRANCH  33  39
ATOM     39  O   UNL     1       5.582  -2.147  -0.246  0.00  0.00    -0.386 OA
ATOM     40  H   UNL     1       5.732  -1.192  -0.124  0.00  0.00    +0.210 HD
ENDBRANCH  33  39
BRANCH  32  41
ATOM     41  O   UNL     1       5.950  -3.993  -3.261  0.00  0.00    -0.386 OA
ATOM     42  H   UNL     1       6.634  -3.311  -3.365  0.00  0.00    +0.210 HD
ENDBRANCH  32  41
BRANCH  31  43
ATOM     43  C   UNL     1       4.020  -5.947  -1.104  0.00  0.00    +0.190 C 
BRANCH  43  44
ATOM     44  O   UNL     1       3.537  -5.693   0.210  0.00  0.00    -0.392 OA
ATOM     45  H   UNL     1       2.563  -5.715   0.145  0.00  0.00    +0.210 HD
ENDBRANCH  43  44
ENDBRANCH  31  43
ENDBRANCH  30  35
ENDBRANCH   1  30
TORSDOF 18
