REMARK  Name = 
REMARK  3 active torsions:
REMARK  status: ('A' for Active; 'I' for Inactive)
REMARK    1  A    between atoms: N_1  and  CA_5
REMARK    2  A    between atoms: CA_5  and  C_7
REMARK    3  A    between atoms: CA_5  and  C_9
REMARK                            x       y       z     vdW  Elec       q    Type
REMARK                         _______ _______ _______ _____ _____    ______ ____
ROOT
ATOM      1  CA  UNL     1       2.422   0.019   0.120  0.00  0.00    +0.122 C 
ENDROOT
BRANCH   1   2
ATOM      2  N   UNL     1       2.961  -1.297   0.667  0.00  0.00    +0.226 N 
ATOM      3  H1  UNL     1       3.041  -2.041  -0.027  0.00  0.00    +0.200 HD
ATOM      4  H2  UNL     1       2.439  -1.574   1.501  0.00  0.00    +0.200 HD
ATOM      5  H3  UNL     1       3.896  -1.008   1.037  0.00  0.00    +0.200 HD
ENDBRANCH   1   2
BRANCH   1   6
ATOM      6  C   UNL     1       3.028   1.193   0.912  0.00  0.00    +0.091 C 
ATOM      7  OXT UNL     1       4.032   0.786   1.581  0.00  0.00    -0.544 OA
ATOM      8  O   UNL     1       2.453   2.297   0.823  0.00  0.00    -0.544 OA
ENDBRANCH   1   6
BRANCH   1   9
ATOM      9  C   UNL     1       2.930   0.255  -1.294  0.00  0.00    +0.169 C 
ATOM     10 CL   UNL     1       2.459  -1.112  -2.353  0.00  0.00    -0.119 Cl
ENDBRANCH   1   9
TORSDOF 3
