REMARK  Name = 
REMARK  8 active torsions:
REMARK  status: ('A' for Active; 'I' for Inactive)
REMARK    1  A    between atoms: C_1  and  N_2
REMARK    2  A    between atoms: N_2  and  C_3
REMARK    3  A    between atoms: N_2  and  C_4
REMARK    4  A    between atoms: N_2  and  C_5
REMARK    5  A    between atoms: C_5  and  C_6
REMARK    6  A    between atoms: C_6  and  O_7
REMARK    7  A    between atoms: C_8  and  N_9
REMARK    8  A    between atoms: N_17  and  C_18
REMARK                            x       y       z     vdW  Elec       q    Type
REMARK                         _______ _______ _______ _____ _____    ______ ____
ROOT
ATOM      1  C   UNL     1      -0.239  -1.512  -1.023  0.00  0.00    +0.192 C 
ATOM      2  N   UNL     1       1.133  -1.250  -0.465  0.00  0.00    +0.238 N 
ATOM      3  C   UNL     1       0.868  -1.081   1.040  0.00  0.00    +0.192 C 
ATOM      4  C   UNL     1       1.726  -0.064  -1.233  0.00  0.00    +0.192 C 
ENDROOT
BRANCH   2   5
ATOM      5  C   UNL     1       2.174  -2.374  -0.742  0.00  0.00    +0.160 C 
BRANCH   5   6
ATOM      6  C   UNL     1       1.996  -3.677   0.035  0.00  0.00    +0.206 C 
BRANCH   6   7
ATOM      7  O   UNL     1       0.659  -4.149  -0.070  0.00  0.00    -0.390 OA
ATOM      8  H   UNL     1       0.475  -4.620   0.761  0.00  0.00    +0.210 HD
ENDBRANCH   6   7
ENDBRANCH   5   6
ENDBRANCH   2   5
TORSDOF 3
REMARK  Name = 
REMARK  8 active torsions:
REMARK  status: ('A' for Active; 'I' for Inactive)
REMARK    1  A    between atoms: C_1  and  N_2
REMARK    2  A    between atoms: N_2  and  C_3
REMARK    3  A    between atoms: N_2  and  C_4
REMARK    4  A    between atoms: N_2  and  C_5
REMARK    5  A    between atoms: C_5  and  C_6
REMARK    6  A    between atoms: C_6  and  O_7
REMARK    7  A    between atoms: C_8  and  N_9
REMARK    8  A    between atoms: N_17  and  C_18
REMARK                            x       y       z     vdW  Elec       q    Type
REMARK                         _______ _______ _______ _____ _____    ______ ____
ROOT
ATOM      1  C   UNL     1       2.202   1.873   1.288  0.00  0.00    +0.155 C 
ATOM      2  N   UNL     1       3.590   1.473   1.322  0.00  0.00    -0.282 N 
ATOM      3  C   UNL     1       4.429   2.553   1.090  0.00  0.00    +0.333 A 
ATOM      4  O   UNL     1       4.011   3.708   1.126  0.00  0.00    -0.246 OA
ATOM      5  N   UNL     1       5.764   2.264   0.811  0.00  0.00    -0.265 N 
ATOM      6  C   UNL     1       6.470   3.377   0.241  0.00  0.00    +0.157 C 
ATOM      7  C   UNL     1       6.378   1.001   0.823  0.00  0.00    +0.244 A 
ATOM      8  O   UNL     1       7.555   0.891   0.458  0.00  0.00    -0.269 OA
ATOM      9  C   UNL     1       5.479  -0.028   1.265  0.00  0.00    -0.026 A 
ATOM     10  N   UNL     1       5.679  -1.366   1.398  0.00  0.00    -0.644 NA
ATOM     11  C   UNL     1       4.549  -1.901   1.879  0.00  0.00    -0.021 A 
ATOM     12  N   UNL     1       3.581  -0.958   1.863  0.00  0.00    -0.262 NA
ATOM     13  C   UNL     1       4.154   0.208   1.506  0.00  0.00    +0.125 A 
ENDROOT
TORSDOF 0
