REMARK  Name = 
REMARK  6 active torsions:
REMARK  status: ('A' for Active; 'I' for Inactive)
REMARK    1  A    between atoms: C_1  and  C_2
REMARK    2  A    between atoms: C_2  and  C_3
REMARK    3  A    between atoms: C_2  and  C_4
REMARK    4  A    between atoms: C_25  and  O_27
REMARK    5  A    between atoms: C_29  and  C_30
REMARK    6  A    between atoms: C_39  and  C_41
REMARK                            x       y       z     vdW  Elec       q    Type
REMARK                         _______ _______ _______ _____ _____    ______ ____
ROOT
ATOM      1  C   UNL     1       8.265   0.654  -3.023  0.00  0.00    +0.186 C 
ATOM      2  C   UNL     1       9.825  -0.598  -3.046  0.00  0.00    +0.050 C 
ATOM      3  C   UNL     1       8.952  -1.861  -3.030  0.00  0.00    +0.015 C 
ATOM      4  C   UNL     1      11.660  -0.742  -2.405  0.00  0.00    -0.015 C 
ATOM      5  C   UNL     1      13.055  -1.476  -2.490  0.00  0.00    +0.063 C 
ATOM      6  C   UNL     1      14.934  -1.864  -2.467  0.00  0.00    +0.237 C 
ATOM      7  O   UNL     1      15.545  -1.332  -3.423  0.00  0.00    -0.271 OA
ATOM      8  N   UNL     1      15.989  -2.445  -1.454  0.00  0.00    -0.308 N 
ATOM      9  H   UNL     1      16.730  -1.768  -1.622  0.00  0.00    +0.149 HD
ATOM     10  C   UNL     1      17.213  -3.750  -1.452  0.00  0.00    +0.132 C 
ATOM     11  C   UNL     1      17.024  -5.062  -0.579  0.00  0.00    -0.008 C 
ATOM     12  C   UNL     1      16.289  -6.139  -0.938  0.00  0.00    +0.000 C 
ATOM     13  C   UNL     1      14.869  -5.863  -1.051  0.00  0.00    -0.052 C 
ATOM     14  C   UNL     1      14.534  -4.413  -0.988  0.00  0.00    +0.043 C 
ATOM     15  C   UNL     1      13.916  -6.695  -1.450  0.00  0.00    +0.007 C 
ATOM     16  C   UNL     1      12.598  -6.049  -1.689  0.00  0.00    +0.145 C 
ATOM     17  C   UNL     1      11.485  -7.025  -1.755  0.00  0.00    +0.110 C 
ATOM     18  C   UNL     1      10.210  -6.174  -1.655  0.00  0.00    +0.145 C 
ATOM     19  O   UNL     1      10.332  -4.994  -1.375  0.00  0.00    -0.297 OA
ATOM     20  C   UNL     1       8.963  -7.003  -1.881  0.00  0.00    +0.170 C 
ATOM     21  C   UNL     1       7.860  -6.043  -1.854  0.00  0.00    +0.203 A 
ATOM     22  N   UNL     1       7.866  -4.814  -1.407  0.00  0.00    -0.208 NA
ATOM     23  C   UNL     1       6.596  -4.384  -1.525  0.00  0.00    +0.164 A 
ATOM     24  C   UNL     1       5.823  -5.410  -2.042  0.00  0.00    +0.230 A 
ATOM     25  C   UNL     1       6.215  -3.028  -1.178  0.00  0.00    +0.272 C 
ATOM     26  O   UNL     1       5.161  -2.599  -1.641  0.00  0.00    -0.268 OA
ATOM     27  N   UNL     1       7.089  -2.273  -0.356  0.00  0.00    -0.260 N 
ATOM     28  C   UNL     1       6.885  -0.936  -0.145  0.00  0.00    +0.118 C 
ATOM     29  C   UNL     1       7.866  -0.247   0.437  0.00  0.00    +0.005 C 
ATOM     30  C   UNL     1       9.067  -1.113   0.413  0.00  0.00    +0.048 C 
ATOM     31  C   UNL     1       6.189  -0.145  -1.115  0.00  0.00    +0.354 C 
ATOM     32  O   UNL     1       5.025   0.187  -0.964  0.00  0.00    -0.244 OA
ATOM     33  C   UNL     1       8.479  -2.518   0.126  0.00  0.00    +0.118 C 
ATOM     34  O   UNL     1       6.640  -6.493  -2.252  0.00  0.00    -0.447 OA
ATOM     35  O   UNL     1       7.041   0.264  -2.065  0.00  0.00    -0.456 OA
ENDROOT
BRANCH   1  37
ATOM     36  C   UNL     1       5.520   2.141  -3.080  0.00  0.00    +0.011 C 
ATOM     37  C   UNL     1       6.771   1.380  -3.879  0.00  0.00    +0.024 C 
ATOM     38  C   UNL     1       5.821   0.385  -4.671  0.00  0.00    +0.011 C 
ENDBRANCH   1  37
BRANCH  16  39
ATOM     39  O   UNL     1      12.631  -5.264  -2.888  0.00  0.00    -0.387 OA
ATOM     40  H   UNL     1      13.240  -5.661  -3.527  0.00  0.00    +0.210 HD
ENDBRANCH  16  39
TORSDOF 2
