REMARK  Name = 
REMARK  7 active torsions:
REMARK  status: ('A' for Active; 'I' for Inactive)
REMARK    1  A    between atoms: N_1  and  C_2
REMARK    2  A    between atoms: C_2  and  C_3
REMARK    3  A    between atoms: C_3  and  O_4
REMARK    4  A    between atoms: C_8  and  O_9
REMARK    5  A    between atoms: N_10  and  C_11
REMARK    6  A    between atoms: C_11  and  C_12
REMARK    7  A    between atoms: C_12  and  O_13
REMARK                            x       y       z     vdW  Elec       q    Type
REMARK                         _______ _______ _______ _____ _____    ______ ____
ROOT
ATOM      1  C   UNL     1       2.969  -1.046  -0.899  0.00  0.00    +0.364 C 
ATOM      2  N   UNL     1       4.438  -1.202  -0.637  0.00  0.00    -0.134 N 
ATOM      3  C   UNL     1       4.651  -2.430  -0.381  0.00  0.00    +0.432 C 
ATOM      4  C   UNL     1       3.408  -3.261  -0.429  0.00  0.00    +0.355 C 
ATOM      5  O   UNL     1       3.381  -4.436  -0.159  0.00  0.00    -0.260 OA
ATOM      6  N   UNL     1       2.433  -2.375  -0.771  0.00  0.00    -0.218 N 
ATOM      7  H   UNL     1       1.470  -2.635  -0.944  0.00  0.00    +0.158 HD
ENDROOT
BRANCH   3   8
ATOM      8  O   UNL     1       5.842  -2.867  -0.043  0.00  0.00    -0.456 OA
ATOM      9  H   UNL     1       5.839  -3.836   0.125  0.00  0.00    +0.298 HD
ENDBRANCH   3   8
BRANCH   1  10
ATOM     10  O   UNL     1       2.572  -0.599  -2.170  0.00  0.00    -0.317 OA
ATOM     11  H   UNL     1       1.618  -0.391  -2.096  0.00  0.00    +0.219 HD
ENDBRANCH   1  10
BRANCH   1  12
ATOM     12  C   UNL     1       2.341  -0.100   0.183  0.00  0.00    +0.215 C 
BRANCH  12  13
ATOM     13  N   UNL     1       0.871  -0.061   0.089  0.00  0.00    -0.321 NA
ATOM     14  H   UNL     1       0.456  -0.869   0.563  0.00  0.00    +0.119 HD
ATOM     15  H   UNL     1       0.507   0.746   0.610  0.00  0.00    +0.119 HD
ENDBRANCH  12  13
ENDBRANCH   1  12
BRANCH   2  16
ATOM     16  C   UNL     1       5.418  -0.105  -0.696  0.00  0.00    +0.479 C 
BRANCH  16  17
ATOM     17  C   UNL     1       5.549   0.399  -2.109  0.00  0.00    +0.371 C 
ATOM     18  O   UNL     1       5.289  -0.279  -3.091  0.00  0.00    -0.244 OA
BRANCH  17  19
ATOM     19  O   UNL     1       6.025   1.657  -2.208  0.00  0.00    -0.476 OA
ATOM     20  H   UNL     1       6.297   2.144  -1.403  0.00  0.00    +0.295 HD
ENDBRANCH  17  19
ENDBRANCH  16  17
ENDBRANCH   2  16
TORSDOF 7
