REMARK  Name = 
REMARK  13 active torsions:
REMARK  status: ('A' for Active; 'I' for Inactive)
REMARK    1  A    between atoms: C_1  and  C_2
REMARK    2  A    between atoms: C_2  and  C_3
REMARK    3  A    between atoms: C_2  and  N_4
REMARK    4  A    between atoms: N_4  and  C_5
REMARK    5  A    between atoms: N_4  and  C_23
REMARK    6  A    between atoms: C_5  and  C_6
REMARK    7  A    between atoms: C_6  and  C_7
REMARK    8  A    between atoms: C_7  and  C_9
REMARK    9  A    between atoms: C_7  and  C_15
REMARK   10  A    between atoms: C_16  and  O_17
REMARK   11  A    between atoms: C_20  and  C_21
REMARK   12  A    between atoms: C_23  and  C_24
REMARK   13  A    between atoms: C_23  and  C_25
REMARK                            x       y       z     vdW  Elec       q    Type
REMARK                         _______ _______ _______ _____ _____    ______ ____
ROOT
ATOM      1  C   UNL     1       0.250  -0.318  -3.871  0.00  0.00    +0.054 C 
ENDROOT
BRANCH   1   2
ATOM      2  C   UNL     1      -1.274  -0.431  -3.698  0.00  0.00    +0.002 A 
ATOM      3  C   UNL     1      -1.995  -1.473  -4.321  0.00  0.00    +0.011 A 
ATOM      4  C   UNL     1      -3.374  -1.649  -4.171  0.00  0.00    -0.050 A 
ATOM      5  C   UNL     1      -4.033  -2.769  -4.918  0.00  0.00    +0.044 C 
ATOM      6  C   UNL     1      -4.082  -0.773  -3.355  0.00  0.00    +0.007 A 
ATOM      7  C   UNL     1      -3.404   0.255  -2.700  0.00  0.00    +0.046 A 
ATOM      8  C   UNL     1      -2.026   0.413  -2.865  0.00  0.00    +0.121 A 
BRANCH   8   9
ATOM      9  O   UNL     1      -1.438   1.409  -2.141  0.00  0.00    -0.506 OA
ATOM     10  H   UNL     1      -1.029   0.974  -1.373  0.00  0.00    +0.292 HD
ENDBRANCH   8   9
ENDBRANCH   1   2
BRANCH   1  11
ATOM     11  C   UNL     1       0.869  -1.399  -4.778  0.00  0.00    -0.040 A 
ATOM     12  C   UNL     1       1.647  -2.426  -4.223  0.00  0.00    +0.004 A 
ATOM     13  C   UNL     1       2.070  -3.501  -5.011  0.00  0.00    +0.000 A 
ATOM     14  C   UNL     1       1.738  -3.560  -6.364  0.00  0.00    +0.000 A 
ATOM     15  C   UNL     1       0.996  -2.537  -6.939  0.00  0.00    +0.000 A 
ATOM     16  C   UNL     1       0.566  -1.472  -6.153  0.00  0.00    +0.004 A 
ENDBRANCH   1  11
BRANCH   1  17
ATOM     17  C   UNL     1       0.832   1.093  -4.189  0.00  0.00    +0.028 C 
BRANCH  17  18
ATOM     18  C   UNL     1       0.488   1.681  -5.571  0.00  0.00    +0.086 C 
BRANCH  18  19
ATOM     19  N   UNL     1       0.977   3.064  -5.839  0.00  0.00    -0.297 NA
BRANCH  19  21
ATOM     20  C   UNL     1       3.119   2.023  -6.728  0.00  0.00    +0.024 C 
ATOM     21  C   UNL     1       2.475   3.117  -5.835  0.00  0.00    +0.051 C 
ATOM     22  C   UNL     1       3.092   4.436  -6.327  0.00  0.00    +0.024 C 
ENDBRANCH  19  21
BRANCH  19  23
ATOM     23  C   UNL     1       0.244   4.063  -5.001  0.00  0.00    +0.051 C 
ATOM     24  C   UNL     1      -1.293   3.882  -5.078  0.00  0.00    +0.024 C 
ATOM     25  C   UNL     1       0.482   5.535  -5.373  0.00  0.00    +0.024 C 
ENDBRANCH  19  23
ENDBRANCH  18  19
ENDBRANCH  17  18
ENDBRANCH   1  17
TORSDOF 8
