REMARK  Name = 
REMARK  11 active torsions:
REMARK  status: ('A' for Active; 'I' for Inactive)
REMARK    1  A    between atoms: C_1  and  N_2
REMARK    2  A    between atoms: N_2  and  C_3
REMARK    3  A    between atoms: N_2  and  S_4
REMARK    4  A    between atoms: S_4  and  C_7
REMARK    5  A    between atoms: N_18  and  C_19
REMARK    6  A    between atoms: C_19  and  C_20
REMARK    7  A    between atoms: C_20  and  C_21
REMARK    8  A    between atoms: C_21  and  N_22
REMARK    9  A    between atoms: C_25  and  C_26
REMARK   10  A    between atoms: C_26  and  C_27
REMARK   11  A    between atoms: C_27  and  O_28
REMARK                            x       y       z     vdW  Elec       q    Type
REMARK                         _______ _______ _______ _____ _____    ______ ____
ROOT
ATOM      1  C   UNL     1       4.698  -1.461  -0.915  0.00  0.00    +0.107 A 
ATOM      2  C   UNL     1       5.331  -2.038   0.176  0.00  0.00    +0.030 A 
ATOM      3  C   UNL     1       6.717  -2.022   0.216  0.00  0.00    +0.019 A 
ATOM      4  C   UNL     1       7.479  -1.461  -0.832  0.00  0.00    +0.034 A 
ATOM      5  S   UNL     1       9.233  -1.527  -0.592  0.00  0.00    -0.086 S 
ATOM      6  C   UNL     1       9.858  -0.839  -2.102  0.00  0.00    +0.034 A 
ATOM      7  C   UNL     1       9.044  -0.335  -3.140  0.00  0.00    +0.048 A 
ATOM      8  N   UNL     1       7.617  -0.347  -3.043  0.00  0.00    -0.298 N 
ATOM      9  C   UNL     1       9.741   0.182  -4.257  0.00  0.00    +0.024 A 
ATOM     10  C   UNL     1      11.143   0.207  -4.342  0.00  0.00    +0.002 A 
ATOM     11  C   UNL     1      11.910  -0.295  -3.308  0.00  0.00    +0.001 A 
ATOM     12  C   UNL     1      11.268  -0.817  -2.194  0.00  0.00    +0.017 A 
ATOM     13  C   UNL     1       6.860  -0.899  -1.962  0.00  0.00    +0.050 A 
ATOM     14  C   UNL     1       5.446  -0.919  -1.968  0.00  0.00    +0.053 A 
ENDROOT
BRANCH   1  15
ATOM     15  S   UNL     1       2.919  -1.460  -1.021  0.00  0.00    +0.060 S 
ATOM     16  O   UNL     1       2.573  -1.369  -2.424  0.00  0.00    -0.153 OA
ATOM     17  O   UNL     1       2.436  -2.550  -0.200  0.00  0.00    -0.153 OA
BRANCH  15  19
ATOM     18  C   UNL     1       2.675   0.080   1.188  0.00  0.00    +0.131 C 
ATOM     19  N   UNL     1       2.495   0.010  -0.273  0.00  0.00    -0.183 NA
ATOM     20  C   UNL     1       2.886   1.245  -0.974  0.00  0.00    +0.131 C 
ENDBRANCH  15  19
ENDBRANCH   1  15
BRANCH   8  21
ATOM     21  C   UNL     1       6.833   0.203  -4.176  0.00  0.00    +0.112 C 
BRANCH  21  22
ATOM     22  C   UNL     1       6.339  -0.914  -5.111  0.00  0.00    +0.035 C 
BRANCH  22  23
ATOM     23  C   UNL     1       5.517  -0.349  -6.277  0.00  0.00    +0.086 C 
BRANCH  23  24
ATOM     24  N   UNL     1       6.254   0.668  -7.040  0.00  0.00    -0.302 NA
ATOM     25  C   UNL     1       5.420   1.317  -8.063  0.00  0.00    +0.084 C 
ATOM     26  C   UNL     1       5.161   0.454  -9.305  0.00  0.00    +0.019 C 
ATOM     27  C   UNL     1       6.452  -0.145  -9.899  0.00  0.00    -0.006 C 
ATOM     28  C   UNL     1       7.246  -0.821  -8.776  0.00  0.00    +0.019 C 
ATOM     29  C   UNL     1       7.498   0.156  -7.632  0.00  0.00    +0.084 C 
BRANCH  27  30
ATOM     30  C   UNL     1       7.281   0.925 -10.642  0.00  0.00    +0.031 C 
BRANCH  30  31
ATOM     31  C   UNL     1       8.552   0.369 -11.280  0.00  0.00    +0.156 C 
BRANCH  31  32
ATOM     32  O   UNL     1       9.269   1.413 -11.923  0.00  0.00    -0.395 OA
ATOM     33  H   UNL     1       8.694   1.783 -12.614  0.00  0.00    +0.209 HD
ENDBRANCH  31  32
ENDBRANCH  30  31
ENDBRANCH  27  30
ENDBRANCH  23  24
ENDBRANCH  22  23
ENDBRANCH  21  22
ENDBRANCH   8  21
TORSDOF 9
