REMARK  Name = 
REMARK  20 active torsions:
REMARK  status: ('A' for Active; 'I' for Inactive)
REMARK    1  A    between atoms: C_1  and  C_2
REMARK    2  A    between atoms: C_2  and  C_3
REMARK    3  A    between atoms: C_2  and  C_4
REMARK    4  A    between atoms: C_4  and  N_6
REMARK    5  A    between atoms: C_4  and  C_13
REMARK    6  A    between atoms: N_15  and  C_16
REMARK    7  A    between atoms: C_16  and  C_18
REMARK    8  A    between atoms: C_16  and  C_44
REMARK    9  A    between atoms: C_18  and  C_19
REMARK   10  A    between atoms: C_19  and  O_21
REMARK   11  A    between atoms: C_19  and  C_22
REMARK   12  A    between atoms: C_22  and  C_24
REMARK   13  A    between atoms: C_22  and  N_31
REMARK   14  A    between atoms: C_24  and  C_25
REMARK   15  A    between atoms: C_32  and  C_34
REMARK   16  A    between atoms: C_34  and  O_35
REMARK   17  A    between atoms: O_35  and  C_36
REMARK   18  A    between atoms: C_37  and  C_38
REMARK   19  A    between atoms: C_42  and  C_43
REMARK   20  A    between atoms: C_44  and  C_45
REMARK                            x       y       z     vdW  Elec       q    Type
REMARK                         _______ _______ _______ _____ _____    ______ ____
ROOT
ATOM      1  C   UNL     1       6.425   3.516  -3.071  0.00  0.00    +0.055 C 
ENDROOT
BRANCH   1   2
ATOM      2  C   UNL     1       5.661   2.621  -2.065  0.00  0.00    +0.137 C 
BRANCH   2   3
ATOM      3  O   UNL     1       4.720   1.813  -2.786  0.00  0.00    -0.390 OA
ATOM      4  H   UNL     1       5.163   1.531  -3.616  0.00  0.00    +0.210 HD
ENDBRANCH   2   3
BRANCH   2   5
ATOM      5  C   UNL     1       4.934   3.312  -0.868  0.00  0.00    +0.106 C 
BRANCH   5   6
ATOM      6  N   UNL     1       4.159   2.347  -0.075  0.00  0.00    -0.307 N 
ATOM      7  H   UNL     1       4.640   1.511   0.236  0.00  0.00    +0.149 HD
ATOM      8  C   UNL     1       2.900   2.636   0.432  0.00  0.00    +0.251 C 
ATOM      9  O   UNL     1       2.332   3.709   0.225  0.00  0.00    -0.272 OA
BRANCH   8  10
ATOM     10  C   UNL     1       2.276   1.509   1.268  0.00  0.00    +0.324 C 
BRANCH  10  11
ATOM     11  O   UNL     1       2.092   1.943   2.601  0.00  0.00    -0.482 OA
BRANCH  11  12
ATOM     12  C   UNL     1       1.511   1.170   3.569  0.00  0.00    +0.127 A 
ATOM     13  C   UNL     1       1.012  -0.145   3.484  0.00  0.00    -0.009 A 
ATOM     14  C   UNL     1       1.144  -1.091   2.324  0.00  0.00    +0.047 C 
ATOM     15  C   UNL     1       0.325  -0.688   4.598  0.00  0.00    +0.007 A 
ATOM     16  C   UNL     1       0.212  -0.003   5.800  0.00  0.00    +0.001 A 
ATOM     17  C   UNL     1       0.797   1.245   5.920  0.00  0.00    +0.007 A 
ATOM     18  C   UNL     1       1.443   1.838   4.821  0.00  0.00    -0.009 A 
ATOM     19  C   UNL     1       2.121   3.164   5.069  0.00  0.00    +0.047 C 
ENDBRANCH  11  12
ENDBRANCH  10  11
ENDBRANCH   8  10
ENDBRANCH   5   6
BRANCH   5  20
ATOM     20  C   UNL     1       5.808   4.201   0.053  0.00  0.00    +0.060 C 
BRANCH  20  21
ATOM     21  C   UNL     1       6.742   3.595   1.077  0.00  0.00    -0.046 A 
ATOM     22  C   UNL     1       6.268   3.213   2.341  0.00  0.00    +0.004 A 
ATOM     23  C   UNL     1       7.151   2.770   3.329  0.00  0.00    +0.000 A 
ATOM     24  C   UNL     1       8.519   2.711   3.070  0.00  0.00    +0.000 A 
ATOM     25  C   UNL     1       9.006   3.111   1.827  0.00  0.00    +0.000 A 
ATOM     26  C   UNL     1       8.123   3.553   0.838  0.00  0.00    +0.004 A 
ENDBRANCH  20  21
ENDBRANCH   5  20
ENDBRANCH   2   5
ENDBRANCH   1   2
BRANCH   1  27
ATOM     27  C   UNL     1       5.701   4.451  -4.100  0.00  0.00    +0.080 C 
BRANCH  27  29
ATOM     28  C   UNL     1       5.125   2.680  -5.862  0.00  0.00    +0.234 C 
ATOM     29  N   UNL     1       4.867   3.850  -5.182  0.00  0.00    -0.311 N 
ATOM     30  H   UNL     1       4.331   4.530  -5.702  0.00  0.00    +0.149 HD
ATOM     31  O   UNL     1       5.783   1.776  -5.338  0.00  0.00    -0.274 OA
BRANCH  28  32
ATOM     32  C   UNL     1       4.436   2.457  -7.263  0.00  0.00    +0.166 C 
BRANCH  32  33
ATOM     33  N   UNL     1       3.306   1.489  -7.277  0.00  0.00    -0.274 N 
ATOM     34  C   UNL     1       3.057   0.782  -8.442  0.00  0.00    +0.303 C 
ATOM     35  O   UNL     1       3.793   0.792  -9.427  0.00  0.00    -0.253 OA
ATOM     36  N   UNL     1       1.875   0.115  -8.509  0.00  0.00    -0.299 N 
ATOM     37  H   UNL     1       1.704  -0.345  -9.396  0.00  0.00    +0.150 HD
ATOM     38  C   UNL     1       0.960  -0.062  -7.418  0.00  0.00    +0.107 C 
ATOM     39  C   UNL     1       1.000   1.137  -6.499  0.00  0.00    +0.038 C 
ATOM     40  C   UNL     1       2.453   1.347  -6.102  0.00  0.00    +0.111 C 
ENDBRANCH  32  33
BRANCH  32  42
ATOM     41  C   UNL     1       5.232   4.698  -8.327  0.00  0.00    +0.009 C 
ATOM     42  C   UNL     1       4.101   3.681  -8.178  0.00  0.00    +0.012 C 
ATOM     43  C   UNL     1       2.777   4.391  -7.879  0.00  0.00    +0.009 C 
ENDBRANCH  32  42
ENDBRANCH  28  32
ENDBRANCH  27  29
BRANCH  27  44
ATOM     44  C   UNL     1       4.922   5.641  -3.470  0.00  0.00    +0.057 C 
BRANCH  44  45
ATOM     45  C   UNL     1       5.668   6.524  -2.491  0.00  0.00    -0.046 A 
ATOM     46  C   UNL     1       4.992   7.024  -1.365  0.00  0.00    +0.004 A 
ATOM     47  C   UNL     1       5.685   7.706  -0.360  0.00  0.00    +0.000 A 
ATOM     48  C   UNL     1       7.053   7.932  -0.486  0.00  0.00    +0.000 A 
ATOM     49  C   UNL     1       7.716   7.525  -1.641  0.00  0.00    +0.000 A 
ATOM     50  C   UNL     1       7.024   6.845  -2.647  0.00  0.00    +0.004 A 
ENDBRANCH  44  45
ENDBRANCH  27  44
ENDBRANCH   1  27
TORSDOF 16
