REMARK  Name = 
REMARK  12 active torsions:
REMARK  status: ('A' for Active; 'I' for Inactive)
REMARK    1  A    between atoms: C_1  and  N_2
REMARK    2  A    between atoms: N_4  and  C_5
REMARK    3  A    between atoms: C_8  and  C_10
REMARK    4  A    between atoms: C_10  and  O_11
REMARK    5  A    between atoms: O_11  and  P_12
REMARK    6  A    between atoms: P_12  and  O_13
REMARK    7  A    between atoms: P_12  and  O_15
REMARK    8  A    between atoms: O_15  and  P_16
REMARK    9  A    between atoms: P_16  and  O_17
REMARK   10  A    between atoms: P_16  and  O_18
REMARK   11  A    between atoms: C_20  and  O_22
REMARK   12  A    between atoms: C_23  and  O_25
REMARK                            x       y       z     vdW  Elec       q    Type
REMARK                         _______ _______ _______ _____ _____    ______ ____
ROOT
ATOM      1  C   UNL     1       4.355  -3.458   8.258  0.00  0.00    +0.240 C 
ATOM      2  C   UNL     1       4.776  -4.814   7.630  0.00  0.00    +0.193 C 
ATOM      3  C   UNL     1       5.473  -4.436   6.324  0.00  0.00    +0.178 C 
ATOM      4  C   UNL     1       5.421  -2.915   6.305  0.00  0.00    +0.178 C 
ATOM      5  O   UNL     1       5.253  -2.493   7.665  0.00  0.00    -0.348 OA
ENDROOT
BRANCH   1  19
ATOM      6  C   UNL     1       0.260  -0.782   7.279  0.00  0.00    +0.131 C 
ATOM      7  N   UNL     1       1.128  -1.839   7.714  0.00  0.00    -0.310 N 
ATOM      8  C   UNL     1       0.779  -3.098   8.184  0.00  0.00    +0.136 A 
ATOM      9  C   UNL     1      -0.545  -3.666   8.470  0.00  0.00    +0.276 A 
ATOM     10  N   UNL     1      -0.489  -4.936   8.990  0.00  0.00    -0.294 N 
ATOM     11  H   UNL     1      -1.368  -5.352   9.243  0.00  0.00    +0.172 HD
ATOM     12  C   UNL     1       0.684  -5.591   9.238  0.00  0.00    +0.195 A 
ATOM     13  N   UNL     1       1.853  -5.098   8.963  0.00  0.00    -0.199 NA
ATOM     14  N   UNL     1       0.601  -6.823   9.800  0.00  0.00    -0.329 N 
ATOM     15  H   UNL     1       1.490  -7.314   9.746  0.00  0.00    +0.145 HD
ATOM     16  H   UNL     1      -0.179  -7.397   9.515  0.00  0.00    +0.145 HD
ATOM     17  O   UNL     1      -1.605  -3.079   8.272  0.00  0.00    -0.266 OA
ATOM     18  C   UNL     1       1.871  -3.851   8.412  0.00  0.00    +0.155 A 
ATOM     19  N   UNL     1       2.983  -3.106   7.995  0.00  0.00    -0.270 N 
ATOM     20  C   UNL     1       2.581  -1.731   7.677  0.00  0.00    +0.217 C 
ENDBRANCH   1  19
BRANCH   2  21
ATOM     21  O   UNL     1       5.731  -5.499   8.475  0.00  0.00    -0.385 OA
ATOM     22  H   UNL     1       6.359  -4.839   8.815  0.00  0.00    +0.210 HD
ENDBRANCH   2  21
BRANCH   3  23
ATOM     23  O   UNL     1       4.824  -4.984   5.179  0.00  0.00    -0.386 OA
ATOM     24  H   UNL     1       5.223  -4.570   4.389  0.00  0.00    +0.210 HD
ENDBRANCH   3  23
BRANCH   4  25
ATOM     25  C   UNL     1       6.662  -2.296   5.678  0.00  0.00    +0.206 C 
BRANCH  25  26
ATOM     26  O   UNL     1       6.712  -2.649   4.299  0.00  0.00    -0.284 OA
BRANCH  26  27
ATOM     27  P   UNL     1       7.938  -2.023   3.402  0.00  0.00    +0.483 P 
ATOM     28  O   UNL     1       7.443  -1.891   1.968  0.00  0.00    -0.227 OA
BRANCH  27  29
ATOM     29  O   UNL     1       7.295  -0.441   3.681  0.00  0.00    -0.302 OA
ATOM     30  H   UNL     1       6.710  -0.315   2.901  0.00  0.00    +0.222 HD
ENDBRANCH  27  29
BRANCH  27  31
ATOM     31  O   UNL     1       8.580  -3.605   3.124  0.00  0.00    -0.186 OA
BRANCH  31  32
ATOM     32  P   UNL     1      10.211  -3.474   2.562  0.00  0.00    +0.481 P 
ATOM     33  O   UNL     1      11.671  -3.357   2.059  0.00  0.00    -0.227 OA
BRANCH  32  34
ATOM     34  O   UNL     1       9.668  -4.196   1.200  0.00  0.00    -0.302 OA
ATOM     35  H   UNL     1       9.852  -5.149   1.283  0.00  0.00    +0.222 HD
ENDBRANCH  32  34
BRANCH  32  36
ATOM     36  O   UNL     1      10.448  -4.904   3.332  0.00  0.00    -0.302 OA
ATOM     37  H   UNL     1      10.767  -4.808   4.245  0.00  0.00    +0.222 HD
ENDBRANCH  32  36
ENDBRANCH  31  32
ENDBRANCH  27  31
ENDBRANCH  26  27
ENDBRANCH  25  26
ENDBRANCH   4  25
TORSDOF 11
