REMARK  Name = 
REMARK  4 active torsions:
REMARK  status: ('A' for Active; 'I' for Inactive)
REMARK    1  A    between atoms: C_1  and  C_2
REMARK    2  A    between atoms: C_2  and  N_4
REMARK    3  A    between atoms: C_2  and  C_5
REMARK    4  A    between atoms: C_5  and  C_7
REMARK                            x       y       z     vdW  Elec       q    Type
REMARK                         _______ _______ _______ _____ _____    ______ ____
ROOT
ATOM      1  C   UNL     1       3.078  -1.213   0.716  0.00  0.00    +0.179 C 
ATOM      2  O   UNL     1       2.362  -2.044   1.277  0.00  0.00    -0.290 OA
ENDROOT
BRANCH   1   3
ATOM      3  C   UNL     1       4.557  -1.402   0.778  0.00  0.00    +0.019 A 
ATOM      4  C   UNL     1       5.391  -1.014  -0.276  0.00  0.00    +0.011 A 
ATOM      5  C   UNL     1       6.773  -1.184  -0.174  0.00  0.00    +0.001 A 
ATOM      6  C   UNL     1       7.324  -1.752   0.973  0.00  0.00    +0.000 A 
ATOM      7  C   UNL     1       6.494  -2.163   2.017  0.00  0.00    +0.001 A 
ATOM      8  C   UNL     1       5.113  -1.992   1.921  0.00  0.00    +0.011 A 
ENDBRANCH   1   3
BRANCH   1  10
ATOM      9  C   UNL     1       3.035   1.318   0.419  0.00  0.00    +0.032 C 
ATOM     10  C   UNL     1       2.519  -0.022  -0.094  0.00  0.00    +0.120 C 
BRANCH  10  11
ATOM     11  N   UNL     1       1.048   0.005  -0.011  0.00  0.00    -0.321 NA
ATOM     12  H   UNL     1       0.667   0.636  -0.712  0.00  0.00    +0.119 HD
ATOM     13  H   UNL     1       0.690  -0.931  -0.211  0.00  0.00    +0.119 HD
ENDBRANCH  10  11
ENDBRANCH   1  10
TORSDOF 3
