REMARK  Name = 
REMARK  6 active torsions:
REMARK  status: ('A' for Active; 'I' for Inactive)
REMARK    1  A    between atoms: C_1  and  O_2
REMARK    2  A    between atoms: O_2  and  C_3
REMARK    3  A    between atoms: C_6  and  C_15
REMARK    4  A    between atoms: C_8  and  O_9
REMARK    5  A    between atoms: O_9  and  C_10
REMARK    6  A    between atoms: N_17  and  C_18
REMARK                            x       y       z     vdW  Elec       q    Type
REMARK                         _______ _______ _______ _____ _____    ______ ____
ROOT
ATOM      1  C   UNL     1       3.327  -1.136   0.513  0.00  0.00    +0.162 A 
ATOM      2  C   UNL     1       2.671  -2.335   0.186  0.00  0.00    +0.163 A 
ATOM      3  C   UNL     1       3.253  -3.570   0.573  0.00  0.00    +0.062 A 
ATOM      4  C   UNL     1       4.464  -3.622   1.273  0.00  0.00    +0.041 A 
ATOM      5  C   UNL     1       5.092  -2.422   1.599  0.00  0.00    +0.017 A 
ATOM      6  C   UNL     1       4.534  -1.201   1.229  0.00  0.00    +0.050 A 
ENDROOT
BRANCH   4   7
ATOM      7  C   UNL     1       5.176  -4.871   1.677  0.00  0.00    +0.248 C 
ATOM      8  N   UNL     1       4.531  -6.087   1.517  0.00  0.00    -0.279 N 
ATOM      9  H   UNL     1       3.528  -6.067   1.673  0.00  0.00    +0.155 HD
ATOM     10  O   UNL     1       6.281  -4.765   2.204  0.00  0.00    -0.270 OA
BRANCH   8  11
ATOM     11  C   UNL     1       5.195  -7.303   1.875  0.00  0.00    +0.074 A 
ATOM     12  C   UNL     1       6.487  -7.638   1.419  0.00  0.00    +0.082 A 
ATOM     13 CL   UNL     1       7.338  -6.756   0.197  0.00  0.00    -0.080 Cl
ATOM     14  C   UNL     1       7.070  -8.816   1.880  0.00  0.00    +0.132 A 
ATOM     15  N   UNL     1       6.467  -9.683   2.726  0.00  0.00    -0.260 NA
ATOM     16  C   UNL     1       5.218  -9.356   3.128  0.00  0.00    +0.132 A 
ATOM     17  C   UNL     1       4.544  -8.203   2.730  0.00  0.00    +0.082 A 
ATOM     18 CL   UNL     1       2.967  -7.891   3.348  0.00  0.00    -0.080 Cl
ENDBRANCH   8  11
ENDBRANCH   4   7
BRANCH   1  20
ATOM     19  C   UNL     1       3.627   1.202   0.193  0.00  0.00    +0.277 C 
ATOM     20  O   UNL     1       2.764   0.064   0.176  0.00  0.00    -0.491 OA
ENDBRANCH   1  20
BRANCH   2  21
ATOM     21  O   UNL     1       1.483  -2.532  -0.457  0.00  0.00    -0.485 OA
BRANCH  21  22
ATOM     22  C   UNL     1       0.772  -1.620  -1.283  0.00  0.00    +0.174 C 
ATOM     23  C   UNL     1       1.515  -0.907  -2.414  0.00  0.00    +0.044 C 
ATOM     24  C   UNL     1       0.953   0.515  -2.446  0.00  0.00    +0.004 C 
ATOM     25  C   UNL     1      -0.332   0.483  -1.628  0.00  0.00    +0.004 C 
ATOM     26  C   UNL     1      -0.101  -0.591  -0.572  0.00  0.00    +0.044 C 
ENDBRANCH  21  22
ENDBRANCH   2  21
TORSDOF 5
