REMARK  Name = 
REMARK  5 active torsions:
REMARK  status: ('A' for Active; 'I' for Inactive)
REMARK    1  A    between atoms: C_1  and  C_2
REMARK    2  A    between atoms: C_2  and  N_4
REMARK    3  A    between atoms: C_2  and  C_5
REMARK    4  A    between atoms: C_5  and  O_7
REMARK    5  A    between atoms: C_5  and  C_8
REMARK                            x       y       z     vdW  Elec       q    Type
REMARK                         _______ _______ _______ _____ _____    ______ ____
ROOT
ATOM      1  C   UNL     1       3.087  -0.800   1.010  0.00  0.00    +0.161 C 
ENDROOT
BRANCH   1   2
ATOM      2  C   UNL     1       4.599  -0.848   0.986  0.00  0.00    -0.018 A 
ATOM      3  C   UNL     1       5.301  -1.339  -0.124  0.00  0.00    +0.006 A 
ATOM      4  C   UNL     1       6.699  -1.338  -0.138  0.00  0.00    +0.000 A 
ATOM      5  C   UNL     1       7.409  -0.862   0.961  0.00  0.00    +0.000 A 
ATOM      6  C   UNL     1       6.725  -0.392   2.081  0.00  0.00    +0.000 A 
ATOM      7  C   UNL     1       5.329  -0.386   2.093  0.00  0.00    +0.006 A 
ENDBRANCH   1   2
BRANCH   1   9
ATOM      8  C   UNL     1       2.954   1.424  -0.269  0.00  0.00    +0.026 C 
ATOM      9  C   UNL     1       2.431  -0.009  -0.160  0.00  0.00    +0.081 C 
BRANCH   9  10
ATOM     10  N   UNL     1       0.958   0.029   0.008  0.00  0.00    -0.325 NA
ATOM     11  H   UNL     1       0.558   0.626  -0.716  0.00  0.00    +0.119 HD
ATOM     12  H   UNL     1       0.585  -0.901  -0.180  0.00  0.00    +0.119 HD
ENDBRANCH   9  10
ENDBRANCH   1   9
BRANCH   1  13
ATOM     13  O   UNL     1       2.607  -2.151   0.984  0.00  0.00    -0.386 OA
ATOM     14  H   UNL     1       1.670  -2.088   1.233  0.00  0.00    +0.210 HD
ENDBRANCH   1  13
TORSDOF 4
