REMARK  Name = 
REMARK  7 active torsions:
REMARK  status: ('A' for Active; 'I' for Inactive)
REMARK    1  A    between atoms: N_1  and  CA_2
REMARK    2  A    between atoms: CA_2  and  C_4
REMARK    3  A    between atoms: CA_2  and  C_13
REMARK    4  A    between atoms: C_4  and  C_5
REMARK    5  A    between atoms: C_7  and  O_8
REMARK    6  A    between atoms: C_9  and  O_10
REMARK    7  A    between atoms: C_13  and  O_14
REMARK                            x       y       z     vdW  Elec       q    Type
REMARK                         _______ _______ _______ _____ _____    ______ ____
ROOT
ATOM      1  C   UNL     1       2.608  -0.331  -2.573  0.00  0.00    -0.042 A 
ATOM      2  C   UNL     1       2.197   0.289  -3.766  0.00  0.00    +0.007 A 
ATOM      3  C   UNL     1       1.987  -0.465  -4.922  0.00  0.00    +0.049 A 
ATOM      4  C   UNL     1       2.160  -1.839  -4.875  0.00  0.00    +0.158 A 
ATOM      5  C   UNL     1       2.525  -2.471  -3.691  0.00  0.00    +0.158 A 
ATOM      6  C   UNL     1       2.749  -1.728  -2.538  0.00  0.00    +0.053 A 
ENDROOT
BRANCH   4   7
ATOM      7  O   UNL     1       1.978  -2.572  -6.012  0.00  0.00    -0.503 OA
ATOM      8  H   UNL     1       2.172  -3.492  -5.740  0.00  0.00    +0.292 HD
ENDBRANCH   4   7
BRANCH   5   9
ATOM      9  O   UNL     1       2.669  -3.831  -3.712  0.00  0.00    -0.503 OA
ATOM     10  H   UNL     1       2.954  -4.117  -2.826  0.00  0.00    +0.292 HD
ENDBRANCH   5   9
BRANCH   1  11
ATOM     11  C   UNL     1       2.962   0.500  -1.356  0.00  0.00    +0.065 C 
BRANCH  11  12
ATOM     12  CA  UNL     1       4.438   0.942  -1.299  0.00  0.00    +0.165 C 
BRANCH  12  13
ATOM     13  N   UNL     1       4.864   1.800  -2.453  0.00  0.00    -0.318 NA
ATOM     14  H1  UNL     1       4.447   1.418  -3.310  0.00  0.00    +0.119 HD
ATOM     15  H2  UNL     1       4.409   2.711  -2.345  0.00  0.00    +0.119 HD
ENDBRANCH  12  13
BRANCH  12  16
ATOM     16  C   UNL     1       5.381  -0.269  -1.203  0.00  0.00    +0.322 C 
ATOM     17  OXT UNL     1       5.259  -1.196  -0.418  0.00  0.00    -0.249 OA
BRANCH  16  18
ATOM     18  O   UNL     1       6.394  -0.185  -2.104  0.00  0.00    -0.480 OA
ATOM     19  H   UNL     1       6.262   0.674  -2.578  0.00  0.00    +0.295 HD
ENDBRANCH  16  18
ENDBRANCH  12  16
ENDBRANCH  11  12
ENDBRANCH   1  11
TORSDOF 7
