REMARK  Name = 
REMARK  8 active torsions:
REMARK  status: ('A' for Active; 'I' for Inactive)
REMARK    1  A    between atoms: C_1  and  C_2
REMARK    2  A    between atoms: C_3  and  C_4
REMARK    3  A    between atoms: C_4  and  C_5
REMARK    4  A    between atoms: C_6  and  C_7
REMARK    5  A    between atoms: C_7  and  C_8
REMARK    6  A    between atoms: C_8  and  C_9
REMARK    7  A    between atoms: C_9  and  C_11
REMARK    8  A    between atoms: C_14  and  C_16
REMARK                            x       y       z     vdW  Elec       q    Type
REMARK                         _______ _______ _______ _____ _____    ______ ____
ROOT
ATOM      1  C   UNL     1       9.024  -5.135   2.711  0.00  0.00    +0.165 C 
ATOM      2  O   UNL     1       8.359  -6.104   3.061  0.00  0.00    -0.295 OA
ENDROOT
BRANCH   1   3
ATOM      3  C   UNL     1      10.484  -5.110   2.978  0.00  0.00    +0.223 C 
ATOM      4  C   UNL     1      11.560  -4.880   1.952  0.00  0.00    +0.240 C 
ATOM      5  O   UNL     1      11.199  -6.206   2.367  0.00  0.00    -0.351 OA
BRANCH   4   6
ATOM      6  C   UNL     1      11.288  -4.548   0.539  0.00  0.00    +0.242 C 
ATOM      7  O   UNL     1      11.410  -3.402   0.133  0.00  0.00    -0.273 OA
ATOM      8  N   UNL     1      10.925  -5.583  -0.271  0.00  0.00    -0.327 N 
ATOM      9  H   UNL     1      10.868  -6.529   0.085  0.00  0.00    +0.145 HD
ATOM     10  H   UNL     1      10.818  -5.412  -1.259  0.00  0.00    +0.145 HD
ENDBRANCH   4   6
ENDBRANCH   1   3
BRANCH   1  11
ATOM     11  C   UNL     1       8.431  -3.883   2.113  0.00  0.00    +0.081 C 
BRANCH  11  12
ATOM     12  C   UNL     1       6.905  -3.919   2.078  0.00  0.00    +0.034 C 
BRANCH  12  14
ATOM     13  C   UNL     1       6.157  -2.603   0.085  0.00  0.00    -0.027 C 
ATOM     14  C   UNL     1       6.387  -2.679   1.406  0.00  0.00    -0.030 C 
BRANCH  13  15
ATOM     15  C   UNL     1       5.731  -1.355  -0.630  0.00  0.00    +0.053 C 
BRANCH  15  18
ATOM     16  C   UNL     1       7.592  -0.408  -3.930  0.00  0.00    +0.035 C 
ATOM     17  C   UNL     1       6.543  -0.832  -2.955  0.00  0.00    -0.034 C 
ATOM     18  C   UNL     1       6.767  -0.936  -1.634  0.00  0.00    -0.027 C 
ENDBRANCH  15  18
ENDBRANCH  13  15
ENDBRANCH  12  14
ENDBRANCH  11  12
ENDBRANCH   1  11
TORSDOF 7
