REMARK  Name = 
REMARK  4 active torsions:
REMARK  status: ('A' for Active; 'I' for Inactive)
REMARK    1  A    between atoms: N_2  and  C_4
REMARK    2  A    between atoms: C_7  and  C_10
REMARK    3  A    between atoms: C_13  and  C_15
REMARK    4  A    between atoms: N_16  and  N_17
REMARK                            x       y       z     vdW  Elec       q    Type
REMARK                         _______ _______ _______ _____ _____    ______ ____
ROOT
ATOM      1  C   UNL     1       5.010  -4.992  -1.435  0.00  0.00    +0.136 A 
ATOM      2  O   UNL     1       4.441  -6.178  -1.070  0.00  0.00    -0.454 OA
ATOM      3  C   UNL     1       5.131  -7.182  -1.691  0.00  0.00    +0.148 A 
ATOM      4  C   UNL     1       6.153  -6.646  -2.443  0.00  0.00    +0.051 A 
ATOM      5  C   UNL     1       6.084  -5.243  -2.269  0.00  0.00    +0.050 A 
ENDROOT
BRANCH   1   9
ATOM      6  C   UNL     1       3.052  -1.410  -0.157  0.00  0.00    +0.273 A 
ATOM      7  C   UNL     1       2.574  -2.649   0.285  0.00  0.00    +0.085 A 
ATOM      8  C   UNL     1       3.237  -3.822  -0.105  0.00  0.00    +0.018 A 
ATOM      9  C   UNL     1       4.369  -3.772  -0.940  0.00  0.00    +0.018 A 
ATOM     10  C   UNL     1       4.852  -2.516  -1.332  0.00  0.00    +0.018 A 
ATOM     11  C   UNL     1       4.201  -1.338  -0.951  0.00  0.00    +0.085 A 
BRANCH   6  13
ATOM     12  O   UNL     1       2.774   0.891  -0.252  0.00  0.00    -0.576 OA
ATOM     13  N   UNL     1       2.331  -0.179   0.190  0.00  0.00    +0.080 N 
ATOM     14  O   UNL     1       1.318  -0.282   0.896  0.00  0.00    +0.041 OA
ENDBRANCH   6  13
ENDBRANCH   1   9
BRANCH   3  15
ATOM     15  C   UNL     1       4.685  -8.529  -1.472  0.00  0.00    +0.176 C 
ATOM     16  N   UNL     1       5.176  -9.535  -2.135  0.00  0.00    -0.180 NA
BRANCH  16  17
ATOM     17  N   UNL     1       4.699 -10.770  -1.793  0.00  0.00    -0.168 N 
ATOM     18  C   UNL     1       4.313 -11.196  -0.514  0.00  0.00    +0.328 C 
ATOM     19  O   UNL     1       4.329 -10.565   0.531  0.00  0.00    -0.250 OA
ATOM     20  N   UNL     1       3.874 -12.476  -0.626  0.00  0.00    -0.237 N 
ATOM     21  H   UNL     1       3.467 -12.997   0.132  0.00  0.00    +0.159 HD
ATOM     22  C   UNL     1       3.959 -12.904  -1.913  0.00  0.00    +0.240 C 
ATOM     23  O   UNL     1       3.558 -13.986  -2.315  0.00  0.00    -0.274 OA
ATOM     24  C   UNL     1       4.658 -11.849  -2.750  0.00  0.00    +0.232 C 
ENDBRANCH  16  17
ENDBRANCH   3  15
TORSDOF 4
