REMARK  Name = 
REMARK  4 active torsions:
REMARK  status: ('A' for Active; 'I' for Inactive)
REMARK    1  A    between atoms: C_1  and  C_2
REMARK    2  A    between atoms: N_5  and  S_6
REMARK    3  A    between atoms: S_6  and  C_9
REMARK    4  A    between atoms: C_12  and  N_13
REMARK                            x       y       z     vdW  Elec       q    Type
REMARK                         _______ _______ _______ _____ _____    ______ ____
ROOT
ATOM      1  S   UNL     1       5.672   3.340   0.102  0.00  0.00    +0.074 S 
ATOM      2  O   UNL     1       5.110   3.807   1.353  0.00  0.00    -0.150 OA
ATOM      3  O   UNL     1       5.101   3.721  -1.168  0.00  0.00    -0.150 OA
ENDROOT
BRANCH   1   9
ATOM      4  C   UNL     1       6.631  -0.773   4.377  0.00  0.00    +0.089 C 
ATOM      5  C   UNL     1       6.612  -0.067   3.084  0.00  0.00    +0.136 A 
ATOM      6  O   UNL     1       7.764  -0.090   2.357  0.00  0.00    -0.358 OA
ATOM      7  N   UNL     1       7.552   0.551   1.144  0.00  0.00    -0.062 NA
ATOM      8  C   UNL     1       6.301   1.008   1.199  0.00  0.00    +0.181 A 
ATOM      9  N   UNL     1       5.700   1.649   0.126  0.00  0.00    -0.197 N 
ATOM     10  H   UNL     1       6.011   1.314  -0.781  0.00  0.00    +0.175 HD
ATOM     11  C   UNL     1       5.653   0.624   2.387  0.00  0.00    +0.092 A 
ENDBRANCH   1   9
BRANCH   1  12
ATOM     12  C   UNL     1       7.391   3.810   0.045  0.00  0.00    +0.109 A 
ATOM     13  C   UNL     1       7.936   4.609   1.052  0.00  0.00    +0.030 A 
ATOM     14  C   UNL     1       9.274   5.015   0.966  0.00  0.00    +0.024 A 
ATOM     15  C   UNL     1      10.083   4.592  -0.095  0.00  0.00    +0.025 A 
ATOM     16  C   UNL     1       9.500   3.858  -1.133  0.00  0.00    +0.024 A 
ATOM     17  C   UNL     1       8.161   3.454  -1.062  0.00  0.00    +0.030 A 
BRANCH  15  18
ATOM     18  N   UNL     1      11.383   5.095  -0.232  0.00  0.00    -0.358 N 
ATOM     19  H   UNL     1      11.825   5.333   0.651  0.00  0.00    +0.142 HD
ATOM     20  H   UNL     1      11.985   4.520  -0.813  0.00  0.00    +0.142 HD
ENDBRANCH  15  18
ENDBRANCH   1  12
TORSDOF 3
