REMARK  Name = 
REMARK  14 active torsions:
REMARK  status: ('A' for Active; 'I' for Inactive)
REMARK    1  A    between atoms: O_1  and  C_2
REMARK    2  A    between atoms: C_4  and  O_6
REMARK    3  A    between atoms: C_7  and  O_9
REMARK    4  A    between atoms: O_9  and  P_10
REMARK    5  A    between atoms: P_10  and  O_11
REMARK    6  A    between atoms: P_10  and  O_13
REMARK    7  A    between atoms: O_13  and  P_14
REMARK    8  A    between atoms: P_14  and  O_15
REMARK    9  A    between atoms: P_14  and  O_16
REMARK   10  A    between atoms: C_19  and  C_21
REMARK   11  A    between atoms: C_21  and  O_22
REMARK   12  A    between atoms: O_22  and  P_23
REMARK   13  A    between atoms: P_23  and  O_24
REMARK   14  A    between atoms: P_23  and  O_25
REMARK                            x       y       z     vdW  Elec       q    Type
REMARK                         _______ _______ _______ _____ _____    ______ ____
ROOT
ATOM      1  C   UNL     1       9.049   2.331   0.523  0.00  0.00    +0.179 C 
ATOM      2  C   UNL     1       8.224   1.093   0.859  0.00  0.00    +0.179 C 
ATOM      3  O   UNL     1       7.385   1.401   1.992  0.00  0.00    -0.340 OA
ATOM      4  C   UNL     1       7.571   2.765   2.387  0.00  0.00    +0.293 C 
ATOM      5  C   UNL     1       8.310   3.464   1.218  0.00  0.00    +0.202 C 
ENDROOT
BRANCH   1   6
ATOM      6  O   UNL     1       9.135   2.488  -0.892  0.00  0.00    -0.386 OA
ATOM      7  H   UNL     1       9.194   3.445  -1.079  0.00  0.00    +0.210 HD
ENDBRANCH   1   6
BRANCH   5   8
ATOM      8  O   UNL     1       7.453   4.120   0.276  0.00  0.00    -0.384 OA
ATOM      9  H   UNL     1       6.866   3.446  -0.112  0.00  0.00    +0.210 HD
ENDBRANCH   5   8
BRANCH   2  10
ATOM     10  C   UNL     1       9.150  -0.084   1.177  0.00  0.00    +0.206 C 
BRANCH  10  11
ATOM     11  O   UNL     1       8.382  -1.253   1.397  0.00  0.00    -0.284 OA
BRANCH  11  12
ATOM     12  P   UNL     1       9.158  -2.539   1.920  0.00  0.00    +0.472 P 
ATOM     13  O   UNL     1      10.416  -2.896   1.193  0.00  0.00    -0.228 OA
BRANCH  12  14
ATOM     14  O   UNL     1       8.020  -3.651   1.927  0.00  0.00    -0.303 OA
ATOM     15  H   UNL     1       7.471  -3.588   1.125  0.00  0.00    +0.222 HD
ENDBRANCH  12  14
BRANCH  12  16
ATOM     16  O   UNL     1       9.381  -2.206   3.464  0.00  0.00    -0.303 OA
ATOM     17  H   UNL     1      10.326  -2.242   3.694  0.00  0.00    +0.222 HD
ENDBRANCH  12  16
ENDBRANCH  11  12
ENDBRANCH  10  11
ENDBRANCH   2  10
BRANCH   4  18
ATOM     18  O   UNL     1       6.348   3.415   2.656  0.00  0.00    -0.254 OA
BRANCH  18  19
ATOM     19  P   UNL     1       5.479   3.175   3.984  0.00  0.00    +0.486 P 
ATOM     20  O   UNL     1       4.248   4.016   4.042  0.00  0.00    -0.227 OA
BRANCH  19  21
ATOM     21  O   UNL     1       5.117   1.617   3.926  0.00  0.00    -0.302 OA
ATOM     22  H   UNL     1       4.329   1.495   3.357  0.00  0.00    +0.222 HD
ENDBRANCH  19  21
BRANCH  19  23
ATOM     23  O   UNL     1       6.481   3.316   5.211  0.00  0.00    -0.186 OA
BRANCH  23  24
ATOM     24  P   UNL     1       6.290   2.549   6.750  0.00  0.00    +0.481 P 
ATOM     25  O   UNL     1       6.119   1.862   8.127  0.00  0.00    -0.227 OA
BRANCH  24  26
ATOM     26  O   UNL     1       5.536   3.933   7.183  0.00  0.00    -0.302 OA
ATOM     27  H   UNL     1       6.212   4.534   7.545  0.00  0.00    +0.222 HD
ENDBRANCH  24  26
BRANCH  24  28
ATOM     28  O   UNL     1       7.789   3.143   7.071  0.00  0.00    -0.302 OA
ATOM     29  H   UNL     1       8.482   2.515   6.806  0.00  0.00    +0.222 HD
ENDBRANCH  24  28
ENDBRANCH  23  24
ENDBRANCH  19  23
ENDBRANCH  18  19
ENDBRANCH   4  18
TORSDOF 14
