REMARK  Name = 
REMARK  7 active torsions:
REMARK  status: ('A' for Active; 'I' for Inactive)
REMARK    1  A    between atoms: C_1  and  N_2
REMARK    2  A    between atoms: C_3  and  C_4
REMARK    3  A    between atoms: C_4  and  S_5
REMARK    4  A    between atoms: S_5  and  C_6
REMARK    5  A    between atoms: C_6  and  C_7
REMARK    6  A    between atoms: C_16  and  S_22
REMARK    7  A    between atoms: S_22  and  N_23
REMARK                            x       y       z     vdW  Elec       q    Type
REMARK                         _______ _______ _______ _____ _____    ______ ____
ROOT
ATOM      1  C   UNL     1       0.856  -0.123  -0.270  0.00  0.00    +0.134 C 
ATOM      2  N   UNL     1       2.317  -0.062  -0.050  0.00  0.00    -0.159 NA
ATOM      3  S   UNL     1       2.785   1.461   0.541  0.00  0.00    +0.064 S 
ATOM      4  O   UNL     1       2.203   1.616   1.859  0.00  0.00    -0.153 OA
ATOM      5  O   UNL     1       2.552   2.434  -0.502  0.00  0.00    -0.153 OA
ATOM      6  C   UNL     1       4.515   1.298   0.764  0.00  0.00    +0.128 A 
ATOM      7  C   UNL     1       5.076   0.025   0.791  0.00  0.00    +0.056 A 
ATOM      8  C   UNL     1       6.471  -0.050   0.919  0.00  0.00    +0.047 A 
ATOM      9  C   UNL     1       7.264   1.102   1.087  0.00  0.00    +0.069 A 
ATOM     10  C   UNL     1       6.658   2.359   1.093  0.00  0.00    +0.125 A 
ATOM     11 CL   UNL     1       8.961   0.853   1.284  0.00  0.00    -0.081 Cl
ATOM     12  N   UNL     1       4.342  -1.137   0.554  0.00  0.00    -0.325 N 
ATOM     13  H   UNL     1       4.775  -1.976   0.941  0.00  0.00    +0.148 HD
ATOM     14  C   UNL     1       5.275   2.460   0.919  0.00  0.00    +0.060 A 
ATOM     15  C   UNL     1       2.896  -1.122   0.791  0.00  0.00    +0.172 C 
ENDROOT
BRANCH  10  16
ATOM     16  S   UNL     1       7.578   3.853   1.274  0.00  0.00    +0.057 S 
ATOM     17  O   UNL     1       6.651   4.953   1.419  0.00  0.00    -0.153 OA
ATOM     18  O   UNL     1       8.642   3.880   0.304  0.00  0.00    -0.153 OA
BRANCH  16  19
ATOM     19  N   UNL     1       8.281   3.700   2.789  0.00  0.00    -0.203 NA
ATOM     20  H   UNL     1       7.938   4.441   3.403  0.00  0.00    +0.144 HD
ATOM     21  H   UNL     1       9.298   3.687   2.692  0.00  0.00    +0.144 HD
ENDBRANCH  16  19
ENDBRANCH  10  16
BRANCH  15  22
ATOM     22  C   UNL     1       2.334  -2.535   0.463  0.00  0.00    +0.109 C 
BRANCH  22  23
ATOM     23  S   UNL     1       3.090  -3.824   1.545  0.00  0.00    -0.149 S 
BRANCH  23  24
ATOM     24  C   UNL     1       2.113  -5.296   1.028  0.00  0.00    +0.182 C 
BRANCH  24  25
ATOM     25  C   UNL     1       0.603  -5.273   1.261  0.00  0.00    +0.399 C 
ATOM     26  F   UNL     1       0.215  -6.314   2.031  0.00  0.00    -0.170 F 
ATOM     27  F   UNL     1      -0.056  -5.372   0.082  0.00  0.00    -0.170 F 
ATOM     28  F   UNL     1       0.172  -4.144   1.863  0.00  0.00    -0.170 F 
ENDBRANCH  24  25
ENDBRANCH  23  24
ENDBRANCH  22  23
ENDBRANCH  15  22
TORSDOF 6
