REMARK  Name = 
REMARK  17 active torsions:
REMARK  status: ('A' for Active; 'I' for Inactive)
REMARK    1  A    between atoms: C_1  and  C_2
REMARK    2  A    between atoms: C_2  and  C_3
REMARK    3  A    between atoms: C_2  and  C_4
REMARK    4  A    between atoms: C_2  and  N_5
REMARK    5  A    between atoms: C_6  and  C_8
REMARK    6  A    between atoms: N_18  and  C_19
REMARK    7  A    between atoms: C_19  and  C_20
REMARK    8  A    between atoms: C_20  and  O_22
REMARK    9  A    between atoms: C_20  and  C_23
REMARK   10  A    between atoms: C_23  and  C_25
REMARK   11  A    between atoms: C_23  and  N_32
REMARK   12  A    between atoms: C_25  and  C_26
REMARK   13  A    between atoms: C_33  and  C_35
REMARK   14  A    between atoms: C_35  and  C_37
REMARK   15  A    between atoms: C_35  and  N_41
REMARK   16  A    between atoms: C_37  and  C_38
REMARK   17  A    between atoms: C_42  and  C_44
REMARK                            x       y       z     vdW  Elec       q    Type
REMARK                         _______ _______ _______ _____ _____    ______ ____
ROOT
ATOM      1  C   UNL     1       6.945   6.021   6.891  0.00  0.00    +0.107 C 
ENDROOT
BRANCH   1   2
ATOM      2  N   UNL     1       6.387   4.811   7.540  0.00  0.00    -0.308 N 
ATOM      3  H   UNL     1       5.793   4.958   8.346  0.00  0.00    +0.149 HD
ATOM      4  C   UNL     1       6.656   3.529   7.097  0.00  0.00    +0.234 C 
ATOM      5  O   UNL     1       7.357   3.297   6.113  0.00  0.00    -0.274 OA
BRANCH   4   6
ATOM      6  C   UNL     1       6.006   2.387   7.922  0.00  0.00    +0.168 C 
BRANCH   6   7
ATOM      7  N   UNL     1       6.061   1.119   7.186  0.00  0.00    -0.298 N 
ATOM      8  H   UNL     1       6.526   1.107   6.277  0.00  0.00    +0.150 HD
ATOM      9  C   UNL     1       5.396  -0.021   7.585  0.00  0.00    +0.263 C 
ATOM     10  O   UNL     1       4.772  -0.089   8.639  0.00  0.00    -0.269 OA
BRANCH   9  11
ATOM     11  C   UNL     1       5.512  -1.212   6.682  0.00  0.00    +0.126 A 
ATOM     12  C   UNL     1       4.980  -2.425   7.092  0.00  0.00    +0.033 A 
ATOM     13  C   UNL     1       5.096  -3.517   6.243  0.00  0.00    +0.012 A 
ATOM     14  C   UNL     1       5.730  -3.362   5.000  0.00  0.00    +0.000 A 
ATOM     15  C   UNL     1       6.254  -2.092   4.669  0.00  0.00    +0.072 A 
ATOM     16  C   UNL     1       6.878  -1.954   3.435  0.00  0.00    +0.028 A 
ATOM     17  C   UNL     1       6.987  -3.021   2.537  0.00  0.00    +0.002 A 
ATOM     18  C   UNL     1       6.466  -4.266   2.874  0.00  0.00    +0.001 A 
ATOM     19  C   UNL     1       5.845  -4.440   4.106  0.00  0.00    +0.010 A 
ATOM     20  N   UNL     1       6.154  -1.023   5.494  0.00  0.00    -0.242 NA
ENDBRANCH   9  11
ENDBRANCH   6   7
BRANCH   6  21
ATOM     21  C   UNL     1       6.606   2.310   9.328  0.00  0.00    +0.127 C 
BRANCH  21  22
ATOM     22  C   UNL     1       8.096   2.031   9.328  0.00  0.00    +0.213 C 
ATOM     23  O   UNL     1       8.926   2.906   9.544  0.00  0.00    -0.276 OA
ATOM     24  N   UNL     1       8.462   0.744   9.103  0.00  0.00    -0.329 N 
ATOM     25  H   UNL     1       9.447   0.520   9.108  0.00  0.00    +0.145 HD
ATOM     26  H   UNL     1       7.792  -0.001   8.978  0.00  0.00    +0.145 HD
ENDBRANCH  21  22
ENDBRANCH   6  21
ENDBRANCH   4   6
ENDBRANCH   1   2
BRANCH   1  27
ATOM     27  C   UNL     1       8.149   6.587   7.706  0.00  0.00    +0.149 C 
BRANCH  27  28
ATOM     28  O   UNL     1       7.673   7.151   8.936  0.00  0.00    -0.389 OA
ATOM     29  H   UNL     1       8.448   7.177   9.528  0.00  0.00    +0.210 HD
ENDBRANCH  27  28
BRANCH  27  30
ATOM     30  C   UNL     1       8.948   7.656   6.883  0.00  0.00    +0.118 C 
BRANCH  30  32
ATOM     31  C   UNL     1      10.855   9.257   6.657  0.00  0.00    +0.143 C 
ATOM     32  N   UNL     1      10.148   8.255   7.538  0.00  0.00    -0.289 NA
ATOM     33  C   UNL     1      11.156   7.212   7.898  0.00  0.00    +0.089 C 
ATOM     34  C   UNL     1      11.742   6.466   6.680  0.00  0.00    +0.006 C 
ATOM     35  C   UNL     1      12.395   7.456   5.701  0.00  0.00    -0.005 C 
ATOM     36  C   UNL     1      12.850   6.721   4.432  0.00  0.00    +0.004 C 
ATOM     37  C   UNL     1      13.823   5.591   4.769  0.00  0.00    +0.000 C 
ATOM     38  C   UNL     1      13.251   4.637   5.817  0.00  0.00    +0.000 C 
ATOM     39  C   UNL     1      12.758   5.378   7.065  0.00  0.00    +0.005 C 
ATOM     40  C   UNL     1      11.453   8.621   5.379  0.00  0.00    +0.032 C 
BRANCH  31  43
ATOM     41  N   UNL     1       9.146  11.044   7.179  0.00  0.00    -0.309 N 
ATOM     42  H   UNL     1       8.863  10.408   7.918  0.00  0.00    +0.149 HD
ATOM     43  C   UNL     1      10.081  10.559   6.287  0.00  0.00    +0.231 C 
ATOM     44  O   UNL     1      10.393  11.198   5.279  0.00  0.00    -0.274 OA
BRANCH  41  46
ATOM     45  C   UNL     1       7.575  12.334   5.714  0.00  0.00    +0.031 C 
ATOM     46  C   UNL     1       8.422  12.332   7.001  0.00  0.00    +0.026 C 
ATOM     47  C   UNL     1       7.473  12.563   8.194  0.00  0.00    +0.031 C 
ATOM     48  C   UNL     1       9.395  13.530   6.958  0.00  0.00    +0.031 C 
ENDBRANCH  41  46
ENDBRANCH  31  43
ENDBRANCH  30  32
ENDBRANCH  27  30
ENDBRANCH   1  27
BRANCH   1  49
ATOM     49  C   UNL     1       5.829   7.075   6.678  0.00  0.00    +0.060 C 
BRANCH  49  50
ATOM     50  C   UNL     1       4.769   6.647   5.686  0.00  0.00    -0.046 A 
ATOM     51  C   UNL     1       5.126   6.282   4.380  0.00  0.00    +0.004 A 
ATOM     52  C   UNL     1       4.157   5.879   3.463  0.00  0.00    +0.000 A 
ATOM     53  C   UNL     1       2.815   5.862   3.832  0.00  0.00    +0.000 A 
ATOM     54  C   UNL     1       2.442   6.253   5.116  0.00  0.00    +0.000 A 
ATOM     55  C   UNL     1       3.413   6.646   6.040  0.00  0.00    +0.004 A 
ENDBRANCH  49  50
ENDBRANCH   1  49
TORSDOF 14
