REMARK  Name = 
REMARK  8 active torsions:
REMARK  status: ('A' for Active; 'I' for Inactive)
REMARK    1  A    between atoms: N_8  and  C_9
REMARK    2  A    between atoms: C_12  and  C_14
REMARK    3  A    between atoms: C_14  and  O_15
REMARK    4  A    between atoms: C_16  and  O_18
REMARK    5  A    between atoms: C_19  and  O_21
REMARK    6  A    between atoms: O_21  and  P_22
REMARK    7  A    between atoms: P_22  and  O_23
REMARK    8  A    between atoms: P_22  and  O_24
REMARK                            x       y       z     vdW  Elec       q    Type
REMARK                         _______ _______ _______ _____ _____    ______ ____
ROOT
ATOM      1  C   UNL     1       5.167  -3.727   0.009  0.00  0.00    +0.254 C 
ATOM      2  C   UNL     1       5.049  -4.168   1.482  0.00  0.00    +0.211 C 
ATOM      3  C   UNL     1       5.263  -5.687   1.429  0.00  0.00    +0.179 C 
ATOM      4  C   UNL     1       5.465  -6.007  -0.050  0.00  0.00    +0.177 C 
ATOM      5  O   UNL     1       5.890  -4.784  -0.668  0.00  0.00    -0.346 OA
ENDROOT
BRANCH   1  17
ATOM      6  N   UNL     1       1.651  -0.405   2.076  0.00  0.00    -0.329 N 
ATOM      7  H   UNL     1       0.746  -0.347   2.522  0.00  0.00    +0.145 HD
ATOM      8  H   UNL     1       2.417  -0.473   2.742  0.00  0.00    +0.145 HD
ATOM      9  C   UNL     1       1.783  -1.256   1.030  0.00  0.00    +0.195 A 
ATOM     10  N   UNL     1       0.663  -1.419   0.236  0.00  0.00    -0.293 N 
ATOM     11  H   UNL     1      -0.175  -0.898   0.429  0.00  0.00    +0.172 HD
ATOM     12  C   UNL     1       0.611  -2.209  -0.904  0.00  0.00    +0.280 A 
ATOM     13  O   UNL     1      -0.400  -2.291  -1.594  0.00  0.00    -0.265 OA
ATOM     14  C   UNL     1       1.862  -2.892  -1.144  0.00  0.00    +0.172 A 
ATOM     15  N   UNL     1       2.231  -3.752  -2.145  0.00  0.00    -0.229 NA
ATOM     16  C   UNL     1       3.473  -4.075  -1.851  0.00  0.00    +0.203 A 
ATOM     17  N   UNL     1       3.896  -3.514  -0.671  0.00  0.00    -0.285 N 
ATOM     18  C   UNL     1       2.893  -2.683  -0.255  0.00  0.00    +0.171 A 
ATOM     19  N   UNL     1       2.920  -1.869   0.823  0.00  0.00    -0.196 NA
ENDBRANCH   1  17
BRANCH   3  20
ATOM     20  O   UNL     1       4.132  -6.391   1.938  0.00  0.00    -0.386 OA
ATOM     21  H   UNL     1       4.376  -7.337   1.939  0.00  0.00    +0.210 HD
ENDBRANCH   3  20
BRANCH   2  22
ATOM     22  O   UNL     1       6.112  -3.644   2.302  0.00  0.00    -0.276 OA
BRANCH  22  23
ATOM     23  P   UNL     1       6.172  -1.937   2.571  0.00  0.00    +0.473 P 
ATOM     24  O   UNL     1       6.225  -0.408   2.812  0.00  0.00    -0.228 OA
BRANCH  23  25
ATOM     25  O   UNL     1       7.518  -2.282   3.437  0.00  0.00    -0.303 OA
ATOM     26  H   UNL     1       8.281  -2.467   2.863  0.00  0.00    +0.222 HD
ENDBRANCH  23  25
BRANCH  23  27
ATOM     27  O   UNL     1       5.158  -2.226   3.822  0.00  0.00    -0.303 OA
ATOM     28  H   UNL     1       5.682  -2.056   4.627  0.00  0.00    +0.222 HD
ENDBRANCH  23  27
ENDBRANCH  22  23
ENDBRANCH   2  22
BRANCH   4  29
ATOM     29  C   UNL     1       6.464  -7.130  -0.308  0.00  0.00    +0.190 C 
BRANCH  29  30
ATOM     30  O   UNL     1       6.073  -8.316   0.376  0.00  0.00    -0.392 OA
ATOM     31  H   UNL     1       5.509  -8.832  -0.230  0.00  0.00    +0.210 HD
ENDBRANCH  29  30
ENDBRANCH   4  29
TORSDOF 8
