REMARK  Name = 
REMARK  13 active torsions:
REMARK  status: ('A' for Active; 'I' for Inactive)
REMARK    1  A    between atoms: C_1  and  C_2
REMARK    2  A    between atoms: C_2  and  O_3
REMARK    3  A    between atoms: O_3  and  C_4
REMARK    4  A    between atoms: C_4  and  C_6
REMARK    5  A    between atoms: C_6  and  C_8
REMARK    6  A    between atoms: C_6  and  N_16
REMARK    7  A    between atoms: C_8  and  C_9
REMARK    8  A    between atoms: C_9  and  C_10
REMARK    9  A    between atoms: N_16  and  CA_17
REMARK   10  A    between atoms: CA_17  and  CB_19
REMARK   11  A    between atoms: CA_17  and  C_20
REMARK   12  A    between atoms: C_26  and  C_28
REMARK   13  A    between atoms: C_28  and  O_29
REMARK                            x       y       z     vdW  Elec       q    Type
REMARK                         _______ _______ _______ _____ _____    ______ ____
ROOT
ATOM      1  CA  ALA A   1       7.010   4.244   1.580  0.00  0.00    +0.138 C 
ATOM      2  CB  ALA A   1       6.539   4.625   2.984  0.00  0.00    +0.034 C 
ENDROOT
BRANCH   1   3
ATOM      3  C   ALA A   1       8.569   4.184   1.507  0.00  0.00    +0.233 C 
ATOM      4  N   UNK A   2       9.241   5.405   1.570  0.00  0.00    -0.285 N 
ATOM      5  C   UNK A   2      10.679   5.559   1.279  0.00  0.00    +0.187 C 
ATOM      6  C   UNK A   2      10.936   7.065   1.523  0.00  0.00    +0.064 C 
ATOM      7  C   UNK A   2       9.595   7.780   1.338  0.00  0.00    +0.080 C 
ATOM      8  S   UNK A   2       9.594   8.817  -0.169  0.00  0.00    -0.141 S 
ATOM      9  C   UNK A   2       8.598  10.168   0.504  0.00  0.00    +0.081 C 
ATOM     10  C   UNK A   2       9.072  10.422   1.919  0.00  0.00    +0.081 C 
ATOM     11  S   UNK A   2       9.200   8.840   2.790  0.00  0.00    -0.141 S 
ATOM     12  C   UNK A   2       8.558   6.657   1.240  0.00  0.00    +0.137 C 
ATOM     13  O   ALA A   1       9.206   3.133   1.435  0.00  0.00    -0.274 OA
BRANCH   5  14
ATOM     14  C   UNK A   2      11.774   4.787   2.050  0.00  0.00    +0.326 C 
ATOM     15  O   UNK A   2      12.929   5.193   2.135  0.00  0.00    -0.249 OA
BRANCH  14  16
ATOM     16  O   UNK A   2      11.436   3.580   2.532  0.00  0.00    -0.479 OA
ATOM     17  H   UNK A   2      10.559   3.260   2.208  0.00  0.00    +0.295 HD
ENDBRANCH  14  16
ENDBRANCH   5  14
ENDBRANCH   1   3
BRANCH   1  18
ATOM     18  N   ALA A   1       6.367   2.997   1.121  0.00  0.00    -0.294 NA
ATOM     19  H   ALA A   1       6.823   2.664   0.265  0.00  0.00    +0.123 HD
BRANCH  18  20
ATOM     20  C   UNK A   0       4.900   3.131   0.870  0.00  0.00    +0.164 C 
BRANCH  20  21
ATOM     21  C   UNK A   0       4.352   1.744   0.475  0.00  0.00    +0.324 C 
ATOM     22  O   UNK A   0       4.672   1.142  -0.541  0.00  0.00    -0.249 OA
BRANCH  21  23
ATOM     23  O   UNK A   0       3.460   1.302   1.408  0.00  0.00    -0.464 OA
BRANCH  23  25
ATOM     24  C   UNK A   0       1.705   0.019   0.330  0.00  0.00    +0.048 C 
ATOM     25  C   UNK A   0       2.940  -0.021   1.210  0.00  0.00    +0.229 C 
ENDBRANCH  23  25
ENDBRANCH  21  23
ENDBRANCH  20  21
BRANCH  20  26
ATOM     26  C   UNK A   0       4.582   4.156  -0.235  0.00  0.00    +0.035 C 
BRANCH  26  27
ATOM     27  C   UNK A   0       3.092   4.339  -0.540  0.00  0.00    +0.037 C 
BRANCH  27  28
ATOM     28  C   UNK A   0       2.919   5.480  -1.520  0.00  0.00    -0.047 A 
ATOM     29  C   UNK A   0       2.727   6.793  -1.065  0.00  0.00    +0.003 A 
ATOM     30  C   UNK A   0       2.650   7.853  -1.972  0.00  0.00    +0.000 A 
ATOM     31  C   UNK A   0       2.768   7.613  -3.340  0.00  0.00    +0.000 A 
ATOM     32  C   UNK A   0       2.962   6.313  -3.802  0.00  0.00    +0.000 A 
ATOM     33  C   UNK A   0       3.038   5.252  -2.898  0.00  0.00    +0.003 A 
ENDBRANCH  27  28
ENDBRANCH  26  27
ENDBRANCH  20  26
ENDBRANCH  18  20
ENDBRANCH   1  18
TORSDOF 11
