REMARK  Name = 
REMARK  1 active torsions:
REMARK  status: ('A' for Active; 'I' for Inactive)
REMARK    1  A    between atoms: C_6  and  C_8
REMARK                            x       y       z     vdW  Elec       q    Type
REMARK                         _______ _______ _______ _____ _____    ______ ____
ROOT
ATOM      1  N   UNL     1       1.527   1.928   0.671  0.00  0.00    -0.315 N 
ATOM      2  H   UNL     1       1.596   2.869   0.303  0.00  0.00    +0.146 HD
ATOM      3  H   UNL     1       0.625   1.491   0.524  0.00  0.00    +0.146 HD
ATOM      4  C   UNL     1       2.571   1.132   0.369  0.00  0.00    +0.272 C 
ATOM      5  O   UNL     1       3.703   1.813   0.097  0.00  0.00    -0.450 OA
ATOM      6  C   UNL     1       4.626   0.836  -0.424  0.00  0.00    +0.294 C 
ATOM      7  C   UNL     1       3.879  -0.444  -0.085  0.00  0.00    +0.286 C 
ATOM      8  O   UNL     1       4.348  -1.574  -0.159  0.00  0.00    -0.269 OA
ATOM      9  N   UNL     1       2.597  -0.144   0.292  0.00  0.00    -0.128 NA
ENDROOT
BRANCH   6  10
ATOM     10  C   UNL     1       4.836   1.115  -1.900  0.00  0.00    +0.002 A 
ATOM     11  C   UNL     1       4.920   0.089  -2.854  0.00  0.00    +0.008 A 
ATOM     12  C   UNL     1       5.049   0.389  -4.213  0.00  0.00    +0.000 A 
ATOM     13  C   UNL     1       5.119   1.714  -4.636  0.00  0.00    +0.000 A 
ATOM     14  C   UNL     1       5.086   2.743  -3.700  0.00  0.00    +0.000 A 
ATOM     15  C   UNL     1       4.957   2.445  -2.343  0.00  0.00    +0.008 A 
ENDBRANCH   6  10
TORSDOF 1
