REMARK  Name = 
REMARK  9 active torsions:
REMARK  status: ('A' for Active; 'I' for Inactive)
REMARK    1  A    between atoms: N_1  and  CA_2
REMARK    2  A    between atoms: CA_2  and  C_4
REMARK    3  A    between atoms: CA_2  and  C_16
REMARK    4  A    between atoms: C_4  and  C_5
REMARK    5  A    between atoms: C_8  and  O_9
REMARK    6  A    between atoms: O_9  and  P_10
REMARK    7  A    between atoms: P_10  and  O_11
REMARK    8  A    between atoms: P_10  and  O_12
REMARK    9  A    between atoms: C_16  and  O_17
REMARK                            x       y       z     vdW  Elec       q    Type
REMARK                         _______ _______ _______ _____ _____    ______ ____
ROOT
ATOM      1  C   UNL     1       2.698  -2.094  -1.528  0.00  0.00    -0.045 A 
ATOM      2  C   UNL     1       1.608  -2.401  -2.357  0.00  0.00    +0.007 A 
ATOM      3  C   UNL     1       1.243  -3.732  -2.586  0.00  0.00    +0.046 A 
ATOM      4  C   UNL     1       1.963  -4.764  -1.990  0.00  0.00    +0.132 A 
ATOM      5  C   UNL     1       3.068  -4.469  -1.190  0.00  0.00    +0.046 A 
ATOM      6  C   UNL     1       3.421  -3.142  -0.948  0.00  0.00    +0.007 A 
ENDROOT
BRANCH   1   7
ATOM      7  C   UNL     1       3.098  -0.660  -1.266  0.00  0.00    +0.065 C 
BRANCH   7   8
ATOM      8  CA  UNL     1       4.103  -0.098  -2.284  0.00  0.00    +0.165 C 
BRANCH   8   9
ATOM      9  N   UNL     1       5.393  -0.862  -2.341  0.00  0.00    -0.318 NA
ATOM     10  H1  UNL     1       5.595  -1.215  -1.400  0.00  0.00    +0.119 HD
ATOM     11  H2  UNL     1       5.206  -1.713  -2.883  0.00  0.00    +0.119 HD
ENDBRANCH   8   9
BRANCH   8  12
ATOM     12  C   UNL     1       4.432   1.361  -1.908  0.00  0.00    +0.322 C 
ATOM     13  OXT UNL     1       3.609   2.227  -1.652  0.00  0.00    -0.249 OA
BRANCH  12  14
ATOM     14  O   UNL     1       5.771   1.575  -1.901  0.00  0.00    -0.480 OA
ATOM     15  H   UNL     1       6.183   0.716  -2.174  0.00  0.00    +0.295 HD
ENDBRANCH  12  14
ENDBRANCH   8  12
ENDBRANCH   7   8
ENDBRANCH   1   7
BRANCH   4  16
ATOM     16  O   UNL     1       1.544  -6.053  -2.221  0.00  0.00    -0.404 OA
BRANCH  16  17
ATOM     17  P   UNL     1       1.879  -7.176  -0.949  0.00  0.00    +0.528 P 
ATOM     18  O   UNL     1       2.179  -8.181   0.190  0.00  0.00    -0.216 OA
BRANCH  17  19
ATOM     19  O   UNL     1       2.111  -8.270  -2.154  0.00  0.00    -0.293 OA
ATOM     20  H   UNL     1       3.017  -8.229  -2.507  0.00  0.00    +0.223 HD
ENDBRANCH  17  19
BRANCH  17  21
ATOM     21  O   UNL     1       0.258  -7.417  -0.909  0.00  0.00    -0.293 OA
ATOM     22  H   UNL     1       0.092  -8.227  -1.426  0.00  0.00    +0.223 HD
ENDBRANCH  17  21
ENDBRANCH  16  17
ENDBRANCH   4  16
TORSDOF 9
