REMARK  Name = 
REMARK  11 active torsions:
REMARK  status: ('A' for Active; 'I' for Inactive)
REMARK    1  A    between atoms: C_1  and  C_2
REMARK    2  A    between atoms: C_2  and  C_3
REMARK    3  A    between atoms: C_2  and  O_4
REMARK    4  A    between atoms: O_4  and  P_5
REMARK    5  A    between atoms: P_5  and  O_6
REMARK    6  A    between atoms: P_5  and  O_8
REMARK    7  A    between atoms: O_8  and  C_9
REMARK    8  A    between atoms: C_9  and  C_10
REMARK    9  A    between atoms: C_10  and  N_12
REMARK   10  A    between atoms: C_10  and  C_13
REMARK   11  A    between atoms: C_13  and  O_14
REMARK                            x       y       z     vdW  Elec       q    Type
REMARK                         _______ _______ _______ _____ _____    ______ ____
ROOT
ATOM      1  O   UNK     1       6.472  -0.128   1.339  0.00  0.00    -0.285 OA
ENDROOT
BRANCH   1   2
ATOM      2  P   UNK     1       4.742  -0.128   1.339  0.00  0.00    +0.475 P 
ATOM      3  O   UNK     1       4.673  -1.317   0.383  0.00  0.00    -0.227 OA
BRANCH   2   4
ATOM      4  O   UNK     1       3.012  -0.128   1.339  0.00  0.00    -0.302 OA
ATOM      5  H   UNK     1       2.798  -1.036   1.042  0.00  0.00    +0.222 HD
ENDBRANCH   2   4
BRANCH   2   6
ATOM      6  O   UNK     1       4.745  -0.664   2.896  0.00  0.00    -0.284 OA
BRANCH   6   8
ATOM      7  C   UNK     1       5.705  -2.910   2.805  0.00  0.00    +0.038 C 
ATOM      8  C   UNK     1       4.537  -2.031   3.234  0.00  0.00    +0.124 C 
ATOM      9  C   UNK     1       4.395  -2.087   4.755  0.00  0.00    +0.038 C 
ENDBRANCH   6   8
ENDBRANCH   2   6
ENDBRANCH   1   2
BRANCH   1  10
ATOM     10  C   UNK     1       7.057   1.174   1.411  0.00  0.00    +0.202 C 
BRANCH  10  11
ATOM     11  C   UNK     1       6.667   2.002   2.649  0.00  0.00    +0.187 C 
BRANCH  11  12
ATOM     12  N   UNK     1       5.197   2.217   2.770  0.00  0.00    -0.317 NA
ATOM     13  H   UNK     1       5.019   2.710   3.655  0.00  0.00    +0.119 HD
ATOM     14  H   UNK     1       4.901   2.892   2.058  0.00  0.00    +0.119 HD
ENDBRANCH  11  12
BRANCH  11  15
ATOM     15  C   UNK     1       7.241   1.366   3.915  0.00  0.00    +0.324 C 
ATOM     16  O   UNK     1       8.394   1.514   4.287  0.00  0.00    -0.249 OA
BRANCH  15  17
ATOM     17  O   UNK     1       6.337   0.639   4.614  0.00  0.00    -0.479 OA
ATOM     18  H   UNK     1       5.513   0.513   4.081  0.00  0.00    +0.295 HD
ENDBRANCH  15  17
ENDBRANCH  11  15
ENDBRANCH  10  11
ENDBRANCH   1  10
TORSDOF 9
