REMARK  Name = 
REMARK  5 active torsions:
REMARK  status: ('A' for Active; 'I' for Inactive)
REMARK    1  A    between atoms: N_1  and  CA_2
REMARK    2  A    between atoms: CA_2  and  C_4
REMARK    3  A    between atoms: CA_2  and  C_19
REMARK    4  A    between atoms: C_4  and  C_5
REMARK    5  A    between atoms: C_19  and  O_20
REMARK                            x       y       z     vdW  Elec       q    Type
REMARK                         _______ _______ _______ _____ _____    ______ ____
ROOT
ATOM      1  C   UNL     1       2.522  -1.077  -2.394  0.00  0.00    +0.044 A 
ATOM      2  N   UNL     1       2.909  -2.323  -2.023  0.00  0.00    -0.249 NA
ATOM      3  C   UNL     1       2.588  -3.400  -2.790  0.00  0.00    +0.097 A 
ATOM      4  C   UNL     1       1.848  -3.214  -3.981  0.00  0.00    +0.003 A 
ATOM      5  C   UNL     1       1.516  -4.300  -4.797  0.00  0.00    +0.011 A 
ATOM      6  C   UNL     1       1.917  -5.581  -4.446  0.00  0.00    +0.011 A 
ATOM      7  C   UNL     1       2.642  -5.786  -3.270  0.00  0.00    +0.003 A 
ATOM      8  C   UNL     1       3.046  -7.080  -2.915  0.00  0.00    +0.011 A 
ATOM      9  C   UNL     1       3.760  -7.288  -1.744  0.00  0.00    +0.020 A 
ATOM     10  C   UNL     1       4.045  -6.188  -0.964  0.00  0.00    +0.111 A 
ATOM     11  N   UNL     1       3.676  -4.927  -1.278  0.00  0.00    -0.253 NA
ATOM     12  C   UNL     1       1.446  -1.922  -4.338  0.00  0.00    +0.012 A 
ATOM     13  C   UNL     1       2.981  -4.701  -2.423  0.00  0.00    +0.097 A 
ATOM     14  C   UNL     1       1.786  -0.839  -3.539  0.00  0.00    +0.024 A 
ENDROOT
BRANCH   1  15
ATOM     15  C   UNL     1       2.937   0.054  -1.483  0.00  0.00    +0.085 C 
BRANCH  15  16
ATOM     16  CA  UNL     1       2.352  -0.062  -0.069  0.00  0.00    +0.166 C 
BRANCH  16  17
ATOM     17  N   UNL     1       2.788  -1.289   0.675  0.00  0.00    -0.318 NA
ATOM     18  H1  UNL     1       2.864  -2.049  -0.033  0.00  0.00    +0.119 HD
ATOM     19  H2  UNL     1       3.771  -1.159   0.933  0.00  0.00    +0.119 HD
ENDBRANCH  16  17
BRANCH  16  20
ATOM     20  C   UNL     1       0.818  -0.032  -0.129  0.00  0.00    +0.322 C 
ATOM     21  OXT UNL     1       0.156   0.806  -0.721  0.00  0.00    -0.249 OA
BRANCH  20  22
ATOM     22  O   UNL     1       0.273  -1.055   0.581  0.00  0.00    -0.480 OA
ATOM     23  H   UNL     1       1.049  -1.558   0.947  0.00  0.00    +0.295 HD
ENDBRANCH  20  22
ENDBRANCH  16  20
ENDBRANCH  15  16
ENDBRANCH   1  15
TORSDOF 5
