REMARK  Name = 
REMARK  3 active torsions:
REMARK  status: ('A' for Active; 'I' for Inactive)
REMARK    1  A    between atoms: C_2  and  C_3
REMARK    2  A    between atoms: C_7  and  C_9
REMARK    3  A    between atoms: C_12  and  C_14
REMARK                            x       y       z     vdW  Elec       q    Type
REMARK                         _______ _______ _______ _____ _____    ______ ____
ROOT
ATOM      1  C   UNL     1       6.503  -2.553  -0.338  0.00  0.00    +0.182 A 
ATOM      2  N   UNL     1       5.876  -3.763  -0.152  0.00  0.00    -0.207 NA
ATOM      3  C   UNL     1       6.796  -4.664  -0.445  0.00  0.00    +0.157 A 
ATOM      4  N   UNL     1       7.938  -3.993  -0.789  0.00  0.00    -0.258 N 
ATOM      5  H   UNL     1       8.835  -4.368  -1.070  0.00  0.00    +0.191 HD
ATOM      6  N   UNL     1       7.780  -2.663  -0.730  0.00  0.00    -0.152 NA
ENDROOT
BRANCH   1   9
ATOM      7  C   UNL     1       5.820   1.110  -0.069  0.00  0.00    +0.141 A 
ATOM      8  C   UNL     1       6.507  -0.073  -0.296  0.00  0.00    +0.050 A 
ATOM      9  C   UNL     1       5.827  -1.281  -0.122  0.00  0.00    +0.025 A 
ATOM     10  C   UNL     1       4.485  -1.250   0.266  0.00  0.00    +0.031 A 
ATOM     11  C   UNL     1       3.882  -0.021   0.464  0.00  0.00    +0.113 A 
ATOM     12  N   UNL     1       4.518   1.159   0.307  0.00  0.00    -0.245 NA
BRANCH   7  14
ATOM     13  N   UNL     1       7.054   3.380  -0.343  0.00  0.00    -0.189 NA
ATOM     14  C   UNL     1       6.481   2.377  -0.217  0.00  0.00    +0.119 C 
ENDBRANCH   7  14
ENDBRANCH   1   9
BRANCH   3  15
ATOM     15  C   UNL     1       6.637  -6.118  -0.421  0.00  0.00    +0.022 A 
ATOM     16  C   UNL     1       5.411  -6.661  -0.023  0.00  0.00    +0.031 A 
ATOM     17  C   UNL     1       5.257  -8.037  -0.014  0.00  0.00    +0.111 A 
ATOM     18  N   UNL     1       6.231  -8.899  -0.370  0.00  0.00    -0.263 NA
ATOM     19  C   UNL     1       7.408  -8.362  -0.748  0.00  0.00    +0.111 A 
ATOM     20  C   UNL     1       7.659  -6.998  -0.789  0.00  0.00    +0.031 A 
ENDBRANCH   3  15
TORSDOF 3
