REMARK  Name = 
REMARK  12 active torsions:
REMARK  status: ('A' for Active; 'I' for Inactive)
REMARK    1  A    between atoms: O_1  and  C_2
REMARK    2  A    between atoms: C_2  and  C_4
REMARK    3  A    between atoms: C_2  and  C_17
REMARK    4  A    between atoms: C_4  and  N_5
REMARK    5  A    between atoms: N_5  and  C_6
REMARK    6  A    between atoms: C_6  and  C_7
REMARK    7  A    between atoms: C_7  and  C_8
REMARK    8  A    between atoms: C_8  and  C_9
REMARK    9  A    between atoms: C_9  and  C_10
REMARK   10  A    between atoms: C_13  and  O_14
REMARK   11  A    between atoms: C_19  and  O_20
REMARK   12  A    between atoms: C_21  and  O_22
REMARK                            x       y       z     vdW  Elec       q    Type
REMARK                         _______ _______ _______ _____ _____    ______ ____
ROOT
ATOM      1  C   UNL     1       2.920  -0.879  -1.006  0.00  0.00    +0.117 C 
ENDROOT
BRANCH   1   2
ATOM      2  N   UNL     1       2.412  -2.236  -0.704  0.00  0.00    -0.313 NA
ATOM      3  H   UNL     1       1.400  -2.235  -0.836  0.00  0.00    +0.122 HD
BRANCH   2   4
ATOM      4  C   UNL     1       2.988  -3.199  -1.651  0.00  0.00    +0.081 C 
BRANCH   4   5
ATOM      5  C   UNL     1       2.497  -4.616  -1.346  0.00  0.00    +0.015 C 
BRANCH   5   6
ATOM      6  C   UNL     1       3.064  -5.608  -2.365  0.00  0.00    +0.006 C 
BRANCH   6   7
ATOM      7  C   UNL     1       2.607  -7.042  -2.092  0.00  0.00    +0.035 C 
BRANCH   7   8
ATOM      8  C   UNL     1       3.156  -7.986  -3.136  0.00  0.00    -0.047 A 
ATOM      9  C   UNL     1       2.472  -8.179  -4.344  0.00  0.00    +0.007 A 
ATOM     10  C   UNL     1       3.011  -8.996  -5.339  0.00  0.00    +0.045 A 
ATOM     11  C   UNL     1       4.235  -9.618  -5.131  0.00  0.00    +0.117 A 
ATOM     12  C   UNL     1       4.923  -9.453  -3.933  0.00  0.00    +0.045 A 
ATOM     13  C   UNL     1       4.383  -8.636  -2.937  0.00  0.00    +0.007 A 
BRANCH  11  14
ATOM     14  O   UNL     1       4.742 -10.379  -6.142  0.00  0.00    -0.507 OA
ATOM     15  H   UNL     1       5.644 -10.646  -5.904  0.00  0.00    +0.292 HD
ENDBRANCH  11  14
ENDBRANCH   7   8
ENDBRANCH   6   7
ENDBRANCH   5   6
ENDBRANCH   4   5
ENDBRANCH   2   4
ENDBRANCH   1   2
BRANCH   1  16
ATOM     16  C   UNL     1       2.392   0.181  -0.010  0.00  0.00    +0.158 C 
BRANCH  16  17
ATOM     17  C   UNL     1       2.875   1.569  -0.387  0.00  0.00    -0.014 A 
ATOM     18  C   UNL     1       4.098   2.047   0.121  0.00  0.00    +0.010 A 
ATOM     19  C   UNL     1       4.586   3.303  -0.252  0.00  0.00    +0.049 A 
ATOM     20  C   UNL     1       3.853   4.078  -1.137  0.00  0.00    +0.158 A 
ATOM     21  C   UNL     1       2.641   3.624  -1.645  0.00  0.00    +0.159 A 
ATOM     22  C   UNL     1       2.147   2.376  -1.280  0.00  0.00    +0.055 A 
BRANCH  20  23
ATOM     23  O   UNL     1       4.333   5.301  -1.510  0.00  0.00    -0.503 OA
ATOM     24  H   UNL     1       3.659   5.647  -2.129  0.00  0.00    +0.292 HD
ENDBRANCH  20  23
BRANCH  21  25
ATOM     25  O   UNL     1       1.965   4.440  -2.510  0.00  0.00    -0.503 OA
ATOM     26  H   UNL     1       1.124   4.005  -2.730  0.00  0.00    +0.292 HD
ENDBRANCH  21  25
ENDBRANCH  16  17
BRANCH  16  27
ATOM     27  O   UNL     1       0.960   0.153   0.005  0.00  0.00    -0.386 OA
ATOM     28  H   UNL     1       0.730  -0.689   0.437  0.00  0.00    +0.210 HD
ENDBRANCH  16  27
ENDBRANCH   1  16
TORSDOF 12
