REMARK  Name = 
REMARK  7 active torsions:
REMARK  status: ('A' for Active; 'I' for Inactive)
REMARK    1  A    between atoms: C_5  and  C_8
REMARK    2  A    between atoms: C_8  and  C_9
REMARK    3  A    between atoms: C_8  and  C_28
REMARK    4  A    between atoms: C_9  and  C_10
REMARK    5  A    between atoms: C_10  and  C_11
REMARK    6  A    between atoms: C_11  and  N_12
REMARK    7  A    between atoms: C_15  and  N_18
REMARK                            x       y       z     vdW  Elec       q    Type
REMARK                         _______ _______ _______ _____ _____    ______ ____
ROOT
ATOM      1  C   UNL     1       7.594   3.143   1.559  0.00  0.00    +0.084 C 
ENDROOT
BRANCH   1   2
ATOM      2  N   UNL     1       6.815   4.304   1.129  0.00  0.00    -0.302 NA
ATOM      3  C   UNL     1       7.553   5.546   1.376  0.00  0.00    +0.086 C 
ATOM      4  C   UNL     1       7.417   6.015   2.819  0.00  0.00    +0.040 C 
ATOM      5  C   UNL     1       5.981   6.478   3.059  0.00  0.00    +0.095 C 
ATOM      6  C   UNL     1       5.076   5.250   2.819  0.00  0.00    +0.040 C 
ATOM      7  C   UNL     1       5.416   4.389   1.575  0.00  0.00    +0.086 C 
BRANCH   5   8
ATOM      8  N   UNL     1       5.658   7.707   2.320  0.00  0.00    -0.289 N 
ATOM      9  C   UNL     1       6.335   8.943   2.480  0.00  0.00    +0.070 A 
ATOM     10  C   UNL     1       5.807   9.848   1.562  0.00  0.00    +0.067 A 
ATOM     11  C   UNL     1       6.257  11.144   1.426  0.00  0.00    +0.028 A 
ATOM     12  C   UNL     1       7.320  11.531   2.241  0.00  0.00    +0.002 A 
ATOM     13  C   UNL     1       7.881  10.629   3.168  0.00  0.00    +0.002 A 
ATOM     14  N   UNL     1       4.822   9.200   0.841  0.00  0.00    -0.306 N 
ATOM     15  H   UNL     1       4.280   9.573   0.077  0.00  0.00    +0.170 HD
ATOM     16  C   UNL     1       7.375   9.328   3.311  0.00  0.00    +0.028 A 
ATOM     17  C   UNL     1       4.721   7.872   1.277  0.00  0.00    +0.328 A 
ATOM     18  O   UNL     1       3.946   7.059   0.797  0.00  0.00    -0.247 OA
ENDBRANCH   5   8
ENDBRANCH   1   2
BRANCH   1  19
ATOM     19  C   UNL     1       7.129   1.754   1.104  0.00  0.00    +0.016 C 
BRANCH  19  20
ATOM     20  C   UNL     1       7.018   1.466  -0.399  0.00  0.00    +0.014 C 
BRANCH  20  21
ATOM     21  C   UNL     1       8.256   1.589  -1.343  0.00  0.00    +0.049 C 
BRANCH  21  26
ATOM     22  F   UNL     1      12.817  -1.593  -0.137  0.00  0.00    -0.205 F 
ATOM     23  C   UNL     1      11.722  -0.868  -0.398  0.00  0.00    +0.123 A 
ATOM     24  C   UNL     1      11.329   0.122   0.489  0.00  0.00    +0.038 A 
ATOM     25  C   UNL     1      10.200   0.896   0.206  0.00  0.00    +0.007 A 
ATOM     26  C   UNL     1       9.448   0.694  -0.964  0.00  0.00    -0.040 A 
ATOM     27  C   UNL     1       9.871  -0.324  -1.843  0.00  0.00    +0.007 A 
ATOM     28  C   UNL     1      11.002  -1.101  -1.561  0.00  0.00    +0.038 A 
ENDBRANCH  21  26
BRANCH  21  29
ATOM     29  C   UNL     1       8.597   3.014  -1.801  0.00  0.00    -0.040 A 
ATOM     30  C   UNL     1       7.579   3.830  -2.341  0.00  0.00    +0.007 A 
ATOM     31  C   UNL     1       7.855   5.102  -2.846  0.00  0.00    +0.038 A 
ATOM     32  C   UNL     1       9.158   5.573  -2.831  0.00  0.00    +0.123 A 
ATOM     33  F   UNL     1       9.433   6.783  -3.336  0.00  0.00    -0.205 F 
ATOM     34  C   UNL     1      10.185   4.796  -2.318  0.00  0.00    +0.038 A 
ATOM     35  C   UNL     1       9.908   3.523  -1.812  0.00  0.00    +0.007 A 
ENDBRANCH  21  29
ENDBRANCH  20  21
ENDBRANCH  19  20
ENDBRANCH   1  19
TORSDOF 7
