REMARK  Name = 
REMARK  8 active torsions:
REMARK  status: ('A' for Active; 'I' for Inactive)
REMARK    1  A    between atoms: C_2  and  C_3
REMARK    2  A    between atoms: C_2  and  C_5
REMARK    3  A    between atoms: C_2  and  N_12
REMARK    4  A    between atoms: C_3  and  S_4
REMARK    5  A    between atoms: C_5  and  C_6
REMARK    6  A    between atoms: C_13  and  C_15
REMARK    7  A    between atoms: C_15  and  C_16
REMARK    8  A    between atoms: C_16  and  O_17
REMARK                            x       y       z     vdW  Elec       q    Type
REMARK                         _______ _______ _______ _____ _____    ______ ____
ROOT
ATOM      1  C   UNL     1       2.041   0.010   0.103  0.00  0.00    +0.087 C 
ENDROOT
BRANCH   1   2
ATOM      2  N   UNL     1       2.659   0.808   1.168  0.00  0.00    -0.311 N 
ATOM      3  H   UNL     1       2.767   1.805   1.014  0.00  0.00    +0.149 HD
ATOM      4  C   UNL     1       2.885   0.289   2.422  0.00  0.00    +0.224 C 
ATOM      5  O   UNL     1       2.596  -0.865   2.734  0.00  0.00    -0.275 OA
BRANCH   4   6
ATOM      6  C   UNL     1       3.531   1.246   3.384  0.00  0.00    +0.216 C 
BRANCH   6   7
ATOM      7  C   UNL     1       3.858   0.725   4.757  0.00  0.00    +0.314 C 
ATOM      8  O   UNL     1       4.398   1.438   5.597  0.00  0.00    -0.250 OA
BRANCH   7   9
ATOM      9  O   UNL     1       3.537  -0.551   5.036  0.00  0.00    -0.480 OA
ATOM     10  H   UNL     1       3.108  -1.035   4.288  0.00  0.00    +0.295 HD
ENDBRANCH   7   9
ENDBRANCH   6   7
ENDBRANCH   4   6
ENDBRANCH   1   2
BRANCH   1  11
ATOM     11  C   UNL     1       0.502  -0.005   0.229  0.00  0.00    +0.088 C 
BRANCH  11  12
ATOM     12  S   UNL     1      -0.288   1.630   0.022  0.00  0.00    -0.176 S 
ATOM     13  H   UNL     1      -0.032   1.771  -1.288  0.00  0.00    +0.102 HD
ENDBRANCH  11  12
ENDBRANCH   1  11
BRANCH   1  14
ATOM     14  C   UNL     1       2.511   0.460  -1.298  0.00  0.00    +0.058 C 
BRANCH  14  15
ATOM     15  C   UNL     1       4.011   0.429  -1.485  0.00  0.00    -0.046 A 
ATOM     16  C   UNL     1       4.711   1.620  -1.727  0.00  0.00    +0.004 A 
ATOM     17  C   UNL     1       6.095   1.607  -1.896  0.00  0.00    +0.000 A 
ATOM     18  C   UNL     1       6.793   0.403  -1.829  0.00  0.00    +0.000 A 
ATOM     19  C   UNL     1       6.107  -0.788  -1.598  0.00  0.00    +0.000 A 
ATOM     20  C   UNL     1       4.722  -0.777  -1.430  0.00  0.00    +0.004 A 
ENDBRANCH  14  15
ENDBRANCH   1  14
TORSDOF 8
