REMARK  Name = 
REMARK  5 active torsions:
REMARK  status: ('A' for Active; 'I' for Inactive)
REMARK    1  A    between atoms: N_1  and  C_2
REMARK    2  A    between atoms: C_2  and  C_4
REMARK    3  A    between atoms: C_2  and  C_8
REMARK    4  A    between atoms: C_4  and  S_5
REMARK    5  A    between atoms: C_8  and  O_9
REMARK                            x       y       z     vdW  Elec       q    Type
REMARK                         _______ _______ _______ _____ _____    ______ ____
ROOT
ATOM      1  C   UNK     1       2.352  -0.159   0.095  0.00  0.00    +0.184 C 
ENDROOT
BRANCH   1   2
ATOM      2  N   UNK     1       0.852  -0.367   0.037  0.00  0.00    -0.317 NA
ATOM      3  H   UNK     1       0.583  -0.623   1.003  0.00  0.00    +0.119 HD
ATOM      4  H   UNK     1       0.494   0.608   0.088  0.00  0.00    +0.119 HD
ENDBRANCH   1   2
BRANCH   1   5
ATOM      5  C   UNK     1       2.997  -1.432  -0.482  0.00  0.00    +0.323 C 
ATOM      6  O   UNK     1       4.188  -1.702  -0.511  0.00  0.00    -0.249 OA
BRANCH   5   7
ATOM      7  O   UNK     1       2.040  -2.259  -0.998  0.00  0.00    -0.479 OA
ATOM      8  H   UNK     1       1.196  -1.757  -0.819  0.00  0.00    +0.295 HD
ENDBRANCH   5   7
ENDBRANCH   1   5
BRANCH   1   9
ATOM      9  C   UNK     1       2.888   0.076   1.506  0.00  0.00    +0.222 C 
BRANCH   9  10
ATOM     10  S   UNK     1       2.174   1.613   2.234  0.00  0.00    +0.089 S 
ATOM     11  O   UNK     1       0.710   1.244   2.310  0.00  0.00    -0.152 OA
ATOM     12  O   UNK     1       2.519   2.625   1.169  0.00  0.00    -0.152 OA
ENDBRANCH   9  10
ENDBRANCH   1   9
TORSDOF 5
