REMARK  Name = 
REMARK  2 active torsions:
REMARK  status: ('A' for Active; 'I' for Inactive)
REMARK    1  A    between atoms: C_5  and  C_7
REMARK    2  A    between atoms: C_7  and  C_8
REMARK                            x       y       z     vdW  Elec       q    Type
REMARK                         _______ _______ _______ _____ _____    ______ ____
ROOT
ATOM      1  N   UNL     1       3.178  -0.759  -1.038  0.00  0.00    -0.313 N 
ATOM      2  H   UNL     1       3.491   0.185  -1.249  0.00  0.00    +0.146 HD
ATOM      3  H   UNL     1       2.823  -1.330  -1.791  0.00  0.00    +0.146 HD
ATOM      4  C   UNL     1       3.641  -1.370   0.073  0.00  0.00    +0.303 C 
ATOM      5  N   UNL     1       4.254  -0.581   1.003  0.00  0.00    -0.240 N 
ATOM      6  H   UNL     1       4.599  -1.107   1.792  0.00  0.00    +0.159 HD
ATOM      7  C   UNL     1       4.558   0.767   0.909  0.00  0.00    +0.225 C 
ATOM      8  O   UNL     1       4.281   1.474  -0.060  0.00  0.00    -0.275 OA
ATOM      9  O   UNL     1       3.514  -2.578   0.245  0.00  0.00    -0.253 OA
ENDROOT
BRANCH   7  10
ATOM     10  C   UNL     1       5.310   1.312   2.111  0.00  0.00    +0.131 C 
BRANCH  10  11
ATOM     11  C   UNL     1       6.801   1.142   1.965  0.00  0.00    -0.039 A 
ATOM     12  C   UNL     1       7.526   0.361   2.875  0.00  0.00    +0.004 A 
ATOM     13  C   UNL     1       8.897   0.164   2.699  0.00  0.00    +0.000 A 
ATOM     14  C   UNL     1       9.555   0.749   1.618  0.00  0.00    +0.000 A 
ATOM     15  C   UNL     1       8.848   1.550   0.723  0.00  0.00    +0.000 A 
ATOM     16  C   UNL     1       7.480   1.752   0.899  0.00  0.00    +0.004 A 
ENDBRANCH  10  11
ENDBRANCH   7  10
TORSDOF 2
