REMARK  Name = 
REMARK  10 active torsions:
REMARK  status: ('A' for Active; 'I' for Inactive)
REMARK    1  A    between atoms: C_5  and  C_6
REMARK    2  A    between atoms: C_6  and  O_7
REMARK    3  A    between atoms: O_7  and  C_8
REMARK    4  A    between atoms: C_11  and  C_27
REMARK    5  A    between atoms: C_15  and  N_16
REMARK    6  A    between atoms: C_15  and  O_25
REMARK    7  A    between atoms: C_17  and  C_19
REMARK    8  A    between atoms: C_19  and  C_20
REMARK    9  A    between atoms: O_25  and  C_26
REMARK   10  A    between atoms: C_27  and  O_28
REMARK                            x       y       z     vdW  Elec       q    Type
REMARK                         _______ _______ _______ _____ _____    ______ ____
ROOT
ATOM      1  C   UNL     1       2.257   0.262   0.371  0.00  0.00    +0.199 C 
ATOM      2  C   UNL     1       2.976  -1.153   0.191  0.00  0.00    +0.242 C 
ATOM      3  C   UNL     1       3.760  -0.373  -0.951  0.00  0.00    +0.275 C 
ATOM      4  O   UNL     1       4.682  -0.575  -1.712  0.00  0.00    -0.270 OA
ATOM      5  N   UNL     1       2.986   0.728  -0.807  0.00  0.00    -0.244 N 
ATOM      6  C   UNL     1       3.175   2.046  -1.167  0.00  0.00    +0.125 C 
ATOM      7  C   UNL     1       2.772   3.051  -0.336  0.00  0.00    +0.006 C 
ATOM      8  C   UNL     1       2.192   2.806   1.041  0.00  0.00    +0.107 C 
ATOM      9  S   UNL     1       2.789   1.283   1.787  0.00  0.00    -0.128 S 
ENDROOT
BRANCH   2  10
ATOM     10  N   UNL     1       3.813  -1.594   1.341  0.00  0.00    -0.278 N 
ATOM     11  H   UNL     1       4.809  -1.743   1.222  0.00  0.00    +0.152 HD
ATOM     12  C   UNL     1       3.241  -1.844   2.572  0.00  0.00    +0.220 C 
ATOM     13  O   UNL     1       2.028  -1.796   2.763  0.00  0.00    -0.275 OA
BRANCH  12  14
ATOM     14  C   UNL     1       4.228  -2.142   3.682  0.00  0.00    +0.138 C 
BRANCH  14  15
ATOM     15  C   UNL     1       4.302  -3.616   3.900  0.00  0.00    -0.001 A 
ATOM     16  S   UNL     1       5.524  -4.544   3.139  0.00  0.00    -0.101 S 
ATOM     17  C   UNL     1       4.987  -5.980   3.893  0.00  0.00    +0.045 A 
ATOM     18  C   UNL     1       3.883  -5.767   4.688  0.00  0.00    +0.008 A 
ATOM     19  C   UNL     1       3.480  -4.402   4.683  0.00  0.00    +0.011 A 
ENDBRANCH  14  15
ENDBRANCH  12  14
ENDBRANCH   2  10
BRANCH   2  20
ATOM     20  O   UNL     1       2.154  -2.225  -0.356  0.00  0.00    -0.349 OA
ATOM     21  C   UNL     1       2.847  -3.270  -1.033  0.00  0.00    +0.197 C 
ENDBRANCH   2  20
BRANCH   6  22
ATOM     22  C   UNL     1       3.857   2.379  -2.488  0.00  0.00    +0.351 C 
ATOM     23  O   UNL     1       4.147   3.509  -2.842  0.00  0.00    -0.244 OA
BRANCH  22  24
ATOM     24  O   UNL     1       4.037   1.344  -3.333  0.00  0.00    -0.476 OA
ATOM     25  H   UNL     1       4.262   0.495  -2.897  0.00  0.00    +0.295 HD
ENDBRANCH  22  24
ENDBRANCH   6  22
BRANCH   7  26
ATOM     26  C   UNL     1       2.958   4.540  -0.627  0.00  0.00    +0.268 C 
BRANCH  26  27
ATOM     27  O   UNL     1       1.987   5.324   0.096  0.00  0.00    -0.446 OA
BRANCH  27  28
ATOM     28  C   UNL     1       2.485   6.262   0.934  0.00  0.00    +0.398 C 
ATOM     29  O   UNL     1       3.661   6.489   1.164  0.00  0.00    -0.227 OA
ATOM     30  N   UNL     1       1.474   6.920   1.539  0.00  0.00    -0.295 N 
ATOM     31  H   UNL     1       1.695   7.659   2.190  0.00  0.00    +0.148 HD
ATOM     32  H   UNL     1       0.517   6.722   1.294  0.00  0.00    +0.148 HD
ENDBRANCH  27  28
ENDBRANCH  26  27
ENDBRANCH   7  26
TORSDOF 9
