REMARK  Name = 
REMARK  1 active torsions:
REMARK  status: ('A' for Active; 'I' for Inactive)
REMARK    1  A    between atoms: C_1  and  N_2
REMARK                            x       y       z     vdW  Elec       q    Type
REMARK                         _______ _______ _______ _____ _____    ______ ____
ROOT
ATOM      1  C   UNL     1       1.034  -0.087   0.136  0.00  0.00    +0.105 C 
ATOM      2  N   UNL     1       2.455  -0.081  -0.165  0.00  0.00    -0.299 NA
ATOM      3  C   UNL     1       2.949  -1.220  -0.941  0.00  0.00    +0.064 C 
ATOM      4  C   UNL     1       2.262  -1.362  -2.301  0.00  0.00    +0.093 C 
ATOM      5  C   UNL     1       2.168  -0.046  -3.046  0.00  0.00    +0.136 C 
ATOM      6  C   UNL     1       2.258   1.253  -2.270  0.00  0.00    +0.093 C 
ATOM      7  O   UNL     1       1.907  -0.032  -4.252  0.00  0.00    -0.297 OA
ATOM      8  C   UNL     1       4.424  -0.827  -1.104  0.00  0.00    +0.021 C 
ATOM      9  C   UNL     1       4.419   0.703  -1.081  0.00  0.00    +0.021 C 
ATOM     10  C   UNL     1       2.942   1.084  -0.913  0.00  0.00    +0.064 C 
ENDROOT
TORSDOF 0
