REMARK  Name = 
REMARK  17 active torsions:
REMARK  status: ('A' for Active; 'I' for Inactive)
REMARK    1  A    between atoms: C_1  and  C_2
REMARK    2  A    between atoms: C_2  and  C_3
REMARK    3  A    between atoms: C_4  and  C_5
REMARK    4  A    between atoms: C_9  and  C_10
REMARK    5  A    between atoms: C_10  and  C_11
REMARK    6  A    between atoms: C_12  and  C_13
REMARK    7  A    between atoms: C_26  and  C_27
REMARK    8  A    between atoms: C_28  and  C_29
REMARK    9  A    between atoms: C_29  and  C_30
REMARK   10  A    between atoms: C_30  and  C_31
REMARK   11  A    between atoms: C_31  and  O_32
REMARK   12  A    between atoms: C_34  and  C_35
REMARK   13  A    between atoms: C_35  and  C_36
REMARK   14  A    between atoms: C_36  and  C_37
REMARK   15  A    between atoms: C_37  and  O_38
REMARK   16  A    between atoms: C_40  and  C_41
REMARK   17  A    between atoms: N_42  and  C_43
REMARK                            x       y       z     vdW  Elec       q    Type
REMARK                         _______ _______ _______ _____ _____    ______ ____
ROOT
ATOM      1  C   UNL     1       0.475   0.038  -0.859  0.00  0.00    -0.017 C 
ATOM      2  C   UNL     1       0.039   0.219   0.614  0.00  0.00    +0.070 C 
ATOM      3  N   UNL     1       0.773   1.150   1.148  0.00  0.00    -0.247 NA
ATOM      4  C   UNL     1       1.354   1.910   0.115  0.00  0.00    +0.070 C 
ATOM      5  C   UNL     1       1.835   3.193   0.167  0.00  0.00    +0.054 C 
ATOM      6  C   UNL     1       1.486   4.055   1.257  0.00  0.00    +0.048 A 
ATOM      7  N   UNL     1       0.635   3.502   2.209  0.00  0.00    -0.343 N 
ATOM      8  C   UNL     1      -0.761   3.242   1.832  0.00  0.00    +0.149 C 
ATOM      9  C   UNL     1       0.951   4.136   3.403  0.00  0.00    +0.047 A 
ATOM     10  C   UNL     1       0.767   3.416   4.618  0.00  0.00    +0.054 C 
ATOM     11  C   UNL     1       1.149   2.147   4.911  0.00  0.00    +0.070 C 
ATOM     12  C   UNL     1       1.968   1.191   4.194  0.00  0.00    -0.020 C 
ATOM     13  C   UNL     1       3.039   1.543   3.246  0.00  0.00    +0.046 C 
ATOM     14  C   UNL     1       1.582  -0.098   4.430  0.00  0.00    -0.017 C 
ATOM     15  C   UNL     1       0.531   0.186   5.446  0.00  0.00    +0.070 C 
ATOM     16  C   UNL     1      -0.400  -0.942   5.737  0.00  0.00    +0.054 C 
ATOM     17  C   UNL     1      -1.292  -0.888   4.725  0.00  0.00    +0.045 A 
ATOM     18  C   UNL     1      -2.174   0.241   4.428  0.00  0.00    -0.019 A 
ATOM     19  C   UNL     1      -2.761  -0.075   3.245  0.00  0.00    -0.022 A 
ATOM     20  C   UNL     1      -4.160  -0.705   3.620  0.00  0.00    +0.046 C 
ATOM     21  C   UNL     1      -1.788  -0.924   2.467  0.00  0.00    +0.045 A 
ATOM     22  N   UNL     1      -1.239  -1.695   3.547  0.00  0.00    -0.355 N 
ATOM     23  H   UNL     1      -1.832  -2.512   3.691  0.00  0.00    +0.166 HD
ATOM     24  N   UNL     1       0.377   1.421   5.815  0.00  0.00    -0.247 NA
ATOM     25  C   UNL     1       0.718   5.420   2.892  0.00  0.00    -0.022 A 
ATOM     26  C   UNL     1      -0.325   6.384   3.354  0.00  0.00    +0.046 C 
ATOM     27  C   UNL     1       1.350   5.426   1.567  0.00  0.00    -0.019 A 
ATOM     28  C   UNL     1      -0.982  -0.785   1.341  0.00  0.00    +0.054 C 
ATOM     29  C   UNL     1       0.818   1.338  -1.126  0.00  0.00    -0.020 C 
ATOM     30  C   UNL     1      -0.182   2.329  -1.720  0.00  0.00    +0.046 C 
ENDROOT
BRANCH   1  32
ATOM     31  C   UNL     1       1.505  -2.057  -2.025  0.00  0.00    +0.009 C 
ATOM     32  C   UNL     1       1.662  -0.952  -0.990  0.00  0.00    +0.034 C 
ENDBRANCH   1  32
BRANCH  27  33
ATOM     33  C   UNL     1       1.557   6.662   0.728  0.00  0.00    +0.034 C 
ATOM     34  C   UNL     1       0.370   7.060  -0.148  0.00  0.00    +0.009 C 
ENDBRANCH  27  33
BRANCH  14  35
ATOM     35  C   UNL     1       1.747  -1.386   3.661  0.00  0.00    +0.049 C 
BRANCH  35  36
ATOM     36  C   UNL     1       3.068  -2.029   3.252  0.00  0.00    +0.125 C 
BRANCH  36  37
ATOM     37  C   UNL     1       2.779  -3.180   2.285  0.00  0.00    +0.305 C 
ATOM     38  O   UNL     1       1.686  -3.494   1.850  0.00  0.00    -0.251 OA
BRANCH  37  39
ATOM     39  O   UNL     1       3.912  -3.835   1.929  0.00  0.00    -0.481 OA
ATOM     40  H   UNL     1       4.724  -3.472   2.340  0.00  0.00    +0.295 HD
ENDBRANCH  37  39
ENDBRANCH  36  37
ENDBRANCH  35  36
ENDBRANCH  14  35
BRANCH  18  41
ATOM     41  C   UNL     1      -2.739   1.230   5.440  0.00  0.00    +0.048 C 
BRANCH  41  42
ATOM     42  C   UNL     1      -2.734   2.563   4.712  0.00  0.00    +0.125 C 
BRANCH  42  43
ATOM     43  C   UNL     1      -3.144   3.839   5.371  0.00  0.00    +0.305 C 
ATOM     44  O   UNL     1      -3.754   4.717   4.773  0.00  0.00    -0.251 OA
BRANCH  43  45
ATOM     45  O   UNL     1      -2.652   4.024   6.609  0.00  0.00    -0.481 OA
ATOM     46  H   UNL     1      -2.031   3.325   6.894  0.00  0.00    +0.295 HD
ENDBRANCH  43  45
ENDBRANCH  42  43
ENDBRANCH  41  42
ENDBRANCH  18  41
TORSDOF 10
