REMARK  Name = 
REMARK  20 active torsions:
REMARK  status: ('A' for Active; 'I' for Inactive)
REMARK    1  A    between atoms: N_1  and  C_2
REMARK    2  A    between atoms: C_2  and  C_4
REMARK    3  A    between atoms: N_8  and  C_10
REMARK    4  A    between atoms: C_13  and  C_15
REMARK    5  A    between atoms: C_15  and  O_16
REMARK    6  A    between atoms: O_16  and  P_17
REMARK    7  A    between atoms: P_17  and  O_20
REMARK    8  A    between atoms: O_20  and  P_21
REMARK    9  A    between atoms: P_21  and  O_22
REMARK   10  A    between atoms: P_21  and  O_24
REMARK   11  A    between atoms: O_24  and  C_25
REMARK   12  A    between atoms: C_25  and  C_26
REMARK   13  A    between atoms: C_29  and  N_41
REMARK   14  A    between atoms: C_31  and  O_33
REMARK   15  A    between atoms: O_33  and  P_34
REMARK   16  A    between atoms: P_34  and  O_35
REMARK   17  A    between atoms: P_34  and  O_36
REMARK   18  A    between atoms: C_38  and  O_40
REMARK   19  A    between atoms: C_51  and  O_53
REMARK   20  A    between atoms: C_54  and  O_56
REMARK                            x       y       z     vdW  Elec       q    Type
REMARK                         _______ _______ _______ _____ _____    ______ ____
ROOT
ATOM      1  P   UNL     1      18.479  -0.010 -10.385  0.00  0.00    +0.480 P 
ATOM      2  O   UNL     1      18.709   1.184  -9.504  0.00  0.00    -0.227 OA
ENDROOT
BRANCH   1   3
ATOM      3  O   UNL     1      18.800  -1.420  -9.686  0.00  0.00    -0.302 OA
ATOM      4  H   UNL     1      19.647  -1.817 -10.054  0.00  0.00    +0.222 HD
ENDBRANCH   1   3
BRANCH   1   5
ATOM      5  O   UNL     1      16.969  -0.193 -10.954  0.00  0.00    -0.284 OA
BRANCH   5   6
ATOM      6  C   UNL     1      16.198  -1.275 -10.439  0.00  0.00    +0.206 C 
BRANCH   6   7
ATOM      7  C   UNL     1      14.754  -1.312 -10.977  0.00  0.00    +0.178 C 
ATOM      8  C   UNL     1      14.032   0.022 -10.823  0.00  0.00    +0.179 C 
ATOM      9  C   UNL     1      14.090   0.673 -12.199  0.00  0.00    +0.211 C 
ATOM     10  C   UNL     1      14.762  -0.371 -13.089  0.00  0.00    +0.254 C 
ATOM     11  O   UNL     1      14.703  -1.626 -12.388  0.00  0.00    -0.346 OA
BRANCH  10  12
ATOM     12  N   UNL     1      14.176  -0.500 -14.414  0.00  0.00    -0.285 N 
ATOM     13  C   UNL     1      12.850  -0.514 -14.766  0.00  0.00    +0.167 A 
ATOM     14  N   UNL     1      11.772  -0.568 -13.962  0.00  0.00    -0.216 NA
ATOM     15  C   UNL     1      10.629  -0.456 -14.677  0.00  0.00    +0.225 A 
ATOM     16  N   UNL     1      10.480  -0.291 -16.010  0.00  0.00    -0.219 NA
ATOM     17  C   UNL     1      11.592  -0.259 -16.777  0.00  0.00    +0.147 A 
ATOM     18  N   UNL     1      11.440  -0.047 -18.145  0.00  0.00    -0.341 N 
ATOM     19  H   UNL     1      12.282   0.313 -18.580  0.00  0.00    +0.144 HD
ATOM     20  H   UNL     1      10.572   0.429 -18.355  0.00  0.00    +0.144 HD
ATOM     21  C   UNL     1      12.844  -0.377 -16.149  0.00  0.00    +0.147 A 
ATOM     22  N   UNL     1      14.128  -0.319 -16.641  0.00  0.00    -0.231 NA
ATOM     23  C   UNL     1      14.891  -0.397 -15.578  0.00  0.00    +0.203 A 
ENDBRANCH  10  12
BRANCH   8  24
ATOM     24  O   UNL     1      12.653  -0.201 -10.482  0.00  0.00    -0.386 OA
ATOM     25  H   UNL     1      12.285  -0.858 -11.104  0.00  0.00    +0.210 HD
ENDBRANCH   8  24
BRANCH   9  26
ATOM     26  O   UNL     1      14.851   1.868 -12.206  0.00  0.00    -0.276 OA
BRANCH  26  27
ATOM     27  P   UNL     1      14.192   3.175 -11.567  0.00  0.00    +0.473 P 
ATOM     28  O   UNL     1      13.915   3.135 -10.107  0.00  0.00    -0.228 OA
BRANCH  27  29
ATOM     29  O   UNL     1      15.212   4.319 -12.009  0.00  0.00    -0.303 OA
ATOM     30  H   UNL     1      16.045   4.249 -11.511  0.00  0.00    +0.222 HD
ENDBRANCH  27  29
BRANCH  27  31
ATOM     31  O   UNL     1      12.914   3.449 -12.479  0.00  0.00    -0.303 OA
ATOM     32  H   UNL     1      12.121   2.991 -12.145  0.00  0.00    +0.222 HD
ENDBRANCH  27  31
ENDBRANCH  26  27
ENDBRANCH   9  26
ENDBRANCH   6   7
ENDBRANCH   5   6
ENDBRANCH   1   5
BRANCH   1  33
ATOM     33  O   UNL     1      19.342  -0.020 -11.723  0.00  0.00    -0.229 OA
BRANCH  33  34
ATOM     34  P   UNL     1      20.864  -0.515 -11.702  0.00  0.00    +0.222 P 
ATOM     35  O   UNL     1      20.850  -1.849 -10.986  0.00  0.00    -0.437 OA
ATOM     36  O   UNL     1      21.528  -0.292 -13.025  0.00  0.00    -0.517 OA
BRANCH  34  37
ATOM     37  O   UNL     1      21.498   0.534 -10.645  0.00  0.00    -0.324 OA
BRANCH  37  38
ATOM     38  C   UNL     1      22.816   0.224 -10.235  0.00  0.00    +0.202 C 
BRANCH  38  42
ATOM     39  C   UNL     1      24.535   1.578  -7.336  0.00  0.00    +0.439 C 
ATOM     40  C   UNL     1      23.196   1.228  -6.700  0.00  0.00    +0.244 C 
ATOM     41  C   UNL     1      22.252   1.075  -7.896  0.00  0.00    +0.183 C 
ATOM     42  C   UNL     1      23.180   1.176  -9.116  0.00  0.00    +0.182 C 
ATOM     43  O   UNL     1      24.515   0.963  -8.632  0.00  0.00    -0.309 OA
BRANCH  39  46
ATOM     44  C   UNL     1      24.417   5.358  -7.661  0.00  0.00    +0.067 A 
ATOM     45  C   UNL     1      24.012   4.047  -7.374  0.00  0.00    +0.322 A 
ATOM     46  N   UNL     1      24.886   3.016  -7.521  0.00  0.00    -0.173 N 
ATOM     47  C   UNL     1      26.149   3.252  -7.961  0.00  0.00    +0.311 A 
ATOM     48  C   UNL     1      26.612   4.539  -8.181  0.00  0.00    +0.071 A 
ATOM     49  C   UNL     1      25.745   5.604  -8.012  0.00  0.00    +0.022 A 
BRANCH  44  50
ATOM     50  C   UNL     1      23.447   6.478  -7.694  0.00  0.00    +0.083 C 
ATOM     51  S   UNL     1      22.182   6.682  -6.631  0.00  0.00    -0.035 S 
BRANCH  50  52
ATOM     52  N   UNL     1      23.621   7.385  -8.710  0.00  0.00    -0.352 N 
ATOM     53  H   UNL     1      24.284   7.279  -9.470  0.00  0.00    +0.143 HD
ATOM     54  H   UNL     1      22.946   8.138  -8.816  0.00  0.00    +0.143 HD
ENDBRANCH  50  52
ENDBRANCH  44  50
ENDBRANCH  39  46
BRANCH  41  55
ATOM     55  O   UNL     1      21.332   2.162  -7.909  0.00  0.00    -0.386 OA
ATOM     56  H   UNL     1      20.602   1.914  -8.529  0.00  0.00    +0.210 HD
ENDBRANCH  41  55
BRANCH  40  57
ATOM     57  O   UNL     1      23.332  -0.015  -5.982  0.00  0.00    -0.380 OA
ATOM     58  H   UNL     1      23.426  -0.756  -6.612  0.00  0.00    +0.210 HD
ENDBRANCH  40  57
ENDBRANCH  38  42
ENDBRANCH  37  38
ENDBRANCH  34  37
ENDBRANCH  33  34
ENDBRANCH   1  33
TORSDOF 20
