REMARK  Name = 
REMARK  3 active torsions:
REMARK  status: ('A' for Active; 'I' for Inactive)
REMARK    1  A    between atoms: C_1  and  N_2
REMARK    2  A    between atoms: N_2  and  C_3
REMARK    3  A    between atoms: C_3  and  C_10
REMARK                            x       y       z     vdW  Elec       q    Type
REMARK                         _______ _______ _______ _____ _____    ______ ____
ROOT
ATOM      1  C   UNL     1       2.873   0.940  -0.954  0.00  0.00    +0.104 C 
ATOM      2  C   UNL     1       3.583   2.184  -0.312  0.00  0.00    +0.158 C 
ATOM      3  O   UNL     1       4.775   2.460  -0.462  0.00  0.00    -0.295 OA
ATOM      4  C   UNL     1       2.686   3.099   0.513  0.00  0.00    +0.076 C 
ATOM      5  C   UNL     1       1.602   3.673  -0.381  0.00  0.00    +0.008 C 
ATOM      6  C   UNL     1       0.810   2.568  -1.069  0.00  0.00    +0.003 C 
ATOM      7  C   UNL     1       1.726   1.583  -1.798  0.00  0.00    +0.035 C 
ENDROOT
BRANCH   1   8
ATOM      8  C   UNL     1       3.834   0.086  -1.828  0.00  0.00    -0.002 A 
ATOM      9  C   UNL     1       4.967  -0.589  -1.317  0.00  0.00    +0.046 A 
ATOM     10 CL   UNL     1       5.415  -0.551   0.355  0.00  0.00    -0.083 Cl
ATOM     11  C   UNL     1       5.773  -1.390  -2.144  0.00  0.00    +0.020 A 
ATOM     12  C   UNL     1       5.472  -1.551  -3.497  0.00  0.00    +0.001 A 
ATOM     13  C   UNL     1       4.369  -0.910  -4.026  0.00  0.00    +0.000 A 
ATOM     14  C   UNL     1       3.567  -0.108  -3.207  0.00  0.00    +0.007 A 
ENDBRANCH   1   8
BRANCH   1  16
ATOM     15  C   UNL     1       1.517  -0.993  -0.146  0.00  0.00    +0.102 C 
ATOM     16  N   UNL     1       2.343   0.152   0.198  0.00  0.00    -0.304 NA
ATOM     17  H   UNL     1       3.149  -0.183   0.732  0.00  0.00    +0.123 HD
ENDBRANCH   1  16
TORSDOF 2
