REMARK  Name = 
REMARK  7 active torsions:
REMARK  status: ('A' for Active; 'I' for Inactive)
REMARK    1  A    between atoms: C_5  and  C_8
REMARK    2  A    between atoms: C_8  and  N_9
REMARK    3  A    between atoms: C_8  and  C_29
REMARK    4  A    between atoms: N_18  and  C_19
REMARK    5  A    between atoms: C_19  and  C_20
REMARK    6  A    between atoms: N_24  and  C_25
REMARK    7  A    between atoms: C_25  and  C_26
REMARK                            x       y       z     vdW  Elec       q    Type
REMARK                         _______ _______ _______ _____ _____    ______ ____
ROOT
ATOM      1  N   UNL     1       7.403   0.767   0.246  0.00  0.00    -0.289 NA
ATOM      2  C   UNL     1       7.501   2.202  -0.173  0.00  0.00    +0.104 C 
ATOM      3  C   UNL     1       8.574   2.571  -1.242  0.00  0.00    +0.123 C 
ATOM      4  N   UNL     1       9.873   2.004  -0.852  0.00  0.00    -0.297 N 
ATOM      5  C   UNL     1      10.910   2.419  -1.690  0.00  0.00    +0.224 A 
ATOM      6  N   UNL     1      11.323   3.681  -1.622  0.00  0.00    -0.181 NA
ATOM      7  C   UNL     1      12.332   4.015  -2.420  0.00  0.00    +0.221 A 
ATOM      8  N   UNL     1      12.806   5.317  -2.447  0.00  0.00    -0.310 N 
ATOM      9  H   UNL     1      13.602   5.389  -3.066  0.00  0.00    +0.149 HD
ATOM     10  N   UNL     1      12.910   3.176  -3.275  0.00  0.00    -0.181 NA
ATOM     11  C   UNL     1      12.439   1.938  -3.275  0.00  0.00    +0.221 A 
ATOM     12  N   UNL     1      12.975   1.046  -4.194  0.00  0.00    -0.310 N 
ATOM     13  H   UNL     1      13.836   1.433  -4.559  0.00  0.00    +0.149 HD
ATOM     14  N   UNL     1      11.462   1.521  -2.489  0.00  0.00    -0.181 NA
ATOM     15  C   UNL     1       9.792   0.551  -0.659  0.00  0.00    +0.123 C 
ATOM     16  C   UNL     1       8.787   0.274   0.479  0.00  0.00    +0.104 C 
ENDROOT
BRANCH   1  17
ATOM     17  C   UNL     1       6.617  -0.073  -0.703  0.00  0.00    +0.117 C 
BRANCH  17  22
ATOM     18  F   UNL     1       1.234   1.645  -1.287  0.00  0.00    -0.205 F 
ATOM     19  C   UNL     1       2.509   1.261  -1.142  0.00  0.00    +0.123 A 
ATOM     20  C   UNL     1       2.992   0.960   0.124  0.00  0.00    +0.038 A 
ATOM     21  C   UNL     1       4.318   0.546   0.275  0.00  0.00    +0.008 A 
ATOM     22  C   UNL     1       5.165   0.415  -0.843  0.00  0.00    -0.026 A 
ATOM     23  C   UNL     1       4.655   0.747  -2.113  0.00  0.00    +0.008 A 
ATOM     24  C   UNL     1       3.329   1.174  -2.259  0.00  0.00    +0.038 A 
ENDBRANCH  17  22
BRANCH  17  25
ATOM     25  C   UNL     1       6.627  -1.586  -0.370  0.00  0.00    -0.026 A 
ATOM     26  C   UNL     1       6.531  -2.071   0.952  0.00  0.00    +0.008 A 
ATOM     27  C   UNL     1       6.619  -3.441   1.225  0.00  0.00    +0.038 A 
ATOM     28  C   UNL     1       6.775  -4.341   0.176  0.00  0.00    +0.123 A 
ATOM     29  F   UNL     1       6.889  -5.649   0.439  0.00  0.00    -0.205 F 
ATOM     30  C   UNL     1       6.825  -3.898  -1.139  0.00  0.00    +0.038 A 
ATOM     31  C   UNL     1       6.743  -2.528  -1.412  0.00  0.00    +0.008 A 
ENDBRANCH  17  25
ENDBRANCH   1  17
BRANCH   8  32
ATOM     32  C   UNL     1      12.868   6.072  -1.215  0.00  0.00    +0.131 C 
BRANCH  32  33
ATOM     33  C   UNL     1      14.300   6.478  -0.972  0.00  0.00    -0.016 C 
ATOM     34  C   UNL     1      14.747   7.741  -0.922  0.00  0.00    +0.005 C 
ENDBRANCH  32  33
ENDBRANCH   8  32
BRANCH  12  35
ATOM     35  C   UNL     1      13.053  -0.330  -3.753  0.00  0.00    +0.131 C 
BRANCH  35  36
ATOM     36  C   UNL     1      12.993  -1.187  -4.980  0.00  0.00    -0.016 C 
ATOM     37  C   UNL     1      13.921  -2.079  -5.349  0.00  0.00    +0.005 C 
ENDBRANCH  35  36
ENDBRANCH  12  35
TORSDOF 7
