REMARK  Name = 
REMARK  4 active torsions:
REMARK  status: ('A' for Active; 'I' for Inactive)
REMARK    1  A    between atoms: C_1  and  C_2
REMARK    2  A    between atoms: C_3  and  C_14
REMARK    3  A    between atoms: C_8  and  O_9
REMARK    4  A    between atoms: C_18  and  O_19
REMARK                            x       y       z     vdW  Elec       q    Type
REMARK                         _______ _______ _______ _____ _____    ______ ____
ROOT
ATOM      1  C   UNL     1       0.866   0.415   0.271  0.00  0.00    +0.051 C 
ATOM      2  C   UNL     1       2.336   0.155   0.098  0.00  0.00    +0.040 A 
ATOM      3  C   UNL     1       3.147   1.410   0.085  0.00  0.00    +0.196 A 
ATOM      4  O   UNL     1       2.626   2.516   0.164  0.00  0.00    -0.287 OA
ATOM      5  C   UNL     1       4.594   1.281  -0.047  0.00  0.00    +0.068 A 
ATOM      6  C   UNL     1       5.140   0.012  -0.143  0.00  0.00    +0.139 A 
ATOM      7  C   UNL     1       6.523  -0.133  -0.272  0.00  0.00    +0.050 A 
ATOM      8  C   UNL     1       7.348   0.997  -0.321  0.00  0.00    +0.049 A 
ATOM      9  C   UNL     1       6.779   2.266  -0.232  0.00  0.00    +0.118 A 
ATOM     10  O   UNL     1       4.376  -1.125  -0.130  0.00  0.00    -0.454 OA
ATOM     11  C   UNL     1       5.407   2.418  -0.089  0.00  0.00    +0.060 A 
ATOM     12  C   UNL     1       2.985  -1.023  -0.033  0.00  0.00    +0.142 A 
ENDROOT
BRANCH  12  13
ATOM     13  C   UNL     1       2.330  -2.365  -0.110  0.00  0.00    +0.020 A 
ATOM     14  C   UNL     1       3.000  -3.506   0.374  0.00  0.00    +0.030 A 
ATOM     15  C   UNL     1       2.444  -4.788   0.247  0.00  0.00    +0.061 A 
ATOM     16 BR   UNL     1       3.451  -6.273   0.866  0.00  0.00    -0.046 Br
ATOM     17  C   UNL     1       1.191  -4.958  -0.339  0.00  0.00    +0.145 A 
ATOM     18  C   UNL     1       0.511  -3.839  -0.817  0.00  0.00    +0.061 A 
ATOM     19 BR   UNL     1      -1.211  -4.010  -1.595  0.00  0.00    -0.046 Br
ATOM     20  C   UNL     1       1.088  -2.566  -0.734  0.00  0.00    +0.030 A 
BRANCH  17  21
ATOM     21  O   UNL     1       0.653  -6.211  -0.449  0.00  0.00    -0.505 OA
ATOM     22  H   UNL     1      -0.211  -6.133  -0.893  0.00  0.00    +0.292 HD
ENDBRANCH  17  21
ENDBRANCH  12  13
BRANCH   9  23
ATOM     23  O   UNL     1       7.536   3.396  -0.286  0.00  0.00    -0.507 OA
ATOM     24  H   UNL     1       8.466   3.153  -0.418  0.00  0.00    +0.292 HD
ENDBRANCH   9  23
TORSDOF 3
