REMARK  Name = 
REMARK  7 active torsions:
REMARK  status: ('A' for Active; 'I' for Inactive)
REMARK    1  A    between atoms: O_1  and  P_2
REMARK    2  A    between atoms: P_2  and  O_3
REMARK    3  A    between atoms: P_2  and  O_5
REMARK    4  A    between atoms: O_5  and  C_6
REMARK    5  A    between atoms: C_6  and  N_7
REMARK    6  A    between atoms: C_11  and  C_14
REMARK    7  A    between atoms: C_11  and  C_20
REMARK                            x       y       z     vdW  Elec       q    Type
REMARK                         _______ _______ _______ _____ _____    ______ ____
ROOT
ATOM      1  N   UNL     1       6.344  -0.660   1.045  0.00  0.00    -0.199 N 
ATOM      2  C   UNL     1       7.152  -1.769   1.065  0.00  0.00    +0.257 C 
ATOM      3  O   UNL     1       6.789  -2.905   1.346  0.00  0.00    -0.272 OA
ATOM      4  C   UNL     1       8.594  -1.347   0.609  0.00  0.00    +0.164 C 
ATOM      5  N   UNL     1       8.374   0.084   0.542  0.00  0.00    -0.277 N 
ATOM      6  H   UNL     1       9.103   0.766   0.391  0.00  0.00    +0.152 HD
ATOM      7  C   UNL     1       7.077   0.450   0.781  0.00  0.00    +0.312 C 
ATOM      8  O   UNL     1       6.691   1.608   0.754  0.00  0.00    -0.252 OA
ENDROOT
BRANCH   4   9
ATOM      9  C   UNL     1       8.841  -1.973  -0.777  0.00  0.00    -0.011 A 
ATOM     10  C   UNL     1       9.028  -3.365  -0.891  0.00  0.00    +0.006 A 
ATOM     11  C   UNL     1       9.182  -3.972  -2.139  0.00  0.00    +0.000 A 
ATOM     12  C   UNL     1       9.152  -3.202  -3.297  0.00  0.00    +0.000 A 
ATOM     13  C   UNL     1       8.980  -1.824  -3.209  0.00  0.00    +0.000 A 
ATOM     14  C   UNL     1       8.828  -1.212  -1.962  0.00  0.00    +0.006 A 
ENDBRANCH   4   9
BRANCH   4  15
ATOM     15  C   UNL     1       9.721  -1.587   1.626  0.00  0.00    -0.011 A 
ATOM     16  C   UNL     1      11.071  -1.507   1.221  0.00  0.00    +0.006 A 
ATOM     17  C   UNL     1      12.118  -1.611   2.144  0.00  0.00    +0.000 A 
ATOM     18  C   UNL     1      11.837  -1.783   3.495  0.00  0.00    +0.000 A 
ATOM     19  C   UNL     1      10.514  -1.863   3.920  0.00  0.00    +0.000 A 
ATOM     20  C   UNL     1       9.465  -1.765   2.997  0.00  0.00    +0.006 A 
ENDBRANCH   4  15
BRANCH   1  21
ATOM     21  C   UNL     1       4.919  -0.651   1.278  0.00  0.00    +0.292 C 
BRANCH  21  22
ATOM     22  O   UNL     1       4.689  -0.656   2.667  0.00  0.00    -0.267 OA
BRANCH  22  23
ATOM     23  P   UNL     1       3.352  -0.010   3.247  0.00  0.00    +0.474 P 
ATOM     24  O   UNL     1       3.376   0.304   4.704  0.00  0.00    -0.227 OA
BRANCH  23  25
ATOM     25  O   UNL     1       2.132  -0.970   2.904  0.00  0.00    -0.303 OA
ATOM     26  H   UNL     1       1.467  -0.946   3.618  0.00  0.00    +0.222 HD
ENDBRANCH  23  25
BRANCH  23  27
ATOM     27  O   UNL     1       3.028   1.292   2.387  0.00  0.00    -0.303 OA
ATOM     28  H   UNL     1       2.909   2.066   2.971  0.00  0.00    +0.222 HD
ENDBRANCH  23  27
ENDBRANCH  22  23
ENDBRANCH  21  22
ENDBRANCH   1  21
TORSDOF 7
