REMARK  Name = 
REMARK  9 active torsions:
REMARK  status: ('A' for Active; 'I' for Inactive)
REMARK    1  A    between atoms: C_4  and  S_5
REMARK    2  A    between atoms: S_5  and  C_6
REMARK    3  A    between atoms: C_6  and  C_7
REMARK    4  A    between atoms: C_7  and  N_8
REMARK    5  A    between atoms: C_11  and  C_21
REMARK    6  A    between atoms: C_15  and  C_17
REMARK    7  A    between atoms: C_17  and  C_19
REMARK    8  A    between atoms: C_17  and  O_20
REMARK    9  A    between atoms: C_21  and  O_22
REMARK                            x       y       z     vdW  Elec       q    Type
REMARK                         _______ _______ _______ _____ _____    ______ ____
ROOT
ATOM      1  C   UNL     1       2.178  -0.153  -0.199  0.00  0.00    +0.101 C 
ATOM      2  C   UNL     1       2.895   1.049  -0.883  0.00  0.00    +0.125 C 
ATOM      3  C   UNL     1       3.533   1.281   0.493  0.00  0.00    +0.228 C 
ATOM      4  O   UNL     1       4.382   2.002   0.974  0.00  0.00    -0.275 OA
ATOM      5  N   UNL     1       2.926   0.190   1.047  0.00  0.00    -0.260 N 
ATOM      6  C   UNL     1       3.697  -0.909   1.420  0.00  0.00    +0.131 C 
ATOM      7  C   UNL     1       3.515  -1.953   0.587  0.00  0.00    +0.016 C 
ATOM      8  C   UNL     1       2.559  -1.591  -0.525  0.00  0.00    +0.068 C 
ENDROOT
BRANCH   2   9
ATOM      9  C   UNL     1       2.009   2.163  -1.409  0.00  0.00    +0.125 C 
ATOM     10  C   UNL     1       2.822   3.420  -1.689  0.00  0.00    +0.038 C 
BRANCH   9  11
ATOM     11  O   UNL     1       1.418   1.699  -2.621  0.00  0.00    -0.391 OA
ATOM     12  H   UNL     1       0.998   2.458  -3.065  0.00  0.00    +0.210 HD
ENDBRANCH   9  11
ENDBRANCH   2   9
BRANCH   6  13
ATOM     13  C   UNL     1       4.618  -0.833   2.598  0.00  0.00    +0.352 C 
ATOM     14  O   UNL     1       5.023  -1.807   3.212  0.00  0.00    -0.244 OA
BRANCH  13  15
ATOM     15  O   UNL     1       4.928   0.416   3.010  0.00  0.00    -0.476 OA
ATOM     16  H   UNL     1       4.715   1.144   2.384  0.00  0.00    +0.295 HD
ENDBRANCH  13  15
ENDBRANCH   6  13
BRANCH   7  17
ATOM     17  S   UNL     1       4.354  -3.449   0.465  0.00  0.00    -0.126 S 
BRANCH  17  18
ATOM     18  C   UNL     1       3.892  -4.398   1.945  0.00  0.00    +0.097 C 
BRANCH  18  19
ATOM     19  C   UNL     1       2.394  -4.539   2.211  0.00  0.00    +0.154 C 
BRANCH  19  20
ATOM     20  N   UNL     1       2.186  -5.366   3.417  0.00  0.00    -0.276 NA
ATOM     21  C   UNL     1       2.206  -4.700   4.514  0.00  0.00    +0.172 C 
ATOM     22  N   UNL     1       2.017  -5.266   5.729  0.00  0.00    -0.349 N 
ATOM     23  H   UNL     1       2.297  -4.769   6.565  0.00  0.00    +0.143 HD
ATOM     24  H   UNL     1       2.088  -6.276   5.761  0.00  0.00    +0.143 HD
ENDBRANCH  19  20
ENDBRANCH  18  19
ENDBRANCH  17  18
ENDBRANCH   7  17
TORSDOF 8
