REMARK  Name = 
REMARK  16 active torsions:
REMARK  status: ('A' for Active; 'I' for Inactive)
REMARK    1  A    between atoms: N_10  and  C_11
REMARK    2  A    between atoms: C_14  and  C_16
REMARK    3  A    between atoms: C_16  and  O_17
REMARK    4  A    between atoms: O_17  and  P_18
REMARK    5  A    between atoms: P_18  and  O_19
REMARK    6  A    between atoms: P_18  and  C_21
REMARK    7  A    between atoms: C_21  and  P_22
REMARK    8  A    between atoms: P_22  and  O_23
REMARK    9  A    between atoms: P_22  and  O_25
REMARK   10  A    between atoms: O_25  and  C_26
REMARK   11  A    between atoms: C_26  and  C_27
REMARK   12  A    between atoms: C_30  and  O_32
REMARK   13  A    between atoms: C_33  and  O_35
REMARK   14  A    between atoms: C_36  and  O_38
REMARK   15  A    between atoms: C_39  and  O_41
REMARK   16  A    between atoms: C_42  and  O_44
REMARK                            x       y       z     vdW  Elec       q    Type
REMARK                         _______ _______ _______ _____ _____    ______ ____
ROOT
ATOM      1  O   UNL     1       8.178  -2.160   3.736  0.00  0.00    -0.305 OA
ENDROOT
BRANCH   1   2
ATOM      2  P   UNL     1       7.852  -2.883   5.273  0.00  0.00    +0.342 P 
ATOM      3  O   UNL     1       6.889  -1.741   5.582  0.00  0.00    -0.258 OA
BRANCH   2   4
ATOM      4  O   UNL     1       9.342  -2.332   5.684  0.00  0.00    -0.324 OA
ATOM      5  H   UNL     1       9.481  -1.528   5.129  0.00  0.00    +0.220 HD
ENDBRANCH   2   4
BRANCH   2   6
ATOM      6  C   UNL     1       7.508  -3.649   6.899  0.00  0.00    +0.253 C 
BRANCH   6   7
ATOM      7  P   UNL     1       8.483  -2.801   8.195  0.00  0.00    +0.342 P 
ATOM      8  O   UNL     1       8.115  -3.458   9.532  0.00  0.00    -0.258 OA
BRANCH   7   9
ATOM      9  O   UNL     1       9.723  -3.999   8.045  0.00  0.00    -0.324 OA
ATOM     10  H   UNL     1      10.093  -4.093   8.948  0.00  0.00    +0.220 HD
ENDBRANCH   7   9
BRANCH   7  11
ATOM     11  O   UNL     1       7.244  -1.604   8.344  0.00  0.00    -0.305 OA
BRANCH  11  12
ATOM     12  C   UNL     1       7.398  -0.696   9.437  0.00  0.00    +0.204 C 
BRANCH  12  13
ATOM     13  C   UNL     1       8.670   0.146   9.341  0.00  0.00    +0.179 C 
ATOM     14  C   UNL     1       8.787   0.938   8.039  0.00  0.00    +0.179 C 
ATOM     15  C   UNL     1      10.284   0.896   7.714  0.00  0.00    +0.201 C 
ATOM     16  C   UNL     1      10.907   0.133   8.891  0.00  0.00    +0.279 C 
ATOM     17  O   UNL     1       9.851  -0.686   9.395  0.00  0.00    -0.341 OA
BRANCH  16  18
ATOM     18  O   UNL     1      11.344   1.006   9.912  0.00  0.00    -0.365 OA
ATOM     19  H   UNL     1      11.815   0.448  10.553  0.00  0.00    +0.213 HD
ENDBRANCH  16  18
BRANCH  15  20
ATOM     20  O   UNL     1      10.459   0.156   6.488  0.00  0.00    -0.384 OA
ATOM     21  H   UNL     1      10.369  -0.789   6.715  0.00  0.00    +0.210 HD
ENDBRANCH  15  20
BRANCH  14  22
ATOM     22  O   UNL     1       8.308   2.268   8.216  0.00  0.00    -0.386 OA
ATOM     23  H   UNL     1       8.353   2.706   7.347  0.00  0.00    +0.210 HD
ENDBRANCH  14  22
ENDBRANCH  12  13
ENDBRANCH  11  12
ENDBRANCH   7  11
ENDBRANCH   6   7
ENDBRANCH   2   6
ENDBRANCH   1   2
BRANCH   1  24
ATOM     24  C   UNL     1       8.099  -3.083   2.655  0.00  0.00    +0.204 C 
BRANCH  24  28
ATOM     25  C   UNL     1       9.660  -0.824   0.223  0.00  0.00    +0.253 C 
ATOM     26  C   UNL     1       8.290  -0.158   0.407  0.00  0.00    +0.195 C 
ATOM     27  C   UNL     1       7.397  -1.255   0.989  0.00  0.00    +0.178 C 
ATOM     28  C   UNL     1       8.358  -2.398   1.313  0.00  0.00    +0.178 C 
ATOM     29  O   UNL     1       9.689  -1.846   1.261  0.00  0.00    -0.346 OA
BRANCH  25  37
ATOM     30  N   UNL     1      10.771  -2.382  -5.534  0.00  0.00    -0.341 N 
ATOM     31  H   UNL     1      11.053  -3.302  -5.217  0.00  0.00    +0.144 HD
ATOM     32  H   UNL     1      10.305  -2.307  -6.428  0.00  0.00    +0.144 HD
ATOM     33  C   UNL     1      10.158  -1.615  -4.552  0.00  0.00    +0.147 A 
ATOM     34  C   UNL     1      10.306  -1.863  -3.175  0.00  0.00    +0.147 A 
ATOM     35  N   UNL     1      10.995  -2.831  -2.480  0.00  0.00    -0.231 NA
ATOM     36  C   UNL     1      10.800  -2.534  -1.213  0.00  0.00    +0.203 A 
ATOM     37  N   UNL     1       9.973  -1.444  -1.052  0.00  0.00    -0.286 N 
ATOM     38  C   UNL     1       9.664  -0.993  -2.308  0.00  0.00    +0.167 A 
ATOM     39  N   UNL     1       8.914   0.068  -2.648  0.00  0.00    -0.216 NA
ATOM     40  C   UNL     1       8.814   0.186  -3.987  0.00  0.00    +0.225 A 
ATOM     41  N   UNL     1       9.378  -0.583  -4.942  0.00  0.00    -0.219 NA
ENDBRANCH  25  37
BRANCH  27  42
ATOM     42  O   UNL     1       6.445  -1.695   0.020  0.00  0.00    -0.386 OA
ATOM     43  H   UNL     1       5.716  -2.133   0.493  0.00  0.00    +0.210 HD
ENDBRANCH  27  42
BRANCH  26  44
ATOM     44  O   UNL     1       8.406   0.915   1.368  0.00  0.00    -0.385 OA
ATOM     45  H   UNL     1       8.733   0.541   2.207  0.00  0.00    +0.210 HD
ENDBRANCH  26  44
ENDBRANCH  24  28
ENDBRANCH   1  24
TORSDOF 16
