REMARK  Name = 
REMARK  6 active torsions:
REMARK  status: ('A' for Active; 'I' for Inactive)
REMARK    1  A    between atoms: C_1  and  N_2
REMARK    2  A    between atoms: N_2  and  C_3
REMARK    3  A    between atoms: C_3  and  C_5
REMARK    4  A    between atoms: C_3  and  C_6
REMARK    5  A    between atoms: C_6  and  O_8
REMARK    6  A    between atoms: C_6  and  C_9
REMARK                            x       y       z     vdW  Elec       q    Type
REMARK                         _______ _______ _______ _____ _____    ______ ____
ROOT
ATOM      1  C   UNL     1       4.595   1.264   0.861  0.00  0.00    +0.161 C 
ENDROOT
BRANCH   1   2
ATOM      2  C   UNL     1       4.943   2.543   1.607  0.00  0.00    -0.018 A 
ATOM      3  C   UNL     1       6.275   2.929   1.824  0.00  0.00    +0.006 A 
ATOM      4  C   UNL     1       6.580   4.124   2.479  0.00  0.00    +0.000 A 
ATOM      5  C   UNL     1       5.556   4.956   2.923  0.00  0.00    +0.000 A 
ATOM      6  C   UNL     1       4.228   4.591   2.715  0.00  0.00    +0.000 A 
ATOM      7  C   UNL     1       3.922   3.392   2.063  0.00  0.00    +0.006 A 
ENDBRANCH   1   2
BRANCH   1   8
ATOM      8  C   UNL     1       4.945  -0.097   1.556  0.00  0.00    +0.083 C 
ATOM      9  C   UNL     1       4.180  -0.248   2.873  0.00  0.00    +0.027 C 
BRANCH   8  11
ATOM     10  C   UNL     1       6.791  -1.625   2.105  0.00  0.00    +0.101 C 
ATOM     11  N   UNL     1       6.407  -0.278   1.715  0.00  0.00    -0.314 NA
ATOM     12  H   UNL     1       6.824  -0.064   0.804  0.00  0.00    +0.122 HD
ENDBRANCH   8  11
ENDBRANCH   1   8
BRANCH   1  13
ATOM     13  O   UNL     1       5.210   1.298  -0.439  0.00  0.00    -0.386 OA
ATOM     14  H   UNL     1       5.209   2.231  -0.718  0.00  0.00    +0.210 HD
ENDBRANCH   1  13
TORSDOF 4
