REMARK  Name = 
REMARK  22 active torsions:
REMARK  status: ('A' for Active; 'I' for Inactive)
REMARK    1  A    between atoms: C_1  and  O_2
REMARK    2  A    between atoms: O_2  and  C_3
REMARK    3  A    between atoms: C_6  and  C_8
REMARK    4  A    between atoms: C_8  and  C_9
REMARK    5  A    between atoms: C_9  and  C_11
REMARK    6  A    between atoms: C_9  and  C_12
REMARK    7  A    between atoms: C_16  and  C_18
REMARK    8  A    between atoms: C_20  and  C_21
REMARK    9  A    between atoms: C_22  and  O_24
REMARK   10  A    between atoms: C_25  and  O_27
REMARK   11  A    between atoms: O_27  and  C_28
REMARK   12  A    between atoms: C_31  and  C_33
REMARK   13  A    between atoms: C_35  and  C_37
REMARK   14  A    between atoms: C_43  and  C_44
REMARK   15  A    between atoms: C_45  and  O_72
REMARK   16  A    between atoms: C_52  and  C_54
REMARK   17  A    between atoms: C_55  and  O_56
REMARK   18  A    between atoms: O_72  and  C_73
REMARK   19  A    between atoms: C_76  and  O_78
REMARK   20  A    between atoms: O_78  and  C_79
REMARK   21  A    between atoms: C_79  and  C_80
REMARK   22  A    between atoms: C_80  and  O_81
REMARK                            x       y       z     vdW  Elec       q    Type
REMARK                         _______ _______ _______ _____ _____    ______ ____
ROOT
ATOM      1  C   UNL     1      -0.000  -0.000  -0.000  0.00  0.00    +0.186 C 
ATOM      2  O   UNL     1      -0.000  -0.000  -0.000  0.00  0.00    -0.459 OA
ATOM      3  C   UNL     1      -0.000  -0.000   0.000  0.00  0.00    +0.328 C 
ATOM      4  O   UNL     1      -0.000  -0.000   0.000  0.00  0.00    -0.249 OA
ATOM      5  C   UNL     1      -0.000  -0.000  -0.000  0.00  0.00    +0.185 C 
ATOM      6  N   UNL     1      -0.000  -0.000   0.000  0.00  0.00    -0.282 N 
ATOM      7  C   UNL     1      -0.000  -0.000   0.000  0.00  0.00    +0.109 C 
ATOM      8  C   UNL     1      -0.000  -0.000   0.000  0.00  0.00    +0.019 C 
ATOM      9  C   UNL     1      -0.000  -0.000   0.000  0.00  0.00    +0.004 C 
ATOM     10  C   UNL     1      -0.000  -0.000   0.000  0.00  0.00    +0.288 C 
ATOM     11  O   UNL     1      -0.000  -0.000  -0.000  0.00  0.00    -0.267 OA
ATOM     12  C   UNL     1      -0.000  -0.000  -0.000  0.00  0.00    +0.276 C 
ATOM     13  O   UNL     1      -0.000  -0.000   0.000  0.00  0.00    -0.281 OA
ATOM     14  C   UNL     1      -0.000  -0.000  -0.000  0.00  0.00    +0.240 C 
ATOM     15  O   UNL     1      -0.000  -0.000   0.000  0.00  0.00    -0.339 OA
ATOM     16  C   UNL     1      -0.000  -0.000   0.000  0.00  0.00    +0.125 C 
ATOM     17  C   UNL     1      -0.000  -0.000  -0.000  0.00  0.00    +0.032 C 
ATOM     18  C   UNL     1      -0.000  -0.000  -0.000  0.00  0.00    +0.011 C 
ATOM     19  C   UNL     1      -0.000  -0.000  -0.000  0.00  0.00    +0.067 C 
ATOM     20  C   UNL     1      -0.000  -0.000  -0.000  0.00  0.00    +0.146 C 
ATOM     21  C   UNL     1      -0.000  -0.000  -0.000  0.00  0.00    -0.044 C 
ATOM     22  C   UNL     1      -0.000  -0.000   0.000  0.00  0.00    +0.042 C 
ATOM     23  C   UNL     1      -0.000  -0.000  -0.000  0.00  0.00    +0.001 C 
ATOM     24  C   UNL     1      -0.000  -0.000  -0.000  0.00  0.00    +0.000 C 
ATOM     25  C   UNL     1      -0.000  -0.000  -0.000  0.00  0.00    -0.000 C 
ATOM     26  C   UNL     1      -0.000  -0.000   0.000  0.00  0.00    -0.004 C 
ATOM     27  C   UNL     1      -0.000  -0.000  -0.000  0.00  0.00    -0.024 C 
ATOM     28  C   UNL     1      -0.000  -0.000  -0.000  0.00  0.00    +0.009 C 
ATOM     29  C   UNL     1      -0.000  -0.000  -0.000  0.00  0.00    +0.012 C 
ATOM     30  C   UNL     1      -0.000  -0.000   0.000  0.00  0.00    +0.018 C 
ATOM     31  C   UNL     1      -0.000  -0.000  -0.000  0.00  0.00    +0.055 C 
ATOM     32  C   UNL     1      -0.000  -0.000   0.000  0.00  0.00    +0.015 C 
ATOM     33  C   UNL     1      -0.000  -0.000   0.000  0.00  0.00    +0.167 C 
ATOM     34  O   UNL     1      -0.000  -0.000  -0.000  0.00  0.00    -0.294 OA
ATOM     35  C   UNL     1      -0.000  -0.000  -0.000  0.00  0.00    +0.216 C 
ATOM     36  C   UNL     1      -0.000  -0.000  -0.000  0.00  0.00    +0.176 C 
ATOM     37  C   UNL     1      -0.000  -0.000  -0.000  0.00  0.00    -0.045 C 
ATOM     38  C   UNL     1      -0.000  -0.000  -0.000  0.00  0.00    +0.041 C 
ATOM     39  C   UNL     1      -0.000  -0.000  -0.000  0.00  0.00    -0.015 C 
ATOM     40  C   UNL     1      -0.000  -0.000  -0.000  0.00  0.00    +0.075 C 
ATOM     41  C   UNL     1      -0.000  -0.000  -0.000  0.00  0.00    +0.020 C 
ATOM     42  C   UNL     1      -0.000  -0.000  -0.000  0.00  0.00    +0.143 C 
ATOM     43  O   UNL     1      -0.000  -0.000  -0.000  0.00  0.00    -0.297 OA
ATOM     44  C   UNL     1      -0.000  -0.000   0.000  0.00  0.00    +0.054 C 
ATOM     45  C   UNL     1      -0.000  -0.000  -0.000  0.00  0.00    +0.013 C 
ATOM     46  C   UNL     1      -0.000  -0.000   0.000  0.00  0.00    +0.034 C 
ATOM     47  C   UNL     1      -0.000  -0.000  -0.000  0.00  0.00    +0.119 C 
ENDROOT
BRANCH   1  48
ATOM     48  C   UNL     1      -0.000  -0.000  -0.000  0.00  0.00    +0.027 C 
ATOM     49  C   UNL     1      -0.000  -0.000  -0.000  0.00  0.00    +0.011 C 
BRANCH  48  50
ATOM     50  C   UNL     1      -0.000  -0.000  -0.000  0.00  0.00    +0.010 C 
BRANCH  50  55
ATOM     51  C   UNL     1      -0.000  -0.000  -0.000  0.00  0.00    +0.147 C 
ATOM     52  C   UNL     1      -0.000  -0.000  -0.000  0.00  0.00    +0.147 C 
ATOM     53  C   UNL     1      -0.000  -0.000  -0.000  0.00  0.00    +0.034 C 
ATOM     54  C   UNL     1      -0.000  -0.000  -0.000  0.00  0.00    +0.006 C 
ATOM     55  C   UNL     1      -0.000  -0.000  -0.000  0.00  0.00    -0.008 C 
ATOM     56  C   UNL     1      -0.000  -0.000  -0.000  0.00  0.00    +0.037 C 
BRANCH  51  58
ATOM     57  C   UNL     1      -0.000  -0.000  -0.000  0.00  0.00    +0.194 C 
ATOM     58  O   UNL     1      -0.000  -0.000  -0.000  0.00  0.00    -0.377 OA
ENDBRANCH  51  58
BRANCH  52  59
ATOM     59  O   UNL     1      -0.000  -0.000  -0.000  0.00  0.00    -0.372 OA
BRANCH  59  60
ATOM     60  C   UNL     1      -0.000  -0.000  -0.000  0.00  0.00    +0.188 C 
BRANCH  60  61
ATOM     61  C   UNL     1      -0.000  -0.000  -0.000  0.00  0.00    +0.184 C 
BRANCH  61  62
ATOM     62  O   UNL     1      -0.000  -0.000  -0.000  0.00  0.00    -0.393 OA
ATOM     63  H   UNL     1      -0.000  -0.000  -0.000  0.00  0.00    +0.209 HD
ENDBRANCH  61  62
ENDBRANCH  60  61
ENDBRANCH  59  60
ENDBRANCH  52  59
ENDBRANCH  50  55
ENDBRANCH  48  50
ENDBRANCH   1  48
BRANCH  20  64
ATOM     64  O   UNL     1      -0.000  -0.000  -0.000  0.00  0.00    -0.375 OA
ATOM     65  C   UNL     1      -0.000  -0.000  -0.000  0.00  0.00    +0.194 C 
ENDBRANCH  20  64
BRANCH  35  66
ATOM     66  O   UNL     1      -0.000  -0.000  -0.000  0.00  0.00    -0.369 OA
ATOM     67  C   UNL     1      -0.000  -0.000  -0.000  0.00  0.00    +0.195 C 
ENDBRANCH  35  66
BRANCH  36  68
ATOM     68  O   UNL     1      -0.000  -0.000  -0.000  0.00  0.00    -0.384 OA
ATOM     69  H   UNL     1       0.000   0.000   0.000  0.00  0.00    +0.210 HD
ENDBRANCH  36  68
BRANCH  14  70
ATOM     70  O   UNL     1      -0.000  -0.000   0.000  0.00  0.00    -0.358 OA
ATOM     71  H   UNL     1       0.000   0.000   0.000  0.00  0.00    +0.213 HD
ENDBRANCH  14  70
TORSDOF 12
