REMARK  Name = 
REMARK  7 active torsions:
REMARK  status: ('A' for Active; 'I' for Inactive)
REMARK    1  A    between atoms: C_1  and  C_2
REMARK    2  A    between atoms: C_2  and  C_3
REMARK    3  A    between atoms: C_2  and  C_4
REMARK    4  A    between atoms: C_2  and  C_6
REMARK    5  A    between atoms: C_4  and  O_5
REMARK    6  A    between atoms: C_6  and  O_8
REMARK    7  A    between atoms: C_6  and  C_9
REMARK                            x       y       z     vdW  Elec       q    Type
REMARK                         _______ _______ _______ _____ _____    ______ ____
ROOT
ATOM      1  C   UNL     1       0.955   0.144  -0.053  0.00  0.00    +0.016 C 
ATOM      2  C   UNL     1       2.499   0.176  -0.099  0.00  0.00    +0.019 C 
ATOM      3  C   UNL     1       2.906   0.426  -1.567  0.00  0.00    +0.016 C 
ENDROOT
BRANCH   2   4
ATOM      4  C   UNL     1       3.020  -1.179   0.427  0.00  0.00    +0.168 C 
BRANCH   4   5
ATOM      5  C   UNL     1       4.560  -1.398   0.653  0.00  0.00    +0.071 C 
ATOM      6  O   UNL     1       4.828  -2.297   1.512  0.00  0.00    -0.547 OA
ATOM      7  O   UNL     1       5.344  -0.626   0.041  0.00  0.00    -0.547 OA
ENDBRANCH   4   5
BRANCH   4   8
ATOM      8  O   UNL     1       2.489  -2.226  -0.441  0.00  0.00    -0.385 OA
ATOM      9  H   UNL     1       2.157  -2.914   0.156  0.00  0.00    +0.210 HD
ENDBRANCH   4   8
ENDBRANCH   2   4
BRANCH   2  10
ATOM     10  C   UNL     1       3.006   1.304   0.824  0.00  0.00    +0.165 C 
BRANCH  10  11
ATOM     11  O   UNL     1       2.502   2.581   0.425  0.00  0.00    -0.394 OA
ATOM     12  H   UNL     1       3.000   2.812  -0.376  0.00  0.00    +0.209 HD
ENDBRANCH  10  11
ENDBRANCH   2  10
TORSDOF 5
