REMARK  Name = 
REMARK  13 active torsions:
REMARK  status: ('A' for Active; 'I' for Inactive)
REMARK    1  A    between atoms: C_1  and  C_2
REMARK    2  A    between atoms: C_2  and  C_3
REMARK    3  A    between atoms: C_3  and  C_4
REMARK    4  A    between atoms: C_3  and  C_6
REMARK    5  A    between atoms: C_3  and  C_14
REMARK    6  A    between atoms: C_4  and  C_5
REMARK    7  A    between atoms: C_6  and  N_7
REMARK    8  A    between atoms: C_8  and  C_10
REMARK    9  A    between atoms: C_10  and  C_11
REMARK   10  A    between atoms: C_11  and  C_12
REMARK   11  A    between atoms: C_12  and  O_13
REMARK   12  A    between atoms: C_16  and  O_17
REMARK   13  A    between atoms: O_17  and  C_18
REMARK                            x       y       z     vdW  Elec       q    Type
REMARK                         _______ _______ _______ _____ _____    ______ ____
ROOT
ATOM      1  C   UNL     1       2.952   0.760  -1.144  0.00  0.00    +0.011 C 
ENDROOT
BRANCH   1   2
ATOM      2  C   UNL     1       4.508   0.900  -1.102  0.00  0.00    -0.036 A 
ATOM      3  C   UNL     1       5.261   1.119  -2.272  0.00  0.00    +0.004 A 
ATOM      4  C   UNL     1       6.648   1.283  -2.230  0.00  0.00    +0.004 A 
ATOM      5  C   UNL     1       7.317   1.247  -1.013  0.00  0.00    +0.045 A 
ATOM      6  C   UNL     1       6.610   1.045   0.169  0.00  0.00    +0.120 A 
ATOM      7  C   UNL     1       5.220   0.876   0.119  0.00  0.00    +0.049 A 
BRANCH   6   8
ATOM      8  O   UNL     1       7.381   1.050   1.299  0.00  0.00    -0.495 OA
ATOM      9  C   UNL     1       6.725   0.782   2.532  0.00  0.00    +0.277 C 
ENDBRANCH   6   8
ENDBRANCH   1   2
BRANCH   1  11
ATOM     10  C   UNL     1       2.855  -1.566   0.063  0.00  0.00    +0.005 C 
ATOM     11  C   UNL     1       2.391  -0.112   0.031  0.00  0.00    +0.010 C 
ENDBRANCH   1  11
BRANCH   1  12
ATOM     12  C   UNL     1       2.487   0.143  -2.515  0.00  0.00    +0.010 C 
ATOM     13  C   UNL     1       0.986  -0.056  -2.719  0.00  0.00    +0.005 C 
ENDBRANCH   1  12
BRANCH   1  14
ATOM     14  C   UNL     1       2.352   2.207  -1.051  0.00  0.00    +0.115 C 
BRANCH  14  15
ATOM     15  N   UNL     1       2.677   2.946   0.160  0.00  0.00    -0.314 N 
ATOM     16  H   UNL     1       3.583   3.396   0.205  0.00  0.00    +0.149 HD
ATOM     17  C   UNL     1       1.824   2.992   1.241  0.00  0.00    +0.213 C 
ATOM     18  O   UNL     1       0.740   2.423   1.269  0.00  0.00    -0.276 OA
BRANCH  17  19
ATOM     19  C   UNL     1       2.334   3.839   2.389  0.00  0.00    +0.098 C 
BRANCH  19  20
ATOM     20  C   UNL     1       1.927   3.272   3.748  0.00  0.00    +0.037 C 
BRANCH  20  21
ATOM     21  C   UNL     1       2.579   1.922   4.021  0.00  0.00    +0.156 C 
BRANCH  21  22
ATOM     22  O   UNL     1       2.224   1.451   5.315  0.00  0.00    -0.395 OA
ATOM     23  H   UNL     1       2.418   2.153   5.955  0.00  0.00    +0.209 HD
ENDBRANCH  21  22
ENDBRANCH  20  21
ENDBRANCH  19  20
ENDBRANCH  17  19
ENDBRANCH  14  15
ENDBRANCH   1  14
TORSDOF 10
