REMARK  Name = 
REMARK  6 active torsions:
REMARK  status: ('A' for Active; 'I' for Inactive)
REMARK    1  A    between atoms: C_1  and  C_2
REMARK    2  A    between atoms: C_5  and  N_6
REMARK    3  A    between atoms: N_6  and  C_7
REMARK    4  A    between atoms: C_15  and  C_16
REMARK    5  A    between atoms: C_16  and  C_17
REMARK    6  A    between atoms: C_17  and  O_18
REMARK                            x       y       z     vdW  Elec       q    Type
REMARK                         _______ _______ _______ _____ _____    ______ ____
ROOT
ATOM      1  C   UNL     1       0.944   0.055   0.224  0.00  0.00    +0.044 C 
ATOM      2  C   UNL     1       2.443   0.037   0.155  0.00  0.00    -0.050 A 
ATOM      3  C   UNL     1       3.123  -1.175  -0.027  0.00  0.00    +0.009 A 
ATOM      4  C   UNL     1       4.510  -1.203  -0.268  0.00  0.00    -0.015 A 
ATOM      5  C   UNL     1       5.210   0.020  -0.327  0.00  0.00    +0.035 A 
ATOM      6  C   UNL     1       4.546   1.201   0.029  0.00  0.00    +0.024 A 
ATOM      7  C   UNL     1       3.172   1.217   0.248  0.00  0.00    +0.005 A 
ENDROOT
BRANCH   5   8
ATOM      8  N   UNL     1       6.524   0.052  -0.856  0.00  0.00    -0.311 N 
ATOM      9  H   UNL     1       7.191  -0.449  -0.275  0.00  0.00    +0.152 HD
BRANCH   8  10
ATOM     10  C   UNL     1       7.130   1.146  -1.542  0.00  0.00    +0.086 A 
ATOM     11  C   UNL     1       8.470   1.447  -1.260  0.00  0.00    +0.146 A 
ATOM     12  F   UNL     1       9.167   0.642  -0.447  0.00  0.00    -0.203 F 
ATOM     13  C   UNL     1       9.098   2.580  -1.781  0.00  0.00    +0.040 A 
ATOM     14  C   UNL     1       8.389   3.450  -2.601  0.00  0.00    +0.004 A 
ATOM     15  C   UNL     1       7.076   3.137  -2.960  0.00  0.00    +0.022 A 
ATOM     16  C   UNL     1       6.470   1.972  -2.473  0.00  0.00    +0.065 A 
ATOM     17 CL   UNL     1       4.924   1.577  -3.157  0.00  0.00    -0.082 Cl
ENDBRANCH   8  10
ENDBRANCH   5   8
BRANCH   4  18
ATOM     18  C   UNL     1       5.190  -2.535  -0.501  0.00  0.00    +0.157 C 
BRANCH  18  19
ATOM     19  C   UNL     1       5.720  -2.850  -1.882  0.00  0.00    +0.309 C 
ATOM     20  O   UNL     1       6.260  -3.923  -2.126  0.00  0.00    -0.251 OA
BRANCH  19  21
ATOM     21  O   UNL     1       5.573  -1.918  -2.841  0.00  0.00    -0.480 OA
ATOM     22  H   UNL     1       5.238  -1.054  -2.523  0.00  0.00    +0.295 HD
ENDBRANCH  19  21
ENDBRANCH  18  19
ENDBRANCH   4  18
TORSDOF 5
