REMARK  Name = 
REMARK  6 active torsions:
REMARK  status: ('A' for Active; 'I' for Inactive)
REMARK    1  A    between atoms: O_1  and  C_2
REMARK    2  A    between atoms: C_2  and  C_4
REMARK    3  A    between atoms: C_9  and  O_10
REMARK    4  A    between atoms: O_10  and  C_11
REMARK    5  A    between atoms: C_11  and  C_13
REMARK    6  A    between atoms: C_18  and  O_19
REMARK                            x       y       z     vdW  Elec       q    Type
REMARK                         _______ _______ _______ _____ _____    ______ ____
ROOT
ATOM      1  O   UNL     1       1.816  -2.406   0.301  0.00  0.00    -0.421 OA
ENDROOT
BRANCH   1   3
ATOM      2  C   UNL     1       3.317  -2.578   2.189  0.00  0.00    +0.101 A 
ATOM      3  C   UNL     1       2.947  -1.942   0.998  0.00  0.00    +0.146 A 
ATOM      4  C   UNL     1       3.590  -0.763   0.596  0.00  0.00    +0.047 A 
ATOM      5  C   UNL     1       4.627  -0.235   1.364  0.00  0.00    +0.004 A 
ATOM      6  C   UNL     1       5.007  -0.865   2.546  0.00  0.00    +0.001 A 
ATOM      7  C   UNL     1       4.352  -2.027   2.961  0.00  0.00    +0.018 A 
BRANCH   2   8
ATOM      8  C   UNL     1       2.651  -3.795   2.726  0.00  0.00    +0.340 C 
ATOM      9  O   UNL     1       2.583  -4.028   3.922  0.00  0.00    -0.245 OA
BRANCH   8  10
ATOM     10  O   UNL     1       2.209  -4.655   1.787  0.00  0.00    -0.477 OA
ATOM     11  H   UNL     1       2.330  -4.344   0.869  0.00  0.00    +0.295 HD
ENDBRANCH   8  10
ENDBRANCH   2   8
ENDBRANCH   1   3
BRANCH   1  12
ATOM     12  C   UNL     1       1.803  -2.223  -1.070  0.00  0.00    +0.348 C 
ATOM     13  O   UNL     1       2.703  -2.552  -1.828  0.00  0.00    -0.244 OA
BRANCH  12  14
ATOM     14  C   UNL     1       0.635  -1.392  -1.464  0.00  0.00    +0.101 A 
ATOM     15  C   UNL     1      -0.547  -1.310  -0.718  0.00  0.00    +0.131 A 
ATOM     16  C   UNL     1      -1.528  -0.375  -1.053  0.00  0.00    +0.046 A 
ATOM     17  C   UNL     1      -1.340   0.471  -2.147  0.00  0.00    +0.004 A 
ATOM     18  C   UNL     1      -0.189   0.364  -2.926  0.00  0.00    +0.001 A 
ATOM     19  C   UNL     1       0.794  -0.568  -2.591  0.00  0.00    +0.018 A 
BRANCH  15  20
ATOM     20  O   UNL     1      -0.759  -2.146   0.340  0.00  0.00    -0.506 OA
ATOM     21  H   UNL     1      -1.573  -1.893   0.808  0.00  0.00    +0.292 HD
ENDBRANCH  15  20
ENDBRANCH  12  14
ENDBRANCH   1  12
TORSDOF 6
