REMARK  Name = 
REMARK  5 active torsions:
REMARK  status: ('A' for Active; 'I' for Inactive)
REMARK    1  A    between atoms: O_1  and  P_2
REMARK    2  A    between atoms: P_2  and  O_3
REMARK    3  A    between atoms: P_2  and  O_5
REMARK    4  A    between atoms: O_5  and  C_6
REMARK    5  A    between atoms: C_7  and  C_8
REMARK                            x       y       z     vdW  Elec       q    Type
REMARK                         _______ _______ _______ _____ _____    ______ ____
ROOT
ATOM      1  C   UNL     1       5.098   1.213   0.539  0.00  0.00    +0.142 A 
ATOM      2  C   UNL     1       6.345   0.955   1.118  0.00  0.00    +0.047 A 
ATOM      3  C   UNL     1       7.159   1.998   1.572  0.00  0.00    +0.004 A 
ATOM      4  C   UNL     1       6.734   3.318   1.457  0.00  0.00    +0.001 A 
ATOM      5  C   UNL     1       5.491   3.594   0.896  0.00  0.00    +0.015 A 
ATOM      6  C   UNL     1       4.666   2.547   0.447  0.00  0.00    +0.056 A 
ENDROOT
BRANCH   6   7
ATOM      7  C   UNL     1       3.358   2.979  -0.071  0.00  0.00    +0.262 C 
ATOM      8  O   UNL     1       2.377   2.248  -0.017  0.00  0.00    -0.296 OA
ENDBRANCH   6   7
BRANCH   1   9
ATOM      9  O   UNL     1       4.466   0.083   0.055  0.00  0.00    -0.403 OA
BRANCH   9  10
ATOM     10  P   UNL     1       3.364   0.188  -1.274  0.00  0.00    +0.528 P 
ATOM     11  O   UNL     1       4.372   0.930  -2.169  0.00  0.00    -0.216 OA
BRANCH  10  12
ATOM     12  O   UNL     1       2.262   0.292  -2.603  0.00  0.00    -0.293 OA
ATOM     13  H   UNL     1       2.840   0.352  -3.386  0.00  0.00    +0.223 HD
ENDBRANCH  10  12
BRANCH  10  14
ATOM     14  O   UNL     1       3.663  -1.371  -1.669  0.00  0.00    -0.293 OA
ATOM     15  H   UNL     1       4.467  -1.376  -2.222  0.00  0.00    +0.223 HD
ENDBRANCH  10  14
ENDBRANCH   9  10
ENDBRANCH   1   9
TORSDOF 5
