REMARK  Name = 
REMARK  8 active torsions:
REMARK  status: ('A' for Active; 'I' for Inactive)
REMARK    1  A    between atoms: N_13  and  C_14
REMARK    2  A    between atoms: C_14  and  C_15
REMARK    3  A    between atoms: C_15  and  C_16
REMARK    4  A    between atoms: C_16  and  N_17
REMARK    5  A    between atoms: N_17  and  S_18
REMARK    6  A    between atoms: S_18  and  C_21
REMARK    7  A    between atoms: C_21  and  C_22
REMARK    8  A    between atoms: C_21  and  C_23
REMARK                            x       y       z     vdW  Elec       q    Type
REMARK                         _______ _______ _______ _____ _____    ______ ____
ROOT
ATOM      1  C   UNL     1       1.870   0.147  -0.667  0.00  0.00    +0.105 C 
ATOM      2  C   UNL     1       2.539  -1.388   0.180  0.00  0.00    +0.048 A 
ATOM      3  N   UNL     1       2.081  -2.673  -0.004  0.00  0.00    -0.342 N 
ATOM      4  C   UNL     1       2.918  -3.547   0.685  0.00  0.00    +0.050 A 
ATOM      5  C   UNL     1       2.953  -4.951   0.725  0.00  0.00    +0.026 A 
ATOM      6  C   UNL     1       3.897  -5.601   1.522  0.00  0.00    +0.002 A 
ATOM      7  C   UNL     1       4.823  -4.878   2.257  0.00  0.00    +0.001 A 
ATOM      8  C   UNL     1       4.824  -3.483   2.206  0.00  0.00    +0.011 A 
ATOM      9  C   UNL     1       3.876  -2.799   1.417  0.00  0.00    +0.011 A 
ATOM     10  C   UNL     1       3.675  -1.417   1.141  0.00  0.00    +0.049 A 
ATOM     11  C   UNL     1       4.587  -0.056   1.717  0.00  0.00    +0.179 C 
ATOM     12  O   UNL     1       5.553  -0.225   2.459  0.00  0.00    -0.291 OA
ATOM     13  C   UNL     1       4.084   1.708   1.139  0.00  0.00    +0.164 C 
ATOM     14  N   UNL     1       2.536   1.658   0.141  0.00  0.00    -0.287 NA
ATOM     15  C   UNL     1       2.657   0.608   0.949  0.00  0.00    +0.085 C 
ATOM     16  C   UNL     1       4.025   0.383  -0.545  0.00  0.00    +0.015 C 
ATOM     17  C   UNL     1       3.714  -0.264  -1.919  0.00  0.00    +0.003 C 
ATOM     18  C   UNL     1       2.277   0.030  -2.111  0.00  0.00    +0.025 C 
ENDROOT
BRANCH   3  19
ATOM     19  C   UNL     1       0.984  -2.992  -0.906  0.00  0.00    +0.123 C 
BRANCH  19  20
ATOM     20  C   UNL     1       0.028  -4.150  -0.606  0.00  0.00    +0.038 C 
BRANCH  20  21
ATOM     21  C   UNL     1      -0.620  -4.112   0.774  0.00  0.00    +0.107 C 
BRANCH  21  22
ATOM     22  N   UNL     1      -1.477  -2.917   0.890  0.00  0.00    -0.194 NA
ATOM     23  H   UNL     1      -2.155  -2.810   0.131  0.00  0.00    +0.148 HD
BRANCH  22  24
ATOM     24  S   UNL     1      -2.326  -2.734   2.341  0.00  0.00    +0.032 S 
ATOM     25  O   UNL     1      -2.917  -4.023   2.632  0.00  0.00    -0.158 OA
ATOM     26  O   UNL     1      -3.148  -1.559   2.159  0.00  0.00    -0.158 OA
BRANCH  24  27
ATOM     27  C   UNL     1      -1.030  -2.389   3.551  0.00  0.00    +0.142 C 
ATOM     28  C   UNL     1      -1.651  -2.240   4.935  0.00  0.00    +0.033 C 
ATOM     29  C   UNL     1      -0.224  -1.157   3.172  0.00  0.00    +0.033 C 
ENDBRANCH  24  27
ENDBRANCH  22  24
ENDBRANCH  21  22
ENDBRANCH  20  21
ENDBRANCH  19  20
ENDBRANCH   3  19
TORSDOF 6
