REMARK  Name = 
REMARK  23 active torsions:
REMARK  status: ('A' for Active; 'I' for Inactive)
REMARK    1  A    between atoms: C_1  and  C_2
REMARK    2  A    between atoms: C_2  and  C_3
REMARK    3  A    between atoms: C_2  and  C_4
REMARK    4  A    between atoms: C_4  and  C_6
REMARK    5  A    between atoms: C_7  and  O_8
REMARK    6  A    between atoms: C_9  and  C_10
REMARK    7  A    between atoms: C_10  and  C_11
REMARK    8  A    between atoms: C_12  and  C_13
REMARK    9  A    between atoms: C_12  and  C_14
REMARK   10  A    between atoms: C_17  and  C_18
REMARK   11  A    between atoms: C_18  and  C_19
REMARK   12  A    between atoms: C_20  and  C_21
REMARK   13  A    between atoms: C_20  and  C_22
REMARK   14  A    between atoms: C_24  and  C_25
REMARK   15  A    between atoms: C_25  and  C_26
REMARK   16  A    between atoms: C_27  and  C_28
REMARK   17  A    between atoms: C_27  and  C_29
REMARK   18  A    between atoms: C_30  and  C_31
REMARK   19  A    between atoms: C_30  and  C_32
REMARK   20  A    between atoms: C_32  and  C_33
REMARK   21  A    between atoms: C_33  and  C_34
REMARK   22  A    between atoms: C_35  and  C_36
REMARK   23  A    between atoms: C_35  and  C_37
REMARK                            x       y       z     vdW  Elec       q    Type
REMARK                         _______ _______ _______ _____ _____    ______ ____
ROOT
ATOM      1  C   UNL     1       4.802  -0.111  -1.724  0.00  0.00    +0.150 C 
ATOM      2  C   UNL     1       5.892  -1.203  -1.833  0.00  0.00    +0.168 C 
ATOM      3  O   UNL     1       7.089  -0.914  -2.008  0.00  0.00    -0.295 OA
ATOM      4  C   UNL     1       5.494  -2.647  -1.562  0.00  0.00    +0.096 C 
ATOM      5  C   UNL     1       4.027  -2.715  -1.970  0.00  0.00    +0.027 C 
ATOM      6  C   UNL     1       3.752  -1.947  -3.304  0.00  0.00    +0.002 C 
ATOM      7  C   UNL     1       5.819  -2.612  -0.063  0.00  0.00    +0.176 C 
ATOM      8  O   UNL     1       6.138  -3.609   0.580  0.00  0.00    -0.291 OA
ATOM      9  C   UNL     1       5.828  -1.220   0.559  0.00  0.00    +0.038 C 
ATOM     10  C   UNL     1       4.514  -0.546  -3.328  0.00  0.00    -0.002 C 
ATOM     11  C   UNL     1       5.824  -0.794  -4.286  0.00  0.00    +0.013 C 
ATOM     12  C   UNL     1       5.379  -0.162  -0.198  0.00  0.00    +0.122 C 
ENDROOT
BRANCH   1  13
ATOM     13  C   UNL     1       3.365   0.279  -1.083  0.00  0.00    +0.157 C 
ATOM     14  O   UNL     1       3.193   1.511  -0.940  0.00  0.00    -0.296 OA
BRANCH  13  16
ATOM     15  C   UNL     1       2.375  -0.758   1.076  0.00  0.00    +0.015 C 
ATOM     16  C   UNL     1       2.222  -0.618  -0.435  0.00  0.00    +0.051 C 
ATOM     17  C   UNL     1       0.764  -0.129  -0.669  0.00  0.00    +0.015 C 
ENDBRANCH  13  16
ENDBRANCH   1  13
BRANCH  12  18
ATOM     18  O   UNL     1       5.462   1.106   0.414  0.00  0.00    -0.509 OA
ATOM     19  H   UNL     1       4.810   1.724   0.011  0.00  0.00    +0.292 HD
ENDBRANCH  12  18
BRANCH   6  20
ATOM     20  C   UNL     1       2.280  -1.825  -3.686  0.00  0.00    +0.031 C 
BRANCH  20  21
ATOM     21  C   UNL     1       1.370  -3.000  -3.641  0.00  0.00    -0.028 C 
ATOM     22  C   UNL     1       0.053  -2.899  -3.897  0.00  0.00    -0.080 C 
ATOM     23  C   UNL     1      -0.840  -4.095  -3.844  0.00  0.00    +0.038 C 
ATOM     24  C   UNL     1      -0.660  -1.613  -4.269  0.00  0.00    +0.038 C 
ENDBRANCH  20  21
ENDBRANCH   6  20
BRANCH   4  25
ATOM     25  C   UNL     1       6.182  -3.831  -2.284  0.00  0.00    +0.049 C 
BRANCH  25  26
ATOM     26  C   UNL     1       5.580  -5.157  -1.812  0.00  0.00    -0.027 C 
ATOM     27  C   UNL     1       5.662  -6.388  -2.344  0.00  0.00    -0.080 C 
ATOM     28  C   UNL     1       4.941  -7.546  -1.694  0.00  0.00    +0.038 C 
ATOM     29  C   UNL     1       6.473  -6.739  -3.549  0.00  0.00    +0.038 C 
ENDBRANCH  25  26
ENDBRANCH   4  25
BRANCH   9  30
ATOM     30  C   UNL     1       6.602  -1.074   1.847  0.00  0.00    +0.069 C 
BRANCH  30  31
ATOM     31  C   UNL     1       6.148  -2.013   2.926  0.00  0.00    -0.023 C 
ATOM     32  C   UNL     1       6.949  -2.713   3.753  0.00  0.00    -0.079 C 
ATOM     33  C   UNL     1       6.376  -3.800   4.617  0.00  0.00    +0.038 C 
ATOM     34  C   UNL     1       8.440  -2.538   3.863  0.00  0.00    +0.038 C 
ENDBRANCH  30  31
ENDBRANCH   9  30
BRANCH  10  35
ATOM     35  C   UNL     1       3.926   0.646  -4.213  0.00  0.00    +0.013 C 
BRANCH  35  36
ATOM     36  C   UNL     1       2.530   1.196  -4.006  0.00  0.00    +0.028 C 
BRANCH  36  37
ATOM     37  C   UNL     1       2.115   2.332  -4.880  0.00  0.00    -0.028 C 
ATOM     38  C   UNL     1       2.185   3.621  -4.510  0.00  0.00    -0.080 C 
ATOM     39  C   UNL     1       1.280   4.626  -5.154  0.00  0.00    +0.038 C 
ATOM     40  C   UNL     1       3.046   4.127  -3.387  0.00  0.00    +0.038 C 
ENDBRANCH  36  37
ENDBRANCH  35  36
ENDBRANCH  10  35
TORSDOF 12
