REMARK  Name = 
REMARK  8 active torsions:
REMARK  status: ('A' for Active; 'I' for Inactive)
REMARK    1  A    between atoms: C_1  and  N_2
REMARK    2  A    between atoms: N_2  and  C_3
REMARK    3  A    between atoms: C_7  and  O_16
REMARK    4  A    between atoms: O_16  and  C_17
REMARK    5  A    between atoms: C_17  and  C_19
REMARK    6  A    between atoms: C_19  and  O_20
REMARK    7  A    between atoms: C_19  and  C_21
REMARK    8  A    between atoms: C_19  and  C_26
REMARK                            x       y       z     vdW  Elec       q    Type
REMARK                         _______ _______ _______ _____ _____    ______ ____
ROOT
ATOM      1  C   UNL     1       7.410   1.135  -1.545  0.00  0.00    +0.350 C 
ATOM      2  O   UNL     1       6.985   1.731  -2.533  0.00  0.00    -0.247 OA
ENDROOT
BRANCH   1   3
ATOM      3  O   UNL     1       6.612   0.308  -0.776  0.00  0.00    -0.458 OA
BRANCH   3  11
ATOM      4  C   UNL     1       1.035  -0.045   0.195  0.00  0.00    +0.193 C 
ATOM      5  N   UNL     1       2.567   0.037   0.026  0.00  0.00    +0.247 N 
ATOM      6  C   UNL     1       3.074  -1.111  -0.892  0.00  0.00    +0.102 C 
ATOM      7  C   UNL     1       2.536  -0.744  -2.272  0.00  0.00    +0.201 C 
ATOM      8  C   UNL     1       2.446   0.774  -2.287  0.00  0.00    +0.201 C 
ATOM      9  O   UNL     1       3.315   0.054  -3.153  0.00  0.00    -0.357 OA
ATOM     10  C   UNL     1       4.621  -1.134  -0.843  0.00  0.00    +0.102 C 
ATOM     11  C   UNL     1       5.262   0.202  -1.274  0.00  0.00    +0.187 C 
ATOM     12  C   UNL     1       4.444   1.446  -0.865  0.00  0.00    +0.102 C 
ATOM     13  C   UNL     1       2.924   1.226  -0.912  0.00  0.00    +0.102 C 
ATOM     14  C   UNL     1       3.136   0.076   1.431  0.00  0.00    +0.193 C 
ENDBRANCH   3  11
ENDBRANCH   1   3
BRANCH   1  15
ATOM     15  C   UNL     1       8.885   1.179  -1.032  0.00  0.00    +0.226 C 
BRANCH  15  16
ATOM     16  C   UNL     1       9.167   2.608  -0.564  0.00  0.00    +0.037 A 
ATOM     17  S   UNL     1       8.987   3.969  -1.614  0.00  0.00    -0.098 S 
ATOM     18  C   UNL     1       9.256   5.085  -0.352  0.00  0.00    +0.045 A 
ATOM     19  C   UNL     1       9.539   4.459   0.837  0.00  0.00    +0.008 A 
ATOM     20  C   UNL     1       9.510   3.041   0.710  0.00  0.00    +0.015 A 
ENDBRANCH  15  16
BRANCH  15  21
ATOM     21  C   UNL     1       9.777   0.610  -2.133  0.00  0.00    +0.037 A 
ATOM     22  S   UNL     1       9.492  -1.018  -2.665  0.00  0.00    -0.098 S 
ATOM     23  C   UNL     1      10.712  -0.932  -3.849  0.00  0.00    +0.045 A 
ATOM     24  C   UNL     1      11.359   0.282  -3.834  0.00  0.00    +0.008 A 
ATOM     25  C   UNL     1      10.836   1.161  -2.837  0.00  0.00    +0.015 A 
ENDBRANCH  15  21
BRANCH  15  26
ATOM     26  O   UNL     1       9.099   0.346   0.116  0.00  0.00    -0.369 OA
ATOM     27  H   UNL     1       9.081  -0.571  -0.208  0.00  0.00    +0.212 HD
ENDBRANCH  15  26
ENDBRANCH   1  15
TORSDOF 6
