REMARK  Name = 
REMARK  5 active torsions:
REMARK  status: ('A' for Active; 'I' for Inactive)
REMARK    1  A    between atoms: C_2  and  C_3
REMARK    2  A    between atoms: C_3  and  N_4
REMARK    3  A    between atoms: N_4  and  P_5
REMARK    4  A    between atoms: N_11  and  C_12
REMARK    5  A    between atoms: C_12  and  C_13
REMARK                            x       y       z     vdW  Elec       q    Type
REMARK                         _______ _______ _______ _____ _____    ______ ____
ROOT
ATOM      1  P   UNL     1       5.289  -2.301   1.179  0.00  0.00    +0.346 P 
ATOM      2  N   UNL     1       6.614  -3.085   0.583  0.00  0.00    -0.218 NA
ATOM      3  C   UNL     1       7.731  -3.054   1.545  0.00  0.00    +0.097 C 
ATOM      4  C   UNL     1       8.128  -1.626   1.937  0.00  0.00    +0.044 C 
ATOM      5  C   UNL     1       6.944  -0.873   2.528  0.00  0.00    +0.171 C 
ATOM      6  O   UNL     1       5.874  -0.853   1.595  0.00  0.00    -0.305 OA
ATOM      7  O   UNL     1       4.650  -2.950   2.367  0.00  0.00    -0.254 OA
ENDROOT
BRANCH   1   8
ATOM      8  N   UNL     1       4.240  -1.944  -0.017  0.00  0.00    -0.231 NA
ATOM      9  H   UNL     1       3.607  -1.219   0.307  0.00  0.00    +0.133 HD
BRANCH   8  10
ATOM     10  C   UNL     1       3.461  -2.991  -0.672  0.00  0.00    +0.107 C 
BRANCH  10  12
ATOM     11 CL   UNL     1       1.516  -4.888  -0.712  0.00  0.00    -0.124 Cl
ATOM     12  C   UNL     1       2.489  -3.738   0.243  0.00  0.00    +0.124 C 
ENDBRANCH  10  12
ENDBRANCH   8  10
ENDBRANCH   1   8
BRANCH   2  13
ATOM     13  C   UNL     1       7.061  -2.811  -0.794  0.00  0.00    +0.110 C 
BRANCH  13  14
ATOM     14  C   UNL     1       7.997  -3.880  -1.374  0.00  0.00    +0.124 C 
ATOM     15 CL   UNL     1       8.361  -3.533  -3.085  0.00  0.00    -0.124 Cl
ENDBRANCH  13  14
ENDBRANCH   2  13
TORSDOF 5
