REMARK  Name = 
REMARK  7 active torsions:
REMARK  status: ('A' for Active; 'I' for Inactive)
REMARK    1  A    between atoms: C_6  and  N_7
REMARK    2  A    between atoms: N_10  and  C_11
REMARK    3  A    between atoms: C_11  and  C_12
REMARK    4  A    between atoms: C_12  and  C_13
REMARK    5  A    between atoms: C_13  and  C_14
REMARK    6  A    between atoms: C_14  and  O_15
REMARK    7  A    between atoms: O_15  and  C_16
REMARK                            x       y       z     vdW  Elec       q    Type
REMARK                         _______ _______ _______ _____ _____    ______ ____
ROOT
ATOM      1  C   UNL     1       9.163  -5.178  -1.346  0.00  0.00    +0.019 C 
ENDROOT
BRANCH   1   2
ATOM      2  C   UNL     1       8.023  -4.935  -0.339  0.00  0.00    +0.084 C 
BRANCH   2   6
ATOM      3  N   UNL     1       5.596  -2.303  -0.073  0.00  0.00    -0.326 N 
ATOM      4  C   UNL     1       5.668  -3.420   0.890  0.00  0.00    +0.120 C 
ATOM      5  C   UNL     1       7.102  -3.565   1.456  0.00  0.00    +0.103 C 
ATOM      6  N   UNL     1       8.161  -3.684   0.424  0.00  0.00    -0.299 NA
ATOM      7  C   UNL     1       8.056  -2.486  -0.440  0.00  0.00    +0.103 C 
ATOM      8  C   UNL     1       6.668  -2.266  -1.084  0.00  0.00    +0.120 C 
BRANCH   3  13
ATOM      9 CL   UNL     1       2.367   1.104  -2.465  0.00  0.00    -0.082 Cl
ATOM     10  C   UNL     1       3.014   0.247  -1.103  0.00  0.00    +0.061 A 
ATOM     11  C   UNL     1       3.987  -0.769  -1.229  0.00  0.00    +0.080 A 
ATOM     12 CL   UNL     1       4.379  -1.314  -2.843  0.00  0.00    -0.080 Cl
ATOM     13  C   UNL     1       4.546  -1.389  -0.076  0.00  0.00    +0.050 A 
ATOM     14  C   UNL     1       4.007  -0.985   1.167  0.00  0.00    +0.025 A 
ATOM     15  C   UNL     1       3.008  -0.017   1.284  0.00  0.00    +0.003 A 
ATOM     16  C   UNL     1       2.528   0.616   0.150  0.00  0.00    +0.021 A 
ENDBRANCH   3  13
ENDBRANCH   2   6
ENDBRANCH   1   2
BRANCH   1  17
ATOM     17  C   UNL     1      10.568  -5.149  -0.735  0.00  0.00    +0.042 C 
BRANCH  17  18
ATOM     18  C   UNL     1      10.703  -6.204   0.352  0.00  0.00    +0.229 C 
BRANCH  18  19
ATOM     19  O   UNL     1      12.027  -6.214   0.881  0.00  0.00    -0.492 OA
BRANCH  19  20
ATOM     20  C   UNL     1      12.200  -7.090   1.921  0.00  0.00    +0.122 A 
ATOM     21  C   UNL     1      11.186  -7.523   2.784  0.00  0.00    +0.046 A 
ATOM     22  C   UNL     1      11.462  -8.423   3.816  0.00  0.00    +0.009 A 
ATOM     23  C   UNL     1      12.760  -8.895   3.995  0.00  0.00    -0.025 A 
ATOM     24  C   UNL     1      13.089  -9.783   5.157  0.00  0.00    +0.046 C 
ATOM     25  C   UNL     1      14.340 -10.604   4.902  0.00  0.00    +0.101 C 
ATOM     26  C   UNL     1      15.459  -9.780   4.309  0.00  0.00    +0.218 C 
ATOM     27  N   UNL     1      15.098  -8.835   3.391  0.00  0.00    -0.285 N 
ATOM     28  H   UNL     1      15.858  -8.381   2.899  0.00  0.00    +0.155 HD
ATOM     29  O   UNL     1      16.640 -10.015   4.548  0.00  0.00    -0.275 OA
ATOM     30  C   UNL     1      13.781  -8.429   3.158  0.00  0.00    +0.040 A 
ATOM     31  C   UNL     1      13.505  -7.532   2.122  0.00  0.00    +0.069 A 
ENDBRANCH  19  20
ENDBRANCH  18  19
ENDBRANCH  17  18
ENDBRANCH   1  17
TORSDOF 7
