REMARK  Name = 
REMARK  4 active torsions:
REMARK  status: ('A' for Active; 'I' for Inactive)
REMARK    1  A    between atoms: C_2  and  O_3
REMARK    2  A    between atoms: O_3  and  C_4
REMARK    3  A    between atoms: C_4  and  C_5
REMARK    4  A    between atoms: C_4  and  C_9
REMARK                            x       y       z     vdW  Elec       q    Type
REMARK                         _______ _______ _______ _____ _____    ______ ____
ROOT
ATOM      1  C   UNL     1       4.092   1.353  -0.025  0.00  0.00    +0.328 C 
ENDROOT
BRANCH   1   2
ATOM      2  C   UNL     1       4.565   2.790   0.054  0.00  0.00    +0.424 C 
ATOM      3  F   UNL     1       4.782   3.362  -1.149  0.00  0.00    -0.168 F 
ATOM      4  F   UNL     1       5.715   2.864   0.766  0.00  0.00    -0.168 F 
ATOM      5  F   UNL     1       3.665   3.563   0.704  0.00  0.00    -0.168 F 
ENDBRANCH   1   2
BRANCH   1   6
ATOM      6  C   UNL     1       4.856   0.666  -1.146  0.00  0.00    +0.424 C 
ATOM      7  F   UNL     1       5.175  -0.599  -0.783  0.00  0.00    -0.168 F 
ATOM      8  F   UNL     1       6.012   1.273  -1.494  0.00  0.00    -0.168 F 
ATOM      9  F   UNL     1       4.102   0.565  -2.269  0.00  0.00    -0.168 F 
ENDBRANCH   1   6
BRANCH   1  10
ATOM     10  O   UNL     1       2.652   1.282  -0.164  0.00  0.00    -0.329 OA
BRANCH  10  12
ATOM     11  F   UNL     1       2.707  -0.565   1.101  0.00  0.00    -0.218 F 
ATOM     12  C   UNL     1       2.146  -0.027  -0.010  0.00  0.00    +0.376 C 
ENDBRANCH  10  12
ENDBRANCH   1  10
TORSDOF 4
