REMARK  Name = 
REMARK  6 active torsions:
REMARK  status: ('A' for Active; 'I' for Inactive)
REMARK    1  A    between atoms: C_1  and  N_2
REMARK    2  A    between atoms: N_2  and  C_3
REMARK    3  A    between atoms: N_2  and  C_4
REMARK    4  A    between atoms: C_4  and  C_5
REMARK    5  A    between atoms: C_5  and  C_6
REMARK    6  A    between atoms: C_12  and  O_13
REMARK                            x       y       z     vdW  Elec       q    Type
REMARK                         _______ _______ _______ _____ _____    ______ ____
ROOT
ATOM      1  C   UNL     1       4.957  -1.710   2.389  0.00  0.00    -0.021 A 
ATOM      2  C   UNL     1       4.787  -3.128   2.484  0.00  0.00    +0.006 A 
ATOM      3  C   UNL     1       4.260  -4.111   1.619  0.00  0.00    +0.055 A 
ATOM      4  C   UNL     1       4.215  -5.436   2.056  0.00  0.00    +0.118 A 
ATOM      5  C   UNL     1       4.670  -5.802   3.316  0.00  0.00    +0.047 A 
ATOM      6  C   UNL     1       5.202  -4.847   4.186  0.00  0.00    +0.030 A 
ATOM      7  C   UNL     1       5.251  -3.521   3.740  0.00  0.00    +0.047 A 
ATOM      8  N   UNL     1       5.719  -2.393   4.370  0.00  0.00    -0.360 N 
ATOM      9  H   UNL     1       6.119  -2.379   5.298  0.00  0.00    +0.165 HD
ATOM     10  C   UNL     1       5.547  -1.297   3.569  0.00  0.00    +0.087 A 
ENDROOT
BRANCH   4  11
ATOM     11  O   UNL     1       3.714  -6.422   1.254  0.00  0.00    -0.507 OA
ATOM     12  H   UNL     1       3.452  -6.024   0.408  0.00  0.00    +0.292 HD
ENDBRANCH   4  11
BRANCH   1  13
ATOM     13  C   UNL     1       4.542  -0.829   1.250  0.00  0.00    +0.052 C 
BRANCH  13  14
ATOM     14  C   UNL     1       3.087  -0.354   1.418  0.00  0.00    +0.088 C 
BRANCH  14  16
ATOM     15  C   UNL     1       1.168   0.820   0.580  0.00  0.00    +0.104 C 
ATOM     16  N   UNL     1       2.573   0.488   0.318  0.00  0.00    -0.308 NA
ATOM     17  C   UNL     1       3.347   1.721   0.162  0.00  0.00    +0.104 C 
ENDBRANCH  14  16
ENDBRANCH  13  14
ENDBRANCH   1  13
TORSDOF 4
