REMARK  Name = 
REMARK  4 active torsions:
REMARK  status: ('A' for Active; 'I' for Inactive)
REMARK    1  A    between atoms: O_2  and  C_3
REMARK    2  A    between atoms: C_8  and  C_9
REMARK    3  A    between atoms: O_12  and  C_13
REMARK    4  A    between atoms: C_18  and  C_19
REMARK                            x       y       z     vdW  Elec       q    Type
REMARK                         _______ _______ _______ _____ _____    ______ ____
ROOT
ATOM      1 MG   UNL     1       0.612  -2.315  -0.241  0.00  0.00    +0.000 Mg
ENDROOT
TORSDOF 0
REMARK  Name = 
REMARK  4 active torsions:
REMARK  status: ('A' for Active; 'I' for Inactive)
REMARK    1  A    between atoms: O_2  and  C_3
REMARK    2  A    between atoms: C_8  and  C_9
REMARK    3  A    between atoms: O_12  and  C_13
REMARK    4  A    between atoms: C_18  and  C_19
REMARK                            x       y       z     vdW  Elec       q    Type
REMARK                         _______ _______ _______ _____ _____    ______ ____
ROOT
ATOM      1  C   UNL     1       2.716  -0.605  -1.685  0.00  0.00    +0.126 A 
ATOM      2  C   UNL     1       3.360  -1.854  -1.748  0.00  0.00    +0.039 A 
ATOM      3  C   UNL     1       4.765  -1.865  -1.689  0.00  0.00    +0.013 A 
ATOM      4  C   UNL     1       5.505  -0.681  -1.667  0.00  0.00    +0.001 A 
ATOM      5  C   UNL     1       4.850   0.543  -1.745  0.00  0.00    +0.004 A 
ATOM      6  C   UNL     1       3.456   0.584  -1.744  0.00  0.00    +0.046 A 
ENDROOT
BRANCH   2   7
ATOM      7  C   UNL     1       2.632  -3.163  -1.861  0.00  0.00    +0.075 C 
ATOM      8  O   UNL     1       3.237  -4.193  -2.244  0.00  0.00    -0.545 OA
ATOM      9  O   UNL     1       1.403  -3.153  -1.463  0.00  0.00    -0.545 OA
ENDBRANCH   2   7
BRANCH   1  10
ATOM     10  O   UNL     1       1.355  -0.519  -1.477  0.00  0.00    -0.506 OA
ATOM     11  H   UNL     1       1.168   0.445  -1.422  0.00  0.00    +0.292 HD
ENDBRANCH   1  10
TORSDOF 2
REMARK  Name = 
REMARK  4 active torsions:
REMARK  status: ('A' for Active; 'I' for Inactive)
REMARK    1  A    between atoms: O_2  and  C_3
REMARK    2  A    between atoms: C_8  and  C_9
REMARK    3  A    between atoms: O_12  and  C_13
REMARK    4  A    between atoms: C_18  and  C_19
REMARK                            x       y       z     vdW  Elec       q    Type
REMARK                         _______ _______ _______ _____ _____    ______ ____
ROOT
ATOM      1  C   UNL     1       2.024   0.888   1.566  0.00  0.00    +0.000 A 
ATOM      2  C   UNL     1       2.651  -0.324   1.878  0.00  0.00    +0.000 A 
ATOM      3  C   UNL     1       4.058  -0.332   1.963  0.00  0.00    +0.000 A 
ATOM      4  C   UNL     1       4.799   0.836   1.767  0.00  0.00    +0.000 A 
ATOM      5  C   UNL     1       4.147   2.038   1.503  0.00  0.00    +0.000 A 
ATOM      6  C   UNL     1       2.757   2.067   1.405  0.00  0.00    +0.000 A 
ENDROOT
BRANCH   2   7
ATOM      7  C   UNL     1       1.908  -1.606   2.042  0.00  0.00    +0.000 C 
ATOM      8  O   UNL     1       2.422  -2.574   2.659  0.00  0.00    -0.500 OA
ATOM      9  O   UNL     1       0.839  -1.766   1.329  0.00  0.00    -0.500 OA
ENDBRANCH   2   7
BRANCH   1  10
ATOM     10  O   UNL     1       0.675   0.940   1.343  0.00  0.00    +0.000 OA
ATOM     11  H   UNL     1       0.366   1.797   1.695  0.00  0.00    +0.000 HD
ENDBRANCH   1  10
TORSDOF 2
