REMARK  Name = 
REMARK  14 active torsions:
REMARK  status: ('A' for Active; 'I' for Inactive)
REMARK    1  A    between atoms: C_4  and  O_6
REMARK    2  A    between atoms: C_7  and  C_9
REMARK    3  A    between atoms: C_10  and  C_11
REMARK    4  A    between atoms: C_11  and  O_13
REMARK    5  A    between atoms: C_11  and  C_14
REMARK    6  A    between atoms: C_14  and  C_15
REMARK    7  A    between atoms: C_14  and  C_16
REMARK    8  A    between atoms: C_16  and  C_17
REMARK    9  A    between atoms: C_18  and  C_19
REMARK   10  A    between atoms: C_25  and  C_26
REMARK   11  A    between atoms: C_26  and  C_27
REMARK   12  A    between atoms: C_27  and  C_28
REMARK   13  A    between atoms: C_28  and  C_29
REMARK   14  A    between atoms: C_29  and  O_30
REMARK                            x       y       z     vdW  Elec       q    Type
REMARK                         _______ _______ _______ _____ _____    ______ ____
ROOT
ATOM      1  C   UNL     1       2.209   0.163   0.048  0.00  0.00    -0.001 C 
ATOM      2  C   UNL     1       2.585  -0.335   1.438  0.00  0.00    +0.034 C 
ATOM      3  C   UNL     1       2.781  -1.811   1.236  0.00  0.00    -0.073 C 
ATOM      4  C   UNL     1       2.757  -2.723   2.218  0.00  0.00    -0.028 C 
ATOM      5  C   UNL     1       2.954  -2.130  -0.228  0.00  0.00    +0.035 C 
ATOM      6  C   UNL     1       2.942  -0.764  -0.918  0.00  0.00    +0.006 C 
ATOM      7  C   UNL     1       4.336  -0.122  -1.106  0.00  0.00    +0.044 C 
ATOM      8  C   UNL     1       4.202   1.347  -0.654  0.00  0.00    +0.122 C 
ATOM      9  C   UNL     1       2.734   1.552  -0.281  0.00  0.00    +0.036 C 
ENDROOT
BRANCH   7  10
ATOM     10  C   UNL     1       4.766  -0.239  -2.548  0.00  0.00    -0.022 C 
ATOM     11  C   UNL     1       5.925  -0.810  -2.909  0.00  0.00    +0.000 C 
BRANCH  11  12
ATOM     12  C   UNL     1       6.321  -1.104  -4.325  0.00  0.00    +0.141 C 
BRANCH  12  13
ATOM     13  C   UNL     1       6.399  -2.622  -4.619  0.00  0.00    +0.030 C 
ATOM     14  C   UNL     1       7.463  -3.338  -3.773  0.00  0.00    +0.011 C 
BRANCH  13  15
ATOM     15  C   UNL     1       5.035  -3.320  -4.445  0.00  0.00    +0.095 C 
BRANCH  15  16
ATOM     16  C   UNL     1       4.021  -2.742  -5.419  0.00  0.00    -0.102 C 
ATOM     17  C   UNL     1       3.151  -2.247  -6.254  0.00  0.00    -0.106 C 
ATOM     18  C   UNL     1       2.176  -1.689  -7.191  0.00  0.00    +0.106 C 
ENDBRANCH  15  16
ENDBRANCH  13  15
ENDBRANCH  12  13
BRANCH  12  19
ATOM     19  O   UNL     1       7.591  -0.502  -4.549  0.00  0.00    -0.387 OA
ATOM     20  H   UNL     1       7.484   0.445  -4.351  0.00  0.00    +0.210 HD
ENDBRANCH  12  19
ENDBRANCH  11  12
ENDBRANCH   7  10
BRANCH   8  21
ATOM     21  O   UNL     1       5.038   1.551   0.486  0.00  0.00    -0.391 OA
ATOM     22  H   UNL     1       4.906   2.464   0.791  0.00  0.00    +0.210 HD
ENDBRANCH   8  21
BRANCH   4  23
ATOM     23  C   UNL     1       2.545  -2.391   3.673  0.00  0.00    +0.027 C 
BRANCH  23  24
ATOM     24  C   UNL     1       1.064  -2.365   4.061  0.00  0.00    +0.015 C 
BRANCH  24  25
ATOM     25  C   UNL     1       0.388  -3.725   3.902  0.00  0.00    +0.121 C 
BRANCH  25  26
ATOM     26  C   UNL     1      -1.069  -3.682   4.294  0.00  0.00    +0.305 C 
ATOM     27  O   UNL     1      -1.670  -2.698   4.693  0.00  0.00    -0.251 OA
BRANCH  26  28
ATOM     28  O   UNL     1      -1.667  -4.888   4.152  0.00  0.00    -0.481 OA
ATOM     29  H   UNL     1      -1.068  -5.583   3.818  0.00  0.00    +0.295 HD
ENDBRANCH  26  28
ENDBRANCH  25  26
ENDBRANCH  24  25
ENDBRANCH  23  24
ENDBRANCH   4  23
TORSDOF 12
