REMARK  Name = 
REMARK  10 active torsions:
REMARK  status: ('A' for Active; 'I' for Inactive)
REMARK    1  A    between atoms: C_1  and  C_2
REMARK    2  A    between atoms: C_2  and  C_3
REMARK    3  A    between atoms: C_3  and  C_4
REMARK    4  A    between atoms: C_4  and  C_5
REMARK    5  A    between atoms: C_5  and  O_6
REMARK    6  A    between atoms: O_6  and  C_7
REMARK    7  A    between atoms: N_14  and  C_18
REMARK    8  A    between atoms: C_21  and  C_23
REMARK    9  A    between atoms: C_24  and  O_26
REMARK   10  A    between atoms: C_27  and  O_29
REMARK                            x       y       z     vdW  Elec       q    Type
REMARK                         _______ _______ _______ _____ _____    ______ ____
ROOT
ATOM      1  C   UNL     1      16.926   3.895   6.434  0.00  0.00    +0.406 C 
ATOM      2  N   UNL     1      16.241   4.903   7.053  0.00  0.00    -0.233 N 
ATOM      3  H   UNL     1      16.591   5.078   7.985  0.00  0.00    +0.160 HD
ATOM      4  C   UNL     1      14.975   5.360   6.770  0.00  0.00    +0.170 A 
ATOM      5  C   UNL     1      14.493   6.302   7.792  0.00  0.00    +0.180 A 
ATOM      6  F   UNL     1      15.327   6.717   8.761  0.00  0.00    -0.200 F 
ATOM      7  C   UNL     1      13.215   6.645   7.703  0.00  0.00    +0.135 A 
ATOM      8  N   UNL     1      12.420   6.140   6.681  0.00  0.00    -0.267 N 
ATOM      9  C   UNL     1      12.998   5.425   5.608  0.00  0.00    +0.352 A 
ATOM     10  O   UNL     1      12.362   5.202   4.587  0.00  0.00    -0.244 OA
ATOM     11  N   UNL     1      14.279   4.961   5.766  0.00  0.00    -0.175 NA
ATOM     12  O   UNL     1      17.647   3.143   7.080  0.00  0.00    -0.226 OA
ENDROOT
BRANCH   8  13
ATOM     13  C   UNL     1      11.037   6.597   6.513  0.00  0.00    +0.255 C 
ATOM     14  C   UNL     1       9.963   5.516   6.244  0.00  0.00    +0.195 C 
ATOM     15  C   UNL     1       9.268   5.308   7.586  0.00  0.00    +0.176 C 
ATOM     16  C   UNL     1       9.729   6.463   8.464  0.00  0.00    +0.149 C 
ATOM     17  C   UNL     1      10.457   5.963   9.709  0.00  0.00    +0.041 C 
ATOM     18  O   UNL     1      10.596   7.307   7.689  0.00  0.00    -0.348 OA
BRANCH  14  19
ATOM     19  O   UNL     1       8.980   5.958   5.282  0.00  0.00    -0.385 OA
ATOM     20  H   UNL     1       8.991   6.929   5.239  0.00  0.00    +0.210 HD
ENDBRANCH  14  19
BRANCH  15  21
ATOM     21  O   UNL     1       7.841   5.339   7.478  0.00  0.00    -0.387 OA
ATOM     22  H   UNL     1       7.635   5.891   6.698  0.00  0.00    +0.210 HD
ENDBRANCH  15  21
ENDBRANCH   8  13
BRANCH   1  23
ATOM     23  O   UNL     1      16.831   3.917   5.084  0.00  0.00    -0.450 OA
BRANCH  23  24
ATOM     24  C   UNL     1      18.080   3.660   4.443  0.00  0.00    +0.234 C 
BRANCH  24  25
ATOM     25  C   UNL     1      18.088   2.353   3.666  0.00  0.00    +0.041 C 
BRANCH  25  26
ATOM     26  C   UNL     1      19.464   2.175   3.023  0.00  0.00    +0.003 C 
BRANCH  26  28
ATOM     27  C   UNL     1      20.958   0.769   1.587  0.00  0.00    +0.004 C 
ATOM     28  C   UNL     1      19.572   0.899   2.199  0.00  0.00    -0.003 C 
ENDBRANCH  26  28
ENDBRANCH  25  26
ENDBRANCH  24  25
ENDBRANCH  23  24
ENDBRANCH   1  23
TORSDOF 8
