REMARK  Name = 
REMARK  11 active torsions:
REMARK  status: ('A' for Active; 'I' for Inactive)
REMARK    1  A    between atoms: C_1  and  C_2
REMARK    2  A    between atoms: C_2  and  O_4
REMARK    3  A    between atoms: C_2  and  C_5
REMARK    4  A    between atoms: C_5  and  O_7
REMARK    5  A    between atoms: C_5  and  C_8
REMARK    6  A    between atoms: C_8  and  O_10
REMARK    7  A    between atoms: C_8  and  C_11
REMARK    8  A    between atoms: C_11  and  O_12
REMARK    9  A    between atoms: O_12  and  P_13
REMARK   10  A    between atoms: P_13  and  O_14
REMARK   11  A    between atoms: P_13  and  O_15
REMARK                            x       y       z     vdW  Elec       q    Type
REMARK                         _______ _______ _______ _____ _____    ______ ____
ROOT
ATOM      1  C   UNL     1       4.576  -0.577  -1.190  0.00  0.00    +0.172 C 
ENDROOT
BRANCH   1   2
ATOM      2  O   UNL     1       5.124  -1.369  -0.121  0.00  0.00    -0.387 OA
ATOM      3  H   UNL     1       4.893  -2.293  -0.341  0.00  0.00    +0.210 HD
ENDBRANCH   1   2
BRANCH   1   4
ATOM      4  C   UNL     1       4.981   0.906  -1.049  0.00  0.00    +0.173 C 
BRANCH   4   6
ATOM      5  C   UNL     1       4.850   2.979   0.445  0.00  0.00    +0.040 C 
ATOM      6  C   UNL     1       4.529   1.494   0.307  0.00  0.00    +0.142 C 
BRANCH   6   7
ATOM      7  O   UNL     1       3.112   1.360   0.437  0.00  0.00    -0.389 OA
ATOM      8  H   UNL     1       2.908   1.404   1.388  0.00  0.00    +0.210 HD
ENDBRANCH   6   7
ENDBRANCH   4   6
BRANCH   4   9
ATOM      9  O   UNL     1       6.395   1.045  -1.242  0.00  0.00    -0.387 OA
ATOM     10  H   UNL     1       6.614   1.991  -1.219  0.00  0.00    +0.210 HD
ENDBRANCH   4   9
ENDBRANCH   1   4
BRANCH   1  11
ATOM     11  C   UNL     1       5.056  -1.162  -2.519  0.00  0.00    +0.206 C 
BRANCH  11  12
ATOM     12  O   UNL     1       4.492  -2.468  -2.662  0.00  0.00    -0.284 OA
BRANCH  12  13
ATOM     13  P   UNL     1       4.916  -3.220  -4.162  0.00  0.00    +0.472 P 
ATOM     14  O   UNL     1       5.296  -3.892  -5.504  0.00  0.00    -0.228 OA
BRANCH  13  15
ATOM     15  O   UNL     1       3.714  -2.363  -4.867  0.00  0.00    -0.303 OA
ATOM     16  H   UNL     1       3.747  -2.612  -5.815  0.00  0.00    +0.222 HD
ENDBRANCH  13  15
BRANCH  13  17
ATOM     17  O   UNL     1       3.959  -4.447  -3.669  0.00  0.00    -0.303 OA
ATOM     18  H   UNL     1       3.033  -4.162  -3.745  0.00  0.00    +0.222 HD
ENDBRANCH  13  17
ENDBRANCH  12  13
ENDBRANCH  11  12
ENDBRANCH   1  11
TORSDOF 10
