REMARK  Name = 
REMARK  6 active torsions:
REMARK  status: ('A' for Active; 'I' for Inactive)
REMARK    1  A    between atoms: N_1  and  N_2
REMARK    2  A    between atoms: C_8  and  C_10
REMARK    3  A    between atoms: C_10  and  O_11
REMARK    4  A    between atoms: C_12  and  O_14
REMARK    5  A    between atoms: C_15  and  O_17
REMARK    6  A    between atoms: C_18  and  O_20
REMARK                            x       y       z     vdW  Elec       q    Type
REMARK                         _______ _______ _______ _____ _____    ______ ____
ROOT
ATOM      1  N   UNL     1       2.257   0.031   0.116  0.00  0.00    -0.155 N 
ATOM      2  C   UNL     1       2.906  -0.104  -1.085  0.00  0.00    +0.290 C 
ATOM      3  O   UNL     1       2.408  -0.342  -2.181  0.00  0.00    -0.269 OA
ATOM      4  C   UNL     1       4.420   0.100  -0.820  0.00  0.00    +0.246 C 
ATOM      5  C   UNL     1       5.273  -0.894  -1.631  0.00  0.00    +0.205 C 
ATOM      6  C   UNL     1       5.536  -0.373  -3.058  0.00  0.00    +0.179 C 
ATOM      7  C   UNL     1       6.061   1.070  -3.012  0.00  0.00    +0.177 C 
ATOM      8  C   UNL     1       5.145   1.992  -2.188  0.00  0.00    +0.178 C 
ATOM      9  O   UNL     1       4.851   1.446  -0.891  0.00  0.00    -0.338 OA
ATOM     10  N   UNL     1       4.415  -0.196   0.597  0.00  0.00    -0.260 N 
ATOM     11  H   UNL     1       5.253  -0.267   1.155  0.00  0.00    +0.154 HD
ATOM     12  C   UNL     1       3.153  -0.145   1.145  0.00  0.00    +0.325 C 
ATOM     13  O   UNL     1       2.895  -0.315   2.325  0.00  0.00    -0.251 OA
ENDROOT
BRANCH   1  14
ATOM     14  N   UNL     1       0.864  -0.016   0.264  0.00  0.00    -0.243 NA
ATOM     15  H   UNL     1       0.506  -0.761  -0.337  0.00  0.00    +0.141 HD
ATOM     16  H   UNL     1       0.672  -0.303   1.229  0.00  0.00    +0.141 HD
ENDBRANCH   1  14
BRANCH   5  17
ATOM     17  O   UNL     1       6.533  -1.119  -0.958  0.00  0.00    -0.384 OA
ATOM     18  H   UNL     1       7.117  -0.360  -1.181  0.00  0.00    +0.210 HD
ENDBRANCH   5  17
BRANCH   6  19
ATOM     19  O   UNL     1       4.422  -0.447  -3.945  0.00  0.00    -0.386 OA
ATOM     20  H   UNL     1       3.590  -0.657  -3.472  0.00  0.00    +0.210 HD
ENDBRANCH   6  19
BRANCH   7  21
ATOM     21  O   UNL     1       7.360   1.040  -2.388  0.00  0.00    -0.386 OA
ATOM     22  H   UNL     1       7.764   1.918  -2.523  0.00  0.00    +0.210 HD
ENDBRANCH   7  21
BRANCH   8  23
ATOM     23  C   UNL     1       3.889   2.456  -2.944  0.00  0.00    +0.190 C 
BRANCH  23  24
ATOM     24  O   UNL     1       3.206   3.464  -2.201  0.00  0.00    -0.392 OA
ATOM     25  H   UNL     1       2.699   3.026  -1.494  0.00  0.00    +0.210 HD
ENDBRANCH  23  24
ENDBRANCH   8  23
TORSDOF 6
