REMARK  Name = 
REMARK  10 active torsions:
REMARK  status: ('A' for Active; 'I' for Inactive)
REMARK    1  A    between atoms: C_18  and  C_19
REMARK    2  A    between atoms: C_22  and  O_24
REMARK    3  A    between atoms: C_26  and  C_27
REMARK    4  A    between atoms: C_28  and  C_34
REMARK    5  A    between atoms: C_30  and  C_31
REMARK    6  A    between atoms: C_30  and  C_32
REMARK    7  A    between atoms: C_34  and  C_36
REMARK    8  A    between atoms: C_36  and  O_37
REMARK    9  A    between atoms: O_37  and  C_38
REMARK   10  A    between atoms: C_38  and  C_39
REMARK                            x       y       z     vdW  Elec       q    Type
REMARK                         _______ _______ _______ _____ _____    ______ ____
ROOT
ATOM      1  C   UNL     1      -0.000  -0.000  -0.000  0.00  0.00    +0.162 C 
ATOM      2  O   UNL     1      -0.000  -0.000  -0.000  0.00  0.00    -0.343 OA
ATOM      3  C   UNL     1      -0.000  -0.000   0.000  0.00  0.00    +0.166 C 
ATOM      4  C   UNL     1      -0.000  -0.000  -0.000  0.00  0.00    +0.074 C 
ATOM      5  C   UNL     1      -0.000  -0.000  -0.000  0.00  0.00    +0.074 C 
ATOM      6  O   UNL     1      -0.000  -0.000  -0.000  0.00  0.00    -0.332 OA
ATOM      7  C   UNL     1      -0.000  -0.000  -0.000  0.00  0.00    +0.165 C 
ATOM      8  C   UNL     1      -0.000  -0.000  -0.000  0.00  0.00    +0.012 C 
ATOM      9  C   UNL     1      -0.000  -0.000   0.000  0.00  0.00    +0.015 C 
ATOM     10  C   UNL     1      -0.000  -0.000  -0.000  0.00  0.00    +0.007 C 
ATOM     11  C   UNL     1      -0.000  -0.000   0.000  0.00  0.00    +0.037 C 
ATOM     12  C   UNL     1      -0.000  -0.000  -0.000  0.00  0.00    +0.153 C 
ATOM     13  C   UNL     1      -0.000  -0.000   0.000  0.00  0.00    +0.154 C 
ATOM     14  F   UNL     1      -0.000  -0.000  -0.000  0.00  0.00    -0.238 F 
ATOM     15  C   UNL     1      -0.000  -0.000  -0.000  0.00  0.00    +0.047 C 
ATOM     16  C   UNL     1      -0.000  -0.000  -0.000  0.00  0.00    +0.023 C 
ATOM     17  C   UNL     1      -0.000  -0.000  -0.000  0.00  0.00    -0.020 C 
ATOM     18  C   UNL     1      -0.000  -0.000   0.000  0.00  0.00    +0.054 C 
ATOM     19  C   UNL     1      -0.000  -0.000  -0.000  0.00  0.00    +0.179 C 
ATOM     20  C   UNL     1      -0.000  -0.000  -0.000  0.00  0.00    +0.047 C 
ATOM     21  O   UNL     1      -0.000  -0.000  -0.000  0.00  0.00    -0.288 OA
ATOM     22  C   UNL     1      -0.000  -0.000   0.000  0.00  0.00    +0.194 C 
ATOM     23  F   UNL     1      -0.000  -0.000   0.000  0.00  0.00    -0.241 F 
ATOM     24  C   UNL     1      -0.000  -0.000   0.000  0.00  0.00    -0.009 C 
ATOM     25  C   UNL     1      -0.000  -0.000  -0.000  0.00  0.00    +0.048 C 
ATOM     26  C   UNL     1      -0.000  -0.000   0.000  0.00  0.00    +0.044 C 
ATOM     27  C   UNL     1      -0.000  -0.000  -0.000  0.00  0.00    +0.039 C 
ENDROOT
BRANCH   7  28
ATOM     28  C   UNL     1      -0.000  -0.000   0.000  0.00  0.00    +0.205 C 
ATOM     29  O   UNL     1      -0.000  -0.000  -0.000  0.00  0.00    -0.291 OA
BRANCH  28  30
ATOM     30  C   UNL     1      -0.000  -0.000  -0.000  0.00  0.00    +0.309 C 
BRANCH  30  31
ATOM     31  O   UNL     1      -0.000  -0.000  -0.000  0.00  0.00    -0.457 OA
BRANCH  31  32
ATOM     32  C   UNL     1      -0.000  -0.000  -0.000  0.00  0.00    +0.304 C 
ATOM     33  O   UNL     1      -0.000  -0.000  -0.000  0.00  0.00    -0.251 OA
ATOM     34  C   UNL     1      -0.000  -0.000  -0.000  0.00  0.00    +0.136 C 
ENDBRANCH  31  32
ENDBRANCH  30  31
ENDBRANCH  28  30
ENDBRANCH   7  28
BRANCH  13  35
ATOM     35  O   UNL     1      -0.000  -0.000   0.000  0.00  0.00    -0.389 OA
ATOM     36  H   UNL     1       0.000   0.000   0.000  0.00  0.00    +0.210 HD
ENDBRANCH  13  35
TORSDOF 5
