REMARK  Name = 
REMARK  7 active torsions:
REMARK  status: ('A' for Active; 'I' for Inactive)
REMARK    1  A    between atoms: N_1  and  C_2
REMARK    2  A    between atoms: C_2  and  C_3
REMARK    3  A    between atoms: C_3  and  C_4
REMARK    4  A    between atoms: C_4  and  O_5
REMARK    5  A    between atoms: O_5  and  P_6
REMARK    6  A    between atoms: P_6  and  O_7
REMARK    7  A    between atoms: P_6  and  O_8
REMARK                            x       y       z     vdW  Elec       q    Type
REMARK                         _______ _______ _______ _____ _____    ______ ____
ROOT
ATOM      1  O   UNL     1       4.930   2.686   0.988  0.00  0.00    -0.287 OA
ENDROOT
BRANCH   1   2
ATOM      2  P   UNL     1       6.656   2.744   0.896  0.00  0.00    +0.472 P 
ATOM      3  O   UNL     1       8.202   2.796   0.814  0.00  0.00    -0.228 OA
BRANCH   2   4
ATOM      4  O   UNL     1       6.643   1.784   2.222  0.00  0.00    -0.303 OA
ATOM      5  H   UNL     1       7.075   2.305   2.924  0.00  0.00    +0.222 HD
ENDBRANCH   2   4
BRANCH   2   6
ATOM      6  O   UNL     1       6.503   4.129   1.759  0.00  0.00    -0.303 OA
ATOM      7  H   UNL     1       6.177   4.856   1.202  0.00  0.00    +0.222 HD
ENDBRANCH   2   6
ENDBRANCH   1   2
BRANCH   1   8
ATOM      8  C   UNL     1       4.405   1.546   0.308  0.00  0.00    +0.173 C 
BRANCH   8   9
ATOM      9  C   UNL     1       2.890   1.543   0.428  0.00  0.00    +0.043 C 
BRANCH   9  10
ATOM     10  C   UNL     1       2.247   0.373  -0.312  0.00  0.00    +0.080 C 
BRANCH  10  11
ATOM     11  N   UNL     1       2.695  -0.911   0.209  0.00  0.00    -0.330 NA
ATOM     12  H   UNL     1       2.443  -0.991   1.195  0.00  0.00    +0.118 HD
ATOM     13  H   UNL     1       2.205  -1.666  -0.269  0.00  0.00    +0.118 HD
ENDBRANCH  10  11
ENDBRANCH   9  10
ENDBRANCH   8   9
ENDBRANCH   1   8
TORSDOF 7
