REMARK  Name = 
REMARK  14 active torsions:
REMARK  status: ('A' for Active; 'I' for Inactive)
REMARK    1  A    between atoms: C_5  and  O_6
REMARK    2  A    between atoms: C_8  and  O_37
REMARK    3  A    between atoms: C_11  and  O_13
REMARK    4  A    between atoms: C_14  and  C_15
REMARK    5  A    between atoms: C_15  and  O_16
REMARK    6  A    between atoms: C_19  and  O_21
REMARK    7  A    between atoms: C_23  and  C_24
REMARK    8  A    between atoms: C_25  and  C_31
REMARK    9  A    between atoms: C_29  and  O_30
REMARK   10  A    between atoms: O_37  and  C_38
REMARK   11  A    between atoms: C_41  and  C_43
REMARK   12  A    between atoms: C_44  and  O_46
REMARK   13  A    between atoms: C_47  and  O_49
REMARK   14  A    between atoms: C_50  and  O_52
REMARK                            x       y       z     vdW  Elec       q    Type
REMARK                         _______ _______ _______ _____ _____    ______ ____
ROOT
ATOM      1  C   UNL     1      -0.000  -0.000  -0.000  0.00  0.00    +0.028 C 
ATOM      2  C   UNL     1      -0.000  -0.000  -0.000  0.00  0.00    +0.075 C 
ATOM      3  C   UNL     1      -0.000  -0.000  -0.000  0.00  0.00    +0.006 C 
ATOM      4  C   UNL     1      -0.000  -0.000  -0.000  0.00  0.00    +0.015 C 
ATOM      5  C   UNL     1      -0.000  -0.000  -0.000  0.00  0.00    +0.027 C 
ATOM      6  C   UNL     1      -0.000  -0.000  -0.000  0.00  0.00    +0.011 C 
ATOM      7  C   UNL     1      -0.000  -0.000  -0.000  0.00  0.00    +0.041 C 
ATOM      8  C   UNL     1      -0.000  -0.000  -0.000  0.00  0.00    +0.119 C 
ATOM      9  C   UNL     1      -0.000  -0.000  -0.000  0.00  0.00    +0.036 C 
ATOM     10  C   UNL     1      -0.000  -0.000  -0.000  0.00  0.00    +0.037 C 
ATOM     11  C   UNL     1      -0.000  -0.000  -0.000  0.00  0.00    +0.054 C 
ATOM     12  C   UNL     1      -0.000  -0.000  -0.000  0.00  0.00    +0.079 C 
ATOM     13  C   UNL     1      -0.000  -0.000  -0.000  0.00  0.00    +0.067 C 
ATOM     14  C   UNL     1      -0.000  -0.000  -0.000  0.00  0.00    +0.127 C 
ATOM     15  C   UNL     1      -0.000  -0.000  -0.000  0.00  0.00    +0.063 C 
ATOM     16  C   UNL     1      -0.000  -0.000  -0.000  0.00  0.00    +0.036 C 
ATOM     17  C   UNL     1      -0.000  -0.000  -0.000  0.00  0.00    +0.128 C 
ATOM     18  C   UNL     1      -0.000  -0.000  -0.000  0.00  0.00    +0.009 C 
ENDROOT
BRANCH   5  19
ATOM     19  C   UNL     1      -0.000  -0.000  -0.000  0.00  0.00    -0.022 C 
ATOM     20  C   UNL     1      -0.000  -0.000  -0.000  0.00  0.00    +0.264 C 
ATOM     21  O   UNL     1      -0.000  -0.000  -0.000  0.00  0.00    -0.457 OA
ATOM     22  C   UNL     1      -0.000  -0.000  -0.000  0.00  0.00    +0.332 C 
ATOM     23  O   UNL     1      -0.000  -0.000  -0.000  0.00  0.00    -0.246 OA
ATOM     24  C   UNL     1      -0.000  -0.000  -0.000  0.00  0.00    +0.094 C 
ENDBRANCH   5  19
BRANCH   2  25
ATOM     25  O   UNL     1      -0.000  -0.000  -0.000  0.00  0.00    -0.388 OA
ATOM     26  H   UNL     1       0.000   0.000   0.000  0.00  0.00    +0.210 HD
ENDBRANCH   2  25
BRANCH   8  27
ATOM     27  O   UNL     1      -0.000  -0.000  -0.000  0.00  0.00    -0.391 OA
ATOM     28  H   UNL     1       0.000   0.000   0.000  0.00  0.00    +0.210 HD
ENDBRANCH   8  27
BRANCH  12  29
ATOM     29  O   UNL     1      -0.000  -0.000  -0.000  0.00  0.00    -0.388 OA
ATOM     30  H   UNL     1       0.000   0.000   0.000  0.00  0.00    +0.210 HD
ENDBRANCH  12  29
BRANCH  17  31
ATOM     31  O   UNL     1      -0.000  -0.000  -0.000  0.00  0.00    -0.391 OA
ATOM     32  H   UNL     1       0.000   0.000   0.000  0.00  0.00    +0.210 HD
ENDBRANCH  17  31
BRANCH  11  33
ATOM     33  C   UNL     1      -0.000  -0.000  -0.000  0.00  0.00    +0.168 C 
BRANCH  33  34
ATOM     34  O   UNL     1      -0.000  -0.000  -0.000  0.00  0.00    -0.394 OA
ATOM     35  H   UNL     1      -0.000  -0.000  -0.000  0.00  0.00    +0.209 HD
ENDBRANCH  33  34
ENDBRANCH  11  33
BRANCH  14  36
ATOM     36  O   UNL     1      -0.000  -0.000  -0.000  0.00  0.00    -0.345 OA
BRANCH  36  37
ATOM     37  C   UNL     1      -0.000  -0.000  -0.000  0.00  0.00    +0.282 C 
ATOM     38  C   UNL     1      -0.000  -0.000  -0.000  0.00  0.00    +0.201 C 
ATOM     39  C   UNL     1      -0.000  -0.000  -0.000  0.00  0.00    +0.179 C 
ATOM     40  C   UNL     1      -0.000  -0.000  -0.000  0.00  0.00    +0.174 C 
ATOM     41  C   UNL     1      -0.000  -0.000  -0.000  0.00  0.00    +0.149 C 
ATOM     42  C   UNL     1      -0.000  -0.000  -0.000  0.00  0.00    +0.041 C 
ATOM     43  O   UNL     1      -0.000  -0.000  -0.000  0.00  0.00    -0.343 OA
BRANCH  38  44
ATOM     44  O   UNL     1      -0.000  -0.000  -0.000  0.00  0.00    -0.384 OA
ATOM     45  H   UNL     1      -0.000  -0.000  -0.000  0.00  0.00    +0.210 HD
ENDBRANCH  38  44
BRANCH  39  46
ATOM     46  O   UNL     1      -0.000  -0.000  -0.000  0.00  0.00    -0.386 OA
ATOM     47  H   UNL     1      -0.000  -0.000  -0.000  0.00  0.00    +0.210 HD
ENDBRANCH  39  46
BRANCH  40  48
ATOM     48  O   UNL     1      -0.000  -0.000  -0.000  0.00  0.00    -0.387 OA
ATOM     49  H   UNL     1      -0.000  -0.000  -0.000  0.00  0.00    +0.210 HD
ENDBRANCH  40  48
ENDBRANCH  36  37
ENDBRANCH  14  36
TORSDOF 12
