REMARK  Name = 
REMARK  10 active torsions:
REMARK  status: ('A' for Active; 'I' for Inactive)
REMARK    1  A    between atoms: C_1  and  O_2
REMARK    2  A    between atoms: O_2  and  C_3
REMARK    3  A    between atoms: C_5  and  N_6
REMARK    4  A    between atoms: N_6  and  C_7
REMARK    5  A    between atoms: C_7  and  C_8
REMARK    6  A    between atoms: C_9  and  C_10
REMARK    7  A    between atoms: C_22  and  O_23
REMARK    8  A    between atoms: O_23  and  C_24
REMARK    9  A    between atoms: C_25  and  O_26
REMARK   10  A    between atoms: O_26  and  C_27
REMARK                            x       y       z     vdW  Elec       q    Type
REMARK                         _______ _______ _______ _____ _____    ______ ____
ROOT
ATOM      1  C   UNL     1       2.466   6.655  -2.372  0.00  0.00    -0.027 A 
ATOM      2  C   UNL     1       1.099   6.653  -2.072  0.00  0.00    +0.007 A 
ATOM      3  C   UNL     1       0.290   7.730  -2.427  0.00  0.00    +0.029 A 
ATOM      4  C   UNL     1       0.781   8.818  -3.125  0.00  0.00    +0.078 A 
ATOM      5  N   UNL     1      -0.085   9.798  -3.398  0.00  0.00    -0.215 NA
ATOM      6  C   UNL     1       0.360  10.837  -4.097  0.00  0.00    +0.215 A 
ATOM      7  N   UNL     1       1.578  10.938  -4.614  0.00  0.00    -0.199 NA
ATOM      8  C   UNL     1       2.440   9.954  -4.322  0.00  0.00    +0.129 A 
ATOM      9  N   UNL     1       3.673  10.123  -4.961  0.00  0.00    -0.343 N 
ATOM     10  H   UNL     1       4.436  10.174  -4.300  0.00  0.00    +0.144 HD
ATOM     11  H   UNL     1       3.604  10.991  -5.488  0.00  0.00    +0.144 HD
ATOM     12  N   UNL     1      -0.520  11.871  -4.337  0.00  0.00    -0.327 N 
ATOM     13  H   UNL     1      -0.253  12.356  -5.182  0.00  0.00    +0.145 HD
ATOM     14  H   UNL     1      -1.469  11.531  -4.274  0.00  0.00    +0.145 HD
ATOM     15  C   UNL     1       2.131   8.838  -3.511  0.00  0.00    +0.043 A 
ATOM     16  C   UNL     1       2.999   7.759  -3.083  0.00  0.00    -0.033 A 
ATOM     17  C   UNL     1       4.481   7.812  -3.383  0.00  0.00    +0.045 C 
ENDROOT
BRANCH   1  18
ATOM     18  C   UNL     1       3.363   5.492  -1.984  0.00  0.00    +0.137 C 
BRANCH  18  19
ATOM     19  N   UNL     1       2.640   4.424  -1.308  0.00  0.00    -0.340 N 
ATOM     20  H   UNL     1       2.425   4.697  -0.353  0.00  0.00    +0.146 HD
BRANCH  19  25
ATOM     21  C   UNL     1       3.320   0.917  -0.328  0.00  0.00    +0.167 A 
ATOM     22  C   UNL     1       3.965   0.388  -1.469  0.00  0.00    +0.204 A 
ATOM     23  C   UNL     1       4.165   1.241  -2.574  0.00  0.00    +0.167 A 
ATOM     24  C   UNL     1       3.734   2.578  -2.519  0.00  0.00    +0.072 A 
ATOM     25  C   UNL     1       3.155   3.125  -1.378  0.00  0.00    +0.035 A 
ATOM     26  C   UNL     1       2.945   2.271  -0.299  0.00  0.00    +0.072 A 
BRANCH  21  28
ATOM     27  C   UNL     1       1.980   0.469   1.584  0.00  0.00    +0.277 C 
ATOM     28  O   UNL     1       3.095   0.116   0.767  0.00  0.00    -0.491 OA
ENDBRANCH  21  28
BRANCH  22  29
ATOM     29  O   UNL     1       4.405  -0.899  -1.620  0.00  0.00    -0.488 OA
ATOM     30  C   UNL     1       4.196  -1.859  -0.600  0.00  0.00    +0.277 C 
ENDBRANCH  22  29
BRANCH  23  31
ATOM     31  O   UNL     1       4.737   0.965  -3.793  0.00  0.00    -0.491 OA
ATOM     32  C   UNL     1       5.249  -0.329  -4.060  0.00  0.00    +0.277 C 
ENDBRANCH  23  31
ENDBRANCH  19  25
ENDBRANCH  18  19
ENDBRANCH   1  18
TORSDOF 6
