REMARK  Name = 
REMARK  34 active torsions:
REMARK  status: ('A' for Active; 'I' for Inactive)
REMARK    1  A    between atoms: C_1  and  C_2
REMARK    2  A    between atoms: C_2  and  C_3
REMARK    3  A    between atoms: C_5  and  C_7
REMARK    4  A    between atoms: C_11  and  C_12
REMARK    5  A    between atoms: C_12  and  C_13
REMARK    6  A    between atoms: C_15  and  C_16
REMARK    7  A    between atoms: C_20  and  C_22
REMARK    8  A    between atoms: C_23  and  C_25
REMARK    9  A    between atoms: C_25  and  C_26
REMARK   10  A    between atoms: C_26  and  C_27
REMARK   11  A    between atoms: C_27  and  O_29
REMARK   12  A    between atoms: O_29  and  C_30
REMARK   13  A    between atoms: C_30  and  C_31
REMARK   14  A    between atoms: C_32  and  C_33
REMARK   15  A    between atoms: C_32  and  C_34
REMARK   16  A    between atoms: C_34  and  C_35
REMARK   17  A    between atoms: C_35  and  C_36
REMARK   18  A    between atoms: C_36  and  C_37
REMARK   19  A    between atoms: C_37  and  C_39
REMARK   20  A    between atoms: C_37  and  C_40
REMARK   21  A    between atoms: C_40  and  C_41
REMARK   22  A    between atoms: C_41  and  C_42
REMARK   23  A    between atoms: C_42  and  C_43
REMARK   24  A    between atoms: C_43  and  C_45
REMARK   25  A    between atoms: C_43  and  C_46
REMARK   26  A    between atoms: C_46  and  C_47
REMARK   27  A    between atoms: C_47  and  C_48
REMARK   28  A    between atoms: C_48  and  C_49
REMARK   29  A    between atoms: C_49  and  C_50
REMARK   30  A    between atoms: C_49  and  C_51
REMARK   31  A    between atoms: C_59  and  C_60
REMARK   32  A    between atoms: C_64  and  C_66
REMARK   33  A    between atoms: C_66  and  O_68
REMARK   34  A    between atoms: O_68  and  C_69
REMARK                            x       y       z     vdW  Elec       q    Type
REMARK                         _______ _______ _______ _____ _____    ______ ____
ROOT
ATOM      1  C   UNL     1       3.264 -10.364   3.132  0.00  0.00    +0.000 C 
ATOM      2  C   UNL     1       4.763 -11.353   4.912  0.00  0.00    +0.000 C 
ATOM      3  C   UNL     1       6.202 -13.397   8.422  0.00  0.00    +0.000 C 
ATOM      4  C   UNL     1       5.690 -14.882   8.779  0.00  0.00    +0.000 A 
ATOM      5  N   UNL     1       5.801 -15.149   7.816  0.00  0.00    +0.000 N 
ATOM      6 MG   UNL     1       7.139 -12.036   6.969  0.00  0.00    +0.000 Mg
ATOM      7  N   UNL     1       6.557  -8.485   5.502  0.00  0.00    +0.000 N 
ATOM      8  C   UNL     1       7.456  -7.933   6.094  0.00  0.00    +0.000 A 
ATOM      9  C   UNL     1       8.073  -9.000   6.558  0.00  0.00    +0.000 C 
ATOM     10  C   UNL     1       7.330 -10.483   6.422  0.00  0.00    +0.000 C 
ATOM     11  C   UNL     1       6.087 -10.237   7.371  0.00  0.00    +0.000 C 
ATOM     12  C   UNL     1       5.076 -11.725   7.124  0.00  0.00    +0.000 C 
ATOM     13  C   UNL     1       5.838 -12.816   6.337  0.00  0.00    +0.000 C 
ATOM     14  C   UNL     1       4.473 -14.594   6.714  0.00  0.00    +0.000 C 
ATOM     15  C   UNL     1       3.119 -15.091   6.587  0.00  0.00    +0.000 C 
ATOM     16  C   UNL     1       3.170 -16.721   7.517  0.00  0.00    +0.000 C 
ATOM     17  O   UNL     1       2.325 -17.528   7.927  0.00  0.00    +0.000 OA
ATOM     18  C   UNL     1       4.299 -16.465   8.368  0.00  0.00    +0.000 A 
ATOM     19  C   UNL     1       6.184 -10.210   8.862  0.00  0.00    +0.000 C 
ATOM     20  C   UNL     1       7.809  -6.420   6.150  0.00  0.00    +0.000 A 
ATOM     21  C   UNL     1       8.756  -5.840   6.964  0.00  0.00    +0.000 C 
ATOM     22  C   UNL     1       7.131  -5.823   5.326  0.00  0.00    +0.000 A 
ATOM     23  C   UNL     1       6.154  -7.314   4.788  0.00  0.00    +0.000 A 
ATOM     24  C   UNL     1       5.190  -7.494   3.596  0.00  0.00    +0.000 C 
ATOM     25  C   UNL     1       4.934  -8.963   3.737  0.00  0.00    +0.000 C 
ATOM     26  N   UNL     1       7.229 -12.086   6.388  0.00  0.00    +1.000 N 
ATOM     27  C   UNL     1       4.801 -15.463   7.603  0.00  0.00    +0.000 A 
ATOM     28  C   UNL     1       5.214 -16.385   9.260  0.00  0.00    +0.000 A 
ATOM     29  C   UNL     1       4.995 -18.054  10.468  0.00  0.00    +0.000 C 
ATOM     30  N   UNL     1       5.568 -10.365   4.910  0.00  0.00    +1.000 N 
ATOM     31  C   UNL     1       3.723  -8.990   2.998  0.00  0.00    +0.000 C 
ATOM     32  C   UNL     1       2.895  -8.249   4.152  0.00  0.00    +0.000 C 
ENDROOT
BRANCH  22  33
ATOM     33  C   UNL     1       7.145  -3.772   4.683  0.00  0.00    +0.000 C 
ATOM     34  O   UNL     1       8.043  -3.003   5.055  0.00  0.00    +0.000 OA
ATOM     35  C   UNL     1       6.604  -2.893   3.276  0.00  0.00    +0.000 C 
ENDBRANCH  22  33
BRANCH   1  37
ATOM     36  C   UNL     1       3.991 -11.547   1.383  0.00  0.00    +0.000 C 
ATOM     37  C   UNL     1       3.309 -10.323   1.313  0.00  0.00    +0.000 C 
ENDBRANCH   1  37
BRANCH  15  38
ATOM     38  C   UNL     1       2.322 -14.419   7.597  0.00  0.00    +0.000 C 
ATOM     39  O   UNL     1       2.335 -14.532   8.844  0.00  0.00    +0.000 OA
BRANCH  38  40
ATOM     40  O   UNL     1       1.353 -13.914   6.958  0.00  0.00    +0.000 OA
ATOM     41  C   UNL     1       0.716 -12.928   7.521  0.00  0.00    +0.000 C 
ENDBRANCH  38  40
ENDBRANCH  15  38
BRANCH  12  42
ATOM     42  C   UNL     1       3.723 -11.640   7.213  0.00  0.00    +0.000 C 
BRANCH  42  43
ATOM     43  C   UNL     1       3.283 -10.366   6.869  0.00  0.00    +0.000 C 
BRANCH  43  44
ATOM     44  C   UNL     1       1.971  -9.966   6.557  0.00  0.00    +0.000 C 
ATOM     45  O   UNL     1       1.433 -10.310   5.512  0.00  0.00    +0.000 OA
BRANCH  44  46
ATOM     46  O   UNL     1       1.566  -8.939   7.317  0.00  0.00    +0.000 OA
BRANCH  46  47
ATOM     47  C   UNL     1       1.164  -7.662   6.944  0.00  0.00    +0.000 C 
BRANCH  47  48
ATOM     48  C   UNL     1       2.078  -6.415   6.810  0.00  0.00    +0.000 C 
ATOM     49  C   UNL     1       3.359  -6.313   7.035  0.00  0.00    +0.000 C 
ATOM     50  C   UNL     1       4.164  -7.513   7.258  0.00  0.00    +0.000 C 
BRANCH  49  51
ATOM     51  C   UNL     1       3.945  -4.939   6.912  0.00  0.00    +0.000 C 
BRANCH  51  52
ATOM     52  C   UNL     1       5.110  -5.066   6.212  0.00  0.00    +0.000 C 
BRANCH  52  53
ATOM     53  C   UNL     1       5.084  -5.213   4.446  0.00  0.00    +0.000 C 
BRANCH  53  54
ATOM     54  C   UNL     1       7.001  -5.911   3.064  0.00  0.00    +0.000 C 
ATOM     55  C   UNL     1       8.341  -5.067   2.983  0.00  0.00    +0.000 C 
BRANCH  54  56
ATOM     56  C   UNL     1       6.996  -7.117   1.998  0.00  0.00    +0.000 C 
BRANCH  56  57
ATOM     57  C   UNL     1       8.207  -7.662   1.645  0.00  0.00    +0.000 C 
BRANCH  57  58
ATOM     58  C   UNL     1       8.822  -8.598   2.775  0.00  0.00    +0.000 C 
BRANCH  58  59
ATOM     59  C   UNL     1      10.124  -8.876   2.222  0.00  0.00    +0.000 C 
ATOM     60  C   UNL     1      10.836  -9.795   3.178  0.00  0.00    +0.000 C 
BRANCH  59  61
ATOM     61  C   UNL     1      10.913  -7.549   2.054  0.00  0.00    +0.000 C 
BRANCH  61  62
ATOM     62  C   UNL     1      12.176  -7.854   1.362  0.00  0.00    +0.000 C 
BRANCH  62  63
ATOM     63  C   UNL     1      12.968  -6.604   1.112  0.00  0.00    +0.000 C 
BRANCH  63  64
ATOM     64  C   UNL     1      14.286  -6.975   0.448  0.00  0.00    +0.000 C 
ATOM     65  C   UNL     1      15.100  -5.714   0.230  0.00  0.00    +0.000 C 
ATOM     66  C   UNL     1      14.042  -7.665  -0.894  0.00  0.00    +0.000 C 
ENDBRANCH  63  64
ENDBRANCH  62  63
ENDBRANCH  61  62
ENDBRANCH  59  61
ENDBRANCH  58  59
ENDBRANCH  57  58
ENDBRANCH  56  57
ENDBRANCH  54  56
ENDBRANCH  53  54
ENDBRANCH  52  53
ENDBRANCH  51  52
ENDBRANCH  49  51
ENDBRANCH  47  48
ENDBRANCH  46  47
ENDBRANCH  44  46
ENDBRANCH  43  44
ENDBRANCH  42  43
ENDBRANCH  12  42
TORSDOF 22
