REMARK  Name = 
REMARK  10 active torsions:
REMARK  status: ('A' for Active; 'I' for Inactive)
REMARK    1  A    between atoms: C_5  and  C_6
REMARK    2  A    between atoms: C_6  and  S_7
REMARK    3  A    between atoms: S_7  and  C_8
REMARK    4  A    between atoms: N_12  and  C_13
REMARK    5  A    between atoms: CA_14  and  C_32
REMARK    6  A    between atoms: CA_18  and  N_20
REMARK    7  A    between atoms: C_21  and  C_23
REMARK    8  A    between atoms: C_23  and  O_25
REMARK    9  A    between atoms: C_23  and  C_26
REMARK   10  A    between atoms: C_32  and  O_33
REMARK                            x       y       z     vdW  Elec       q    Type
REMARK                         _______ _______ _______ _____ _____    ______ ____
ROOT
ATOM      1  C   UNL     1       8.986  -1.182   5.091  0.00  0.00    +0.169 C 
ATOM      2  CA  UNL     1       8.431  -1.213   3.629  0.00  0.00    +0.191 C 
ATOM      3  C   UNL     1       9.688  -2.104   3.357  0.00  0.00    +0.244 C 
ATOM      4  O   UNL     1      10.264  -2.629   2.432  0.00  0.00    -0.273 OA
ATOM      5  N   UNL     1       9.934  -2.203   4.681  0.00  0.00    -0.249 N 
ATOM      6  CA  UNL     1      10.699  -2.966   5.526  0.00  0.00    +0.123 C 
ATOM      7  C   UNL     1      10.430  -2.955   6.866  0.00  0.00    -0.021 C 
ATOM      8  C   UNL     1       9.242  -2.230   7.489  0.00  0.00    +0.104 C 
ATOM      9  S   UNL     1       7.890  -1.880   6.348  0.00  0.00    -0.131 S 
ENDROOT
BRANCH   2  10
ATOM     10  N   UNL     1       7.124  -1.893   3.461  0.00  0.00    -0.299 N 
ATOM     11  H   UNL     1       6.659  -2.313   4.268  0.00  0.00    +0.150 HD
ATOM     12  C   UNL     1       6.458  -2.037   2.266  0.00  0.00    +0.247 C 
ATOM     13  O   UNL     1       6.847  -1.542   1.213  0.00  0.00    -0.273 OA
BRANCH  12  14
ATOM     14  C   UNL     1       5.186  -2.903   2.399  0.00  0.00    +0.230 C 
BRANCH  14  15
ATOM     15  C   UNL     1       5.452  -4.355   2.066  0.00  0.00    -0.010 A 
ATOM     16  C   UNL     1       5.827  -5.281   3.054  0.00  0.00    +0.006 A 
ATOM     17  C   UNL     1       6.065  -6.618   2.727  0.00  0.00    +0.000 A 
ATOM     18  C   UNL     1       5.939  -7.044   1.408  0.00  0.00    +0.000 A 
ATOM     19  C   UNL     1       5.587  -6.133   0.413  0.00  0.00    +0.000 A 
ATOM     20  C   UNL     1       5.349  -4.796   0.738  0.00  0.00    +0.006 A 
ENDBRANCH  14  15
BRANCH  14  21
ATOM     21  O   UNL     1       4.669  -2.809   3.736  0.00  0.00    -0.378 OA
ATOM     22  H   UNL     1       3.716  -2.992   3.665  0.00  0.00    +0.211 HD
ENDBRANCH  14  21
ENDBRANCH  12  14
ENDBRANCH   2  10
BRANCH   6  23
ATOM     23  C   UNL     1      11.780  -3.875   4.971  0.00  0.00    +0.351 C 
ATOM     24  OXT UNL     1      12.292  -4.788   5.603  0.00  0.00    -0.244 OA
BRANCH  23  25
ATOM     25  O   UNL     1      12.227  -3.599   3.730  0.00  0.00    -0.476 OA
ATOM     26  H   UNL     1      11.586  -3.166   3.121  0.00  0.00    +0.295 HD
ENDBRANCH  23  25
ENDBRANCH   6  23
BRANCH   7  27
ATOM     27  C   UNL     1      11.162  -3.769   7.935  0.00  0.00    +0.111 C 
BRANCH  27  28
ATOM     28  S   UNL     1      12.901  -3.348   8.205  0.00  0.00    -0.080 S 
BRANCH  28  29
ATOM     29  C   UNL     1      12.869  -1.741   8.806  0.00  0.00    +0.209 A 
ATOM     30  N   UNL     1      13.994  -1.060   9.170  0.00  0.00    -0.223 N 
ATOM     31  C   UNL     1      15.364  -1.489   9.192  0.00  0.00    +0.177 C 
ATOM     32  N   UNL     1      13.657   0.184   9.553  0.00  0.00    -0.043 NA
ATOM     33  N   UNL     1      12.336   0.239   9.431  0.00  0.00    -0.022 NA
ATOM     34  N   UNL     1      11.832  -0.957   8.974  0.00  0.00    -0.102 NA
ENDBRANCH  28  29
ENDBRANCH  27  28
ENDBRANCH   7  27
TORSDOF 9
