REMARK  Name = 
REMARK  2 active torsions:
REMARK  status: ('A' for Active; 'I' for Inactive)
REMARK    1  A    between atoms: C_1  and  N_2
REMARK    2  A    between atoms: C_17  and  O_18
REMARK                            x       y       z     vdW  Elec       q    Type
REMARK                         _______ _______ _______ _____ _____    ______ ____
ROOT
ATOM      1  C   UNL     1       0.224  -0.076  -0.230  0.00  0.00    +0.105 C 
ATOM      2  N   UNL     1       1.321   0.859  -0.134  0.00  0.00    -0.302 NA
ATOM      3  C   UNL     1       1.160   1.964   0.820  0.00  0.00    +0.065 C 
ATOM      4  C   UNL     1       0.028   3.071   0.472  0.00  0.00    +0.054 C 
ATOM      5  C   UNL     1       0.551   4.465   0.143  0.00  0.00    -0.038 A 
ATOM      6  C   UNL     1      -0.100   5.688   0.241  0.00  0.00    +0.008 A 
ATOM      7  C   UNL     1       0.600   6.896  -0.043  0.00  0.00    +0.049 A 
ATOM      8  C   UNL     1       1.944   6.887  -0.453  0.00  0.00    +0.159 A 
ATOM      9  C   UNL     1       2.569   5.681  -0.609  0.00  0.00    +0.166 A 
ATOM     10  O   UNL     1       3.892   5.402  -0.930  0.00  0.00    -0.484 OA
ATOM     11  C   UNL     1       4.057   4.151  -0.218  0.00  0.00    +0.185 C 
ATOM     12  C   UNL     1       5.182   3.180  -0.526  0.00  0.00    +0.045 C 
ATOM     13  C   UNL     1       4.969   1.863   0.292  0.00  0.00    +0.004 C 
ATOM     14  C   UNL     1       3.820   1.856   1.342  0.00  0.00    +0.006 C 
ATOM     15  C   UNL     1       2.752   3.378  -0.331  0.00  0.00    +0.042 C 
ATOM     16  C   UNL     1       2.408   2.601  -1.625  0.00  0.00    +0.031 C 
ATOM     17  C   UNL     1       1.860   4.544  -0.290  0.00  0.00    +0.011 A 
ATOM     18  C   UNL     1       2.539   2.637   0.969  0.00  0.00    +0.021 C 
ATOM     19  C   UNL     1       2.002   1.142  -1.390  0.00  0.00    +0.085 C 
ENDROOT
BRANCH   8  20
ATOM     20  O   UNL     1       2.617   8.058  -0.602  0.00  0.00    -0.503 OA
ATOM     21  H   UNL     1       3.553   7.814  -0.739  0.00  0.00    +0.292 HD
ENDBRANCH   8  20
TORSDOF 1
