REMARK  Name = 
REMARK  5 active torsions:
REMARK  status: ('A' for Active; 'I' for Inactive)
REMARK    1  A    between atoms: O_1  and  C_2
REMARK    2  A    between atoms: C_2  and  C_4
REMARK    3  A    between atoms: C_6  and  N_7
REMARK    4  A    between atoms: N_7  and  C_8
REMARK    5  A    between atoms: C_9  and  C_15
REMARK                            x       y       z     vdW  Elec       q    Type
REMARK                         _______ _______ _______ _____ _____    ______ ____
ROOT
ATOM      1  C   UNL     1       1.968   5.252   0.224  0.00  0.00    +0.107 C 
ATOM      2  C   UNL     1       1.042   4.338   0.943  0.00  0.00    +0.265 C 
ATOM      3  O   UNL     1       0.870   3.167   0.657  0.00  0.00    -0.268 OA
ATOM      4  N   UNL     1       0.426   5.056   1.899  0.00  0.00    -0.247 N 
ATOM      5  H   UNL     1      -0.276   4.696   2.523  0.00  0.00    +0.158 HD
ATOM      6  C   UNL     1       0.741   6.364   1.784  0.00  0.00    +0.253 C 
ATOM      7  O   UNL     1       0.275   7.270   2.450  0.00  0.00    -0.270 OA
ATOM      8  C   UNL     1       1.721   6.492   0.677  0.00  0.00    +0.070 C 
ENDROOT
BRANCH   8   9
ATOM      9  C   UNL     1       2.267   7.744   0.140  0.00  0.00    -0.010 A 
ATOM     10  C   UNL     1       2.540   8.839   0.968  0.00  0.00    +0.009 A 
ATOM     11  C   UNL     1       3.091  10.011   0.441  0.00  0.00    +0.002 A 
ATOM     12  C   UNL     1       3.377  10.101  -0.920  0.00  0.00    +0.020 A 
ATOM     13  C   UNL     1       3.090   9.029  -1.755  0.00  0.00    +0.042 A 
ATOM     14 CL   UNL     1       3.455   9.119  -3.435  0.00  0.00    -0.084 Cl
ATOM     15  C   UNL     1       2.522   7.869  -1.237  0.00  0.00    +0.028 A 
ENDBRANCH   8   9
BRANCH   1  16
ATOM     16  N   UNL     1       2.764   4.760  -0.793  0.00  0.00    -0.310 N 
ATOM     17  H   UNL     1       2.388   3.870  -1.136  0.00  0.00    +0.152 HD
BRANCH  16  23
ATOM     18  C   UNL     1       6.394   5.170   0.198  0.00  0.00    +0.079 A 
ATOM     19  C   UNL     1       7.003   4.477  -0.855  0.00  0.00    +0.055 A 
ATOM     20 CL   UNL     1       8.708   4.228  -0.978  0.00  0.00    -0.083 Cl
ATOM     21  C   UNL     1       6.215   3.928  -1.868  0.00  0.00    +0.022 A 
ATOM     22  C   UNL     1       4.823   4.041  -1.822  0.00  0.00    +0.025 A 
ATOM     23  C   UNL     1       4.180   4.693  -0.761  0.00  0.00    +0.032 A 
ATOM     24  C   UNL     1       4.984   5.292   0.218  0.00  0.00    +0.039 A 
BRANCH  18  25
ATOM     25  C   UNL     1       7.117   5.739   1.368  0.00  0.00    +0.338 C 
ATOM     26  O   UNL     1       6.573   5.861   2.455  0.00  0.00    -0.245 OA
BRANCH  25  27
ATOM     27  O   UNL     1       8.373   6.172   1.146  0.00  0.00    -0.477 OA
ATOM     28  H   UNL     1       8.740   5.973   0.263  0.00  0.00    +0.295 HD
ENDBRANCH  25  27
ENDBRANCH  18  25
ENDBRANCH  16  23
ENDBRANCH   1  16
TORSDOF 5
