REMARK  Name = 
REMARK  11 active torsions:
REMARK  status: ('A' for Active; 'I' for Inactive)
REMARK    1  A    between atoms: C_1  and  C_2
REMARK    2  A    between atoms: C_4  and  O_5
REMARK    3  A    between atoms: O_5  and  C_6
REMARK    4  A    between atoms: C_6  and  C_7
REMARK    5  A    between atoms: C_7  and  C_8
REMARK    6  A    between atoms: C_8  and  C_9
REMARK    7  A    between atoms: C_9  and  C_10
REMARK    8  A    between atoms: C_9  and  C_11
REMARK    9  A    between atoms: C_9  and  C_12
REMARK   10  A    between atoms: C_12  and  O_13
REMARK   11  A    between atoms: C_15  and  C_16
REMARK                            x       y       z     vdW  Elec       q    Type
REMARK                         _______ _______ _______ _____ _____    ______ ____
ROOT
ATOM      1  C   UNL     1       4.448   3.617  -0.280  0.00  0.00    +0.229 C 
ENDROOT
BRANCH   1   2
ATOM      2  O   UNL     1       5.117   2.355  -0.234  0.00  0.00    -0.492 OA
BRANCH   2   9
ATOM      3  C   UNL     1       5.100   2.010   4.715  0.00  0.00    +0.044 C 
ATOM      4  C   UNL     1       5.744   1.783   3.379  0.00  0.00    -0.047 A 
ATOM      5  C   UNL     1       6.945   1.074   3.293  0.00  0.00    +0.004 A 
ATOM      6  C   UNL     1       7.509   0.802   2.047  0.00  0.00    +0.007 A 
ATOM      7  C   UNL     1       6.888   1.236   0.865  0.00  0.00    -0.009 A 
ATOM      8  C   UNL     1       7.528   0.872  -0.446  0.00  0.00    +0.047 C 
ATOM      9  C   UNL     1       5.702   1.983   0.948  0.00  0.00    +0.124 A 
ATOM     10  C   UNL     1       5.129   2.230   2.201  0.00  0.00    +0.049 A 
ENDBRANCH   2   9
ENDBRANCH   1   2
BRANCH   1  11
ATOM     11  C   UNL     1       5.431   4.755  -0.565  0.00  0.00    +0.042 C 
BRANCH  11  12
ATOM     12  C   UNL     1       6.123   4.591  -1.927  0.00  0.00    +0.021 C 
BRANCH  12  13
ATOM     13  C   UNL     1       7.144   5.701  -2.292  0.00  0.00    +0.062 C 
ATOM     14  C   UNL     1       8.310   5.762  -1.292  0.00  0.00    +0.022 C 
ATOM     15  C   UNL     1       6.453   7.079  -2.318  0.00  0.00    +0.022 C 
BRANCH  13  16
ATOM     16  C   UNL     1       7.702   5.422  -3.697  0.00  0.00    +0.310 C 
ATOM     17  O   UNL     1       7.560   6.165  -4.659  0.00  0.00    -0.250 OA
BRANCH  16  18
ATOM     18  O   UNL     1       8.386   4.260  -3.811  0.00  0.00    -0.480 OA
ATOM     19  H   UNL     1       8.439   3.730  -2.997  0.00  0.00    +0.295 HD
ENDBRANCH  16  18
ENDBRANCH  13  16
ENDBRANCH  12  13
ENDBRANCH  11  12
ENDBRANCH   1  11
TORSDOF 7
