REMARK  Name = 
REMARK  29 active torsions:
REMARK  status: ('A' for Active; 'I' for Inactive)
REMARK    1  A    between atoms: C_1  and  C_2
REMARK    2  A    between atoms: C_2  and  C_3
REMARK    3  A    between atoms: C_3  and  C_4
REMARK    4  A    between atoms: C_4  and  C_5
REMARK    5  A    between atoms: C_5  and  C_6
REMARK    6  A    between atoms: C_6  and  C_7
REMARK    7  A    between atoms: C_7  and  C_8
REMARK    8  A    between atoms: C_8  and  C_9
REMARK    9  A    between atoms: C_9  and  C_10
REMARK   10  A    between atoms: C_10  and  C_11
REMARK   11  A    between atoms: C_11  and  C_12
REMARK   12  A    between atoms: C_12  and  C_13
REMARK   13  A    between atoms: C_13  and  C_15
REMARK   14  A    between atoms: C_13  and  O_19
REMARK   15  A    between atoms: C_15  and  C_16
REMARK   16  A    between atoms: C_16  and  O_17
REMARK   17  A    between atoms: O_19  and  C_20
REMARK   18  A    between atoms: C_20  and  C_22
REMARK   19  A    between atoms: C_22  and  C_23
REMARK   20  A    between atoms: C_23  and  C_24
REMARK   21  A    between atoms: C_24  and  C_25
REMARK   22  A    between atoms: C_25  and  C_26
REMARK   23  A    between atoms: C_26  and  C_27
REMARK   24  A    between atoms: C_27  and  C_28
REMARK   25  A    between atoms: C_28  and  C_29
REMARK   26  A    between atoms: C_29  and  C_30
REMARK   27  A    between atoms: C_30  and  C_31
REMARK   28  A    between atoms: C_31  and  C_32
REMARK   29  A    between atoms: C_32  and  C_33
REMARK                            x       y       z     vdW  Elec       q    Type
REMARK                         _______ _______ _______ _____ _____    ______ ____
ROOT
ATOM      1  C   UNL     1      13.120   6.124  -5.919  0.00  0.00    +0.187 C 
ENDROOT
BRANCH   1   2
ATOM      2  C   UNL     1      12.461   7.416  -5.459  0.00  0.00    +0.165 C 
BRANCH   2   3
ATOM      3  C   UNL     1      12.776   7.848  -4.047  0.00  0.00    +0.308 C 
ATOM      4  O   UNL     1      12.726   9.025  -3.711  0.00  0.00    -0.251 OA
BRANCH   3   5
ATOM      5  O   UNL     1      13.027   6.882  -3.144  0.00  0.00    -0.481 OA
ATOM      6  H   UNL     1      13.096   5.954  -3.444  0.00  0.00    +0.295 HD
ENDBRANCH   3   5
ENDBRANCH   2   3
ENDBRANCH   1   2
BRANCH   1   7
ATOM      7  O   UNL     1      14.554   6.286  -5.885  0.00  0.00    -0.461 OA
BRANCH   7   8
ATOM      8  C   UNL     1      15.243   5.403  -5.106  0.00  0.00    +0.307 C 
ATOM      9  O   UNL     1      14.711   4.606  -4.345  0.00  0.00    -0.251 OA
BRANCH   8  10
ATOM     10  C   UNL     1      16.732   5.581  -5.290  0.00  0.00    +0.120 C 
BRANCH  10  11
ATOM     11  C   UNL     1      17.506   4.268  -5.168  0.00  0.00    +0.011 C 
BRANCH  11  12
ATOM     12  C   UNL     1      17.206   3.297  -6.314  0.00  0.00    +0.001 C 
BRANCH  12  13
ATOM     13  C   UNL     1      17.991   1.992  -6.164  0.00  0.00    +0.000 C 
BRANCH  13  14
ATOM     14  C   UNL     1      17.657   1.021  -7.296  0.00  0.00    +0.000 C 
BRANCH  14  15
ATOM     15  C   UNL     1      18.428  -0.291  -7.154  0.00  0.00    +0.000 C 
BRANCH  15  16
ATOM     16  C   UNL     1      18.085  -1.250  -8.293  0.00  0.00    -0.000 C 
BRANCH  16  17
ATOM     17  C   UNL     1      18.851  -2.566  -8.160  0.00  0.00    -0.000 C 
BRANCH  17  18
ATOM     18  C   UNL     1      18.504  -3.519  -9.303  0.00  0.00    -0.000 C 
BRANCH  18  19
ATOM     19  C   UNL     1      19.270  -4.835  -9.173  0.00  0.00    -0.000 C 
BRANCH  19  20
ATOM     20  C   UNL     1      18.926  -5.791 -10.313  0.00  0.00    -0.003 C 
ATOM     21  C   UNL     1      19.690  -7.099 -10.185  0.00  0.00    +0.004 C 
ENDBRANCH  19  20
ENDBRANCH  18  19
ENDBRANCH  17  18
ENDBRANCH  16  17
ENDBRANCH  15  16
ENDBRANCH  14  15
ENDBRANCH  13  14
ENDBRANCH  12  13
ENDBRANCH  11  12
ENDBRANCH  10  11
ENDBRANCH   8  10
ENDBRANCH   7   8
ENDBRANCH   1   7
BRANCH   1  22
ATOM     22  C   UNL     1      12.715   5.771  -7.359  0.00  0.00    +0.045 C 
BRANCH  22  23
ATOM     23  C   UNL     1      13.432   4.500  -7.812  0.00  0.00    +0.004 C 
BRANCH  23  24
ATOM     24  C   UNL     1      13.002   4.037  -9.196  0.00  0.00    +0.000 C 
BRANCH  24  25
ATOM     25  C   UNL     1      13.792   2.783  -9.561  0.00  0.00    +0.000 C 
BRANCH  25  26
ATOM     26  C   UNL     1      13.420   2.261 -10.940  0.00  0.00    +0.000 C 
BRANCH  26  27
ATOM     27  C   UNL     1      14.233   1.010 -11.260  0.00  0.00    -0.000 C 
BRANCH  27  28
ATOM     28  C   UNL     1      13.868   0.475 -12.638  0.00  0.00    -0.000 C 
BRANCH  28  29
ATOM     29  C   UNL     1      14.674  -0.777 -12.968  0.00  0.00    -0.000 C 
BRANCH  29  30
ATOM     30  C   UNL     1      14.294  -1.301 -14.349  0.00  0.00    -0.000 C 
BRANCH  30  31
ATOM     31  C   UNL     1      15.091  -2.553 -14.701  0.00  0.00    -0.000 C 
BRANCH  31  33
ATOM     32  C   UNL     1      15.496  -4.316 -16.442  0.00  0.00    +0.004 C 
ATOM     33  C   UNL     1      14.708  -3.067 -16.086  0.00  0.00    -0.003 C 
ENDBRANCH  31  33
ENDBRANCH  30  31
ENDBRANCH  29  30
ENDBRANCH  28  29
ENDBRANCH  27  28
ENDBRANCH  26  27
ENDBRANCH  25  26
ENDBRANCH  24  25
ENDBRANCH  23  24
ENDBRANCH  22  23
ENDBRANCH   1  22
TORSDOF 27
