REMARK  Name = 
REMARK  9 active torsions:
REMARK  status: ('A' for Active; 'I' for Inactive)
REMARK    1  A    between atoms: O_1  and  C_2
REMARK    2  A    between atoms: C_2  and  C_4
REMARK    3  A    between atoms: C_4  and  C_5
REMARK    4  A    between atoms: C_5  and  C_7
REMARK    5  A    between atoms: C_5  and  C_14
REMARK    6  A    between atoms: C_7  and  O_9
REMARK    7  A    between atoms: C_7  and  C_11
REMARK    8  A    between atoms: C_11  and  O_12
REMARK    9  A    between atoms: C_14  and  O_15
REMARK                            x       y       z     vdW  Elec       q    Type
REMARK                         _______ _______ _______ _____ _____    ______ ____
ROOT
ATOM      1  C   UNL     1       4.626   0.352   1.048  0.00  0.00    +0.000 C 
ENDROOT
BRANCH   1   2
ATOM      2  C   UNL     1       5.389   0.719   2.309  0.00  0.00    +0.000 C 
ATOM      3  O   UNL     1       5.464   1.885   2.661  0.00  0.00    +0.000 OA
BRANCH   2   4
ATOM      4  O   UNL     1       5.996  -0.232   3.050  0.00  0.00    +0.000 OA
ATOM      5  H   UNL     1       5.980  -1.166   2.799  0.00  0.00    +0.000 HD
ENDBRANCH   2   4
ENDBRANCH   1   2
BRANCH   1   6
ATOM      6  C   UNL     1       3.144   0.783   1.175  0.00  0.00    +0.000 C 
BRANCH   6   7
ATOM      7  C   UNL     1       2.454   0.138   2.354  0.00  0.00    +0.000 C 
ATOM      8  O   UNL     1       2.000   0.836   3.245  0.00  0.00    +0.000 OA
BRANCH   7   9
ATOM      9  O   UNL     1       2.317  -1.204   2.432  0.00  0.00    +0.000 OA
ATOM     10  H   UNL     1       2.639  -1.793   1.735  0.00  0.00    +0.000 HD
ENDBRANCH   7   9
ENDBRANCH   6   7
ENDBRANCH   1   6
BRANCH   1  11
ATOM     11  C   UNL     1       5.312   1.015  -0.176  0.00  0.00    +0.000 C 
BRANCH  11  12
ATOM     12  C   UNL     1       4.633   0.692  -1.486  0.00  0.00    +0.000 C 
ATOM     13  O   UNL     1       4.530  -0.468  -1.854  0.00  0.00    +0.000 OA
BRANCH  12  14
ATOM     14  O   UNL     1       4.141   1.675  -2.270  0.00  0.00    +0.000 OA
ATOM     15  H   UNL     1       4.217   2.609  -2.030  0.00  0.00    +0.000 HD
ENDBRANCH  12  14
ENDBRANCH  11  12
BRANCH  11  16
ATOM     16  O   UNL     1       6.658   0.633  -0.247  0.00  0.00    +0.000 OA
ATOM     17 CA   UNL     1       6.768  -1.647  -0.464  0.00  0.00    +0.000 Ca
ENDBRANCH  11  16
ENDBRANCH   1  11
TORSDOF 9
