REMARK  Name = 
REMARK  10 active torsions:
REMARK  status: ('A' for Active; 'I' for Inactive)
REMARK    1  A    between atoms: C_5  and  C_6
REMARK    2  A    between atoms: C_7  and  C_8
REMARK    3  A    between atoms: C_9  and  C_10
REMARK    4  A    between atoms: CA_14  and  C_33
REMARK    5  A    between atoms: CA_18  and  N_20
REMARK    6  A    between atoms: C_21  and  C_23
REMARK    7  A    between atoms: C_23  and  C_27
REMARK    8  A    between atoms: N_24  and  O_25
REMARK    9  A    between atoms: O_25  and  C_26
REMARK   10  A    between atoms: C_33  and  O_34
REMARK                            x       y       z     vdW  Elec       q    Type
REMARK                         _______ _______ _______ _____ _____    ______ ____
ROOT
ATOM      1  C   UNL     1       1.780  -0.193  -0.631  0.00  0.00    +0.169 C 
ATOM      2  CA  UNL     1       2.737  -1.461  -0.645  0.00  0.00    +0.191 C 
ATOM      3  C   UNL     1       3.471  -0.629  -1.753  0.00  0.00    +0.244 C 
ATOM      4  O   UNL     1       4.449  -0.818  -2.429  0.00  0.00    -0.273 OA
ATOM      5  N   UNL     1       2.820   0.478  -1.340  0.00  0.00    -0.249 N 
ATOM      6  CA  UNL     1       2.997   1.813  -1.567  0.00  0.00    +0.126 C 
ATOM      7  C   UNL     1       2.530   2.697  -0.628  0.00  0.00    -0.009 C 
ATOM      8  C   UNL     1       1.767   2.336   0.615  0.00  0.00    +0.108 C 
ATOM      9  S   UNL     1       1.071   0.664   0.757  0.00  0.00    -0.131 S 
ENDROOT
BRANCH   2  10
ATOM     10  N   UNL     1       3.722  -2.009   0.374  0.00  0.00    -0.296 N 
ATOM     11  H   UNL     1       3.527  -2.925   0.774  0.00  0.00    +0.150 HD
ATOM     12  C   UNL     1       5.014  -1.627   0.764  0.00  0.00    +0.268 C 
ATOM     13  O   UNL     1       5.645  -2.392   1.496  0.00  0.00    -0.268 OA
BRANCH  12  14
ATOM     14  C   UNL     1       5.607  -0.250   0.479  0.00  0.00    +0.190 C 
ATOM     15  N   UNL     1       5.136   0.907   0.855  0.00  0.00    -0.078 NA
BRANCH  14  16
ATOM     16  C   UNL     1       6.992  -0.088   0.016  0.00  0.00    +0.107 A 
ATOM     17  N   UNL     1       8.013  -0.348   0.931  0.00  0.00    -0.223 NA
ATOM     18  C   UNL     1       9.117   0.259   0.585  0.00  0.00    +0.156 A 
ATOM     19  N   UNL     1      10.191   0.304   1.390  0.00  0.00    -0.338 N 
ATOM     20  H   UNL     1      10.154  -0.316   2.192  0.00  0.00    +0.144 HD
ATOM     21  H   UNL     1      11.108   0.409   0.978  0.00  0.00    +0.144 HD
ATOM     22  S   UNL     1       9.076   1.030  -0.945  0.00  0.00    -0.060 S 
ATOM     23  C   UNL     1       7.405   0.638  -1.089  0.00  0.00    +0.078 A 
ENDBRANCH  14  16
BRANCH  15  24
ATOM     24  O   UNL     1       4.103   1.088   1.780  0.00  0.00    -0.396 OA
ATOM     25  C   UNL     1       3.553  -0.013   2.466  0.00  0.00    +0.313 C 
ENDBRANCH  15  24
ENDBRANCH  12  14
ENDBRANCH   2  10
BRANCH   6  26
ATOM     26  C   UNL     1       3.712   2.141  -2.822  0.00  0.00    +0.352 C 
ATOM     27  OXT UNL     1       3.501   1.525  -3.858  0.00  0.00    -0.244 OA
BRANCH  26  28
ATOM     28  O   UNL     1       4.622   3.130  -2.757  0.00  0.00    -0.476 OA
ATOM     29  H   UNL     1       4.707   3.538  -1.880  0.00  0.00    +0.295 HD
ENDBRANCH  26  28
ENDBRANCH   6  26
BRANCH   7  30
ATOM     30  C   UNL     1       2.814   4.131  -0.669  0.00  0.00    +0.007 C 
ATOM     31  C   UNL     1       2.288   5.056  -1.483  0.00  0.00    +0.017 C 
BRANCH  31  32
ATOM     32  C   UNL     1       1.268   4.830  -2.453  0.00  0.00    +0.035 A 
ATOM     33  S   UNL     1      -0.091   3.804  -2.150  0.00  0.00    -0.076 S 
ATOM     34  C   UNL     1      -0.798   4.296  -3.615  0.00  0.00    +0.156 A 
ATOM     35  N   UNL     1      -0.094   5.127  -4.345  0.00  0.00    -0.252 NA
ATOM     36  C   UNL     1       1.101   5.420  -3.703  0.00  0.00    +0.053 A 
ATOM     37  C   UNL     1       2.043   6.330  -4.411  0.00  0.00    +0.067 C 
ENDBRANCH  31  32
ENDBRANCH   7  30
TORSDOF 8
