REMARK  Name = 
REMARK  10 active torsions:
REMARK  status: ('A' for Active; 'I' for Inactive)
REMARK    1  A    between atoms: C_1  and  C_2
REMARK    2  A    between atoms: C_2  and  C_3
REMARK    3  A    between atoms: C_2  and  O_8
REMARK    4  A    between atoms: C_3  and  C_4
REMARK    5  A    between atoms: C_4  and  C_5
REMARK    6  A    between atoms: C_4  and  C_6
REMARK    7  A    between atoms: C_4  and  O_7
REMARK    8  A    between atoms: O_8  and  C_9
REMARK    9  A    between atoms: C_9  and  O_10
REMARK   10  A    between atoms: C_9  and  C_11
REMARK                            x       y       z     vdW  Elec       q    Type
REMARK                         _______ _______ _______ _____ _____    ______ ____
ROOT
ATOM      1  C   UNL     1       1.016  -0.071  -0.214  0.00  0.00    +0.038 C 
ATOM      2  C   UNL     1       2.533  -0.182  -0.016  0.00  0.00    +0.121 C 
ENDROOT
BRANCH   2   3
ATOM      3  O   UNL     1       3.080  -1.231  -0.821  0.00  0.00    -0.344 OA
BRANCH   3   4
ATOM      4  C   UNL     1       3.035  -1.023  -2.240  0.00  0.00    +0.299 C 
BRANCH   4   5
ATOM      5  C   UNL     1       3.618  -2.258  -3.060  0.00  0.00    +0.241 C 
ATOM      6 CL   UNL     1       4.962  -1.744  -4.155  0.00  0.00    -0.078 Cl
ATOM      7 CL   UNL     1       2.334  -2.990  -4.095  0.00  0.00    -0.078 Cl
ATOM      8 CL   UNL     1       4.275  -3.566  -2.011  0.00  0.00    -0.078 Cl
ENDBRANCH   4   5
BRANCH   4   9
ATOM      9  O   UNL     1       3.656   0.232  -2.545  0.00  0.00    -0.364 OA
ATOM     10  H   UNL     1       4.609   0.060  -2.654  0.00  0.00    +0.213 HD
ENDBRANCH   4   9
ENDBRANCH   3   4
ENDBRANCH   2   3
BRANCH   2  11
ATOM     11  C   UNL     1       2.799  -0.516   1.463  0.00  0.00    +0.065 C 
BRANCH  11  12
ATOM     12  C   UNL     1       4.265  -0.529   1.954  0.00  0.00    +0.063 C 
ATOM     13  C   UNL     1       4.917   0.849   1.874  0.00  0.00    +0.041 C 
ATOM     14  C   UNL     1       5.148  -1.570   1.268  0.00  0.00    +0.041 C 
BRANCH  12  15
ATOM     15  O   UNL     1       4.219  -0.871   3.351  0.00  0.00    -0.389 OA
ATOM     16  H   UNL     1       3.887  -1.783   3.424  0.00  0.00    +0.210 HD
ENDBRANCH  12  15
ENDBRANCH  11  12
ENDBRANCH   2  11
TORSDOF 7
