REMARK  Name = 
REMARK  11 active torsions:
REMARK  status: ('A' for Active; 'I' for Inactive)
REMARK    1  A    between atoms: C_1  and  C_2
REMARK    2  A    between atoms: C_7  and  C_8
REMARK    3  A    between atoms: C_8  and  C_9
REMARK    4  A    between atoms: N_11  and  C_12
REMARK    5  A    between atoms: C_14  and  C_15
REMARK    6  A    between atoms: C_16  and  S_20
REMARK    7  A    between atoms: C_17  and  C_18
REMARK    8  A    between atoms: S_20  and  N_23
REMARK    9  A    between atoms: N_23  and  C_24
REMARK   10  A    between atoms: C_24  and  C_25
REMARK   11  A    between atoms: C_25  and  O_26
REMARK                            x       y       z     vdW  Elec       q    Type
REMARK                         _______ _______ _______ _____ _____    ______ ____
ROOT
ATOM      1  C   UNL     1      -1.397  -3.150  -0.355  0.00  0.00    +0.034 A 
ATOM      2  C   UNL     1      -1.892  -1.850  -0.235  0.00  0.00    +0.028 A 
ATOM      3  C   UNL     1      -3.279  -1.583  -0.096  0.00  0.00    -0.022 A 
ATOM      4  C   UNL     1      -3.662  -0.126  -0.050  0.00  0.00    +0.046 C 
ATOM      5  C   UNL     1      -4.196  -2.665  -0.084  0.00  0.00    +0.111 A 
ATOM      6  C   UNL     1      -3.698  -3.989  -0.145  0.00  0.00    -0.022 A 
ATOM      7  C   UNL     1      -4.554  -5.228  -0.131  0.00  0.00    +0.046 C 
ATOM      8  C   UNL     1      -2.306  -4.200  -0.273  0.00  0.00    +0.028 A 
ENDROOT
BRANCH   1  10
ATOM      9  C   UNL     1       0.623  -4.513  -0.934  0.00  0.00    +0.222 C 
ATOM     10  N   UNL     1      -0.006  -3.331  -0.556  0.00  0.00    -0.285 N 
ATOM     11  H   UNL     1       0.568  -2.498  -0.546  0.00  0.00    +0.155 HD
ATOM     12  O   UNL     1       0.060  -5.570  -1.214  0.00  0.00    -0.275 OA
BRANCH   9  13
ATOM     13  C   UNL     1       2.145  -4.418  -0.991  0.00  0.00    +0.131 C 
BRANCH  13  16
ATOM     14  C   UNL     1       4.199  -2.187  -1.316  0.00  0.00    +0.044 C 
ATOM     15  C   UNL     1       3.655  -2.964  -2.484  0.00  0.00    -0.047 A 
ATOM     16  C   UNL     1       2.695  -3.990  -2.338  0.00  0.00    -0.036 A 
ATOM     17  C   UNL     1       2.292  -4.703  -3.484  0.00  0.00    +0.004 A 
ATOM     18  C   UNL     1       2.804  -4.399  -4.746  0.00  0.00    +0.000 A 
ATOM     19  C   UNL     1       3.744  -3.388  -4.885  0.00  0.00    +0.000 A 
ATOM     20  C   UNL     1       4.171  -2.682  -3.762  0.00  0.00    +0.003 A 
ENDBRANCH  13  16
ENDBRANCH   9  13
ENDBRANCH   1  10
BRANCH   5  21
ATOM     21  S   UNL     1      -5.968  -2.349  -0.170  0.00  0.00    +0.059 S 
ATOM     22  O   UNL     1      -6.726  -3.574  -0.248  0.00  0.00    -0.153 OA
ATOM     23  O   UNL     1      -6.178  -1.297  -1.144  0.00  0.00    -0.153 OA
BRANCH  21  24
ATOM     24  N   UNL     1      -6.363  -1.645   1.335  0.00  0.00    -0.179 NA
ATOM     25  H   UNL     1      -7.134  -0.996   1.130  0.00  0.00    +0.149 HD
BRANCH  24  26
ATOM     26  C   UNL     1      -6.687  -2.626   2.419  0.00  0.00    +0.226 C 
BRANCH  26  27
ATOM     27  C   UNL     1      -7.045  -1.871   3.691  0.00  0.00    +0.320 C 
ATOM     28  O   UNL     1      -7.693  -2.332   4.619  0.00  0.00    -0.250 OA
BRANCH  27  29
ATOM     29  O   UNL     1      -6.529  -0.614   3.704  0.00  0.00    -0.480 OA
ATOM     30  H   UNL     1      -6.015  -0.472   2.878  0.00  0.00    +0.295 HD
ENDBRANCH  27  29
ENDBRANCH  26  27
ENDBRANCH  24  26
ENDBRANCH  21  24
ENDBRANCH   5  21
TORSDOF 8
