REMARK  Name = 
REMARK  26 active torsions:
REMARK  status: ('A' for Active; 'I' for Inactive)
REMARK    1  A    between atoms: C_2  and  O_15
REMARK    2  A    between atoms: C_4  and  C_5
REMARK    3  A    between atoms: C_4  and  O_6
REMARK    4  A    between atoms: O_6  and  C_7
REMARK    5  A    between atoms: C_8  and  O_10
REMARK    6  A    between atoms: C_11  and  C_13
REMARK    7  A    between atoms: O_15  and  C_16
REMARK    8  A    between atoms: C_18  and  C_20
REMARK    9  A    between atoms: C_21  and  O_23
REMARK   10  A    between atoms: O_23  and  C_24
REMARK   11  A    between atoms: C_27  and  C_29
REMARK   12  A    between atoms: C_31  and  N_36
REMARK   13  A    between atoms: C_33  and  O_35
REMARK   14  A    between atoms: N_36  and  C_37
REMARK   15  A    between atoms: N_36  and  C_38
REMARK   16  A    between atoms: C_39  and  C_40
REMARK   17  A    between atoms: C_39  and  O_66
REMARK   18  A    between atoms: C_42  and  C_44
REMARK   19  A    between atoms: C_47  and  C_49
REMARK   20  A    between atoms: C_50  and  O_52
REMARK   21  A    between atoms: C_53  and  C_54
REMARK   22  A    between atoms: C_53  and  O_55
REMARK   23  A    between atoms: C_56  and  C_58
REMARK   24  A    between atoms: C_58  and  C_59
REMARK   25  A    between atoms: C_63  and  C_65
REMARK   26  A    between atoms: O_66  and  C_67
REMARK                            x       y       z     vdW  Elec       q    Type
REMARK                         _______ _______ _______ _____ _____    ______ ____
ROOT
ATOM      1  C   UNL     1      -1.342   2.067  -0.572  0.00  0.00    +0.140 C 
ATOM      2  C   UNL     1      -1.454   1.492  -2.144  0.00  0.00    +0.124 C 
ATOM      3  C   UNL     1      -0.241   1.569  -3.072  0.00  0.00    +0.022 C 
ATOM      4  C   UNL     1      -2.365   0.401  -2.749  0.00  0.00    +0.313 C 
ATOM      5  O   UNL     1      -3.573   0.610  -2.883  0.00  0.00    -0.250 OA
ATOM      6  O   UNL     1      -1.803  -0.674  -3.397  0.00  0.00    -0.458 OA
ATOM      7  C   UNL     1      -0.700  -1.583  -2.990  0.00  0.00    +0.210 C 
ATOM      8  C   UNL     1       0.510  -1.710  -4.081  0.00  0.00    +0.126 C 
ATOM      9  C   UNL     1       0.185  -2.962  -4.974  0.00  0.00    +0.048 C 
ATOM     10  C   UNL     1       2.017  -1.964  -3.583  0.00  0.00    +0.159 C 
ATOM     11  C   UNL     1       3.162  -0.867  -3.510  0.00  0.00    +0.084 C 
ATOM     12  C   UNL     1       3.076   0.199  -4.564  0.00  0.00    +0.018 C 
ATOM     13  C   UNL     1       3.690  -0.491  -2.133  0.00  0.00    +0.142 C 
ATOM     14  O   UNL     1       3.737  -1.440  -1.330  0.00  0.00    -0.297 OA
ATOM     15  C   UNL     1       4.523   0.806  -1.789  0.00  0.00    +0.055 C 
ATOM     16  C   UNL     1       5.882   0.456  -1.134  0.00  0.00    +0.015 C 
ATOM     17  C   UNL     1       3.958   2.066  -1.023  0.00  0.00    +0.048 C 
ATOM     18  C   UNL     1       2.588   2.712  -1.298  0.00  0.00    +0.093 C 
ATOM     19  C   UNL     1       2.702   4.275  -1.093  0.00  0.00    +0.044 C 
ATOM     20  C   UNL     1       1.409   2.243  -0.211  0.00  0.00    +0.158 C 
ATOM     21  C   UNL     1      -0.076   2.987  -0.461  0.00  0.00    +0.047 C 
ATOM     22  C   UNL     1      -0.286   4.220  -1.383  0.00  0.00    +0.013 C 
ENDROOT
BRANCH   7  23
ATOM     23  C   UNL     1      -0.342  -1.443  -1.515  0.00  0.00    +0.044 C 
ATOM     24  C   UNL     1      -1.528  -1.468  -0.550  0.00  0.00    +0.007 C 
ENDBRANCH   7  23
BRANCH   8  25
ATOM     25  O   UNL     1       0.463  -0.618  -5.005  0.00  0.00    -0.383 OA
ATOM     26  H   UNL     1       0.808  -0.907  -5.868  0.00  0.00    +0.210 HD
ENDBRANCH   8  25
BRANCH  10  27
ATOM     27  O   UNL     1       2.046  -2.949  -2.548  0.00  0.00    -0.388 OA
ATOM     28  H   UNL     1       2.557  -2.589  -1.794  0.00  0.00    +0.210 HD
ENDBRANCH  10  27
BRANCH  18  29
ATOM     29  O   UNL     1       2.356   2.527  -2.704  0.00  0.00    -0.374 OA
ATOM     30  C   UNL     1       3.261   3.206  -3.602  0.00  0.00    +0.194 C 
ENDBRANCH  18  29
BRANCH   1  31
ATOM     31  O   UNL     1      -1.405   1.293   0.677  0.00  0.00    -0.347 OA
BRANCH  31  32
ATOM     32  C   UNL     1      -1.898   1.994   1.919  0.00  0.00    +0.254 C 
ATOM     33  O   UNL     1      -1.499   3.348   2.212  0.00  0.00    -0.346 OA
ATOM     34  C   UNL     1      -0.540   3.584   3.256  0.00  0.00    +0.149 C 
ATOM     35  C   UNL     1      -0.431   5.104   3.485  0.00  0.00    +0.041 C 
ATOM     36  C   UNL     1      -0.921   2.950   4.598  0.00  0.00    +0.175 C 
ATOM     37  C   UNL     1      -1.066   1.430   4.445  0.00  0.00    +0.099 C 
ATOM     38  C   UNL     1      -1.673   0.902   5.778  0.00  0.00    +0.044 C 
ATOM     39  C   UNL     1      -1.960   1.092   3.209  0.00  0.00    +0.098 C 
BRANCH  36  40
ATOM     40  O   UNL     1       0.097   3.229   5.586  0.00  0.00    -0.386 OA
ATOM     41  H   UNL     1       0.817   2.594   5.386  0.00  0.00    +0.210 HD
ENDBRANCH  36  40
BRANCH  37  42
ATOM     42  O   UNL     1       0.299   0.962   4.336  0.00  0.00    -0.374 OA
ATOM     43  C   UNL     1       0.512  -0.435   4.429  0.00  0.00    +0.194 C 
ENDBRANCH  37  42
ENDBRANCH  31  32
ENDBRANCH   1  31
BRANCH  20  44
ATOM     44  O   UNL     1       1.215   0.936   0.461  0.00  0.00    -0.342 OA
BRANCH  44  45
ATOM     45  C   UNL     1       2.077  -0.193   0.796  0.00  0.00    +0.281 C 
ATOM     46  C   UNL     1       3.305  -0.146   1.790  0.00  0.00    +0.187 C 
ATOM     47  C   UNL     1       4.155  -1.491   1.624  0.00  0.00    +0.092 C 
ATOM     48  C   UNL     1       3.291  -2.652   2.110  0.00  0.00    +0.053 C 
ATOM     49  C   UNL     1       1.905  -2.599   1.441  0.00  0.00    +0.120 C 
ATOM     50  C   UNL     1       1.003  -3.563   2.219  0.00  0.00    +0.038 C 
ATOM     51  O   UNL     1       1.276  -1.293   1.382  0.00  0.00    -0.346 OA
BRANCH  47  52
ATOM     52  N   UNL     1       5.595  -1.456   2.040  0.00  0.00    -0.303 NA
ATOM     53  C   UNL     1       6.413  -2.578   1.525  0.00  0.00    +0.105 C 
ATOM     54  C   UNL     1       5.846  -1.249   3.462  0.00  0.00    +0.105 C 
ENDBRANCH  47  52
BRANCH  46  55
ATOM     55  O   UNL     1       4.163   0.965   1.688  0.00  0.00    -0.385 OA
ATOM     56  H   UNL     1       4.903   0.656   1.135  0.00  0.00    +0.210 HD
ENDBRANCH  46  55
ENDBRANCH  44  45
ENDBRANCH  20  44
TORSDOF 12
