REMARK  Name = 
REMARK  3 active torsions:
REMARK  status: ('A' for Active; 'I' for Inactive)
REMARK    1  A    between atoms: C_1  and  C_2
REMARK    2  A    between atoms: C_1  and  C_9
REMARK    3  A    between atoms: C_2  and  C_3
REMARK                            x       y       z     vdW  Elec       q    Type
REMARK                         _______ _______ _______ _____ _____    ______ ____
ROOT
ATOM      1  C   UNL     1       2.457  -0.082  -0.027  0.00  0.00    -0.022 A 
ATOM      2  C   UNL     1       3.392  -0.087  -1.116  0.00  0.00    +0.003 A 
ATOM      3  C   UNL     1       4.675  -0.143  -0.568  0.00  0.00    +0.047 A 
ATOM      4  C   UNL     1       5.839  -0.152  -1.347  0.00  0.00    +0.026 A 
ATOM      5  C   UNL     1       5.690  -0.104  -2.736  0.00  0.00    +0.002 A 
ATOM      6  C   UNL     1       4.425  -0.051  -3.316  0.00  0.00    +0.001 A 
ATOM      7  N   UNL     1       4.529  -0.176   0.798  0.00  0.00    -0.360 N 
ATOM      8  H   UNL     1       5.298  -0.214   1.453  0.00  0.00    +0.165 HD
ATOM      9  C   UNL     1       3.271  -0.041  -2.521  0.00  0.00    +0.010 A 
ATOM     10  C   UNL     1       3.204  -0.141   1.135  0.00  0.00    +0.087 A 
ENDROOT
BRANCH   1  11
ATOM     11  C   UNL     1       0.960  -0.013  -0.103  0.00  0.00    +0.042 C 
BRANCH  11  12
ATOM     12  C   UNL     1       0.310  -1.401  -0.116  0.00  0.00    +0.040 C 
BRANCH  12  13
ATOM     13  C   UNL     1      -1.199  -1.340  -0.103  0.00  0.00    -0.044 A 
ATOM     14  C   UNL     1      -1.906  -1.367   1.102  0.00  0.00    +0.023 A 
ATOM     15  C   UNL     1      -3.292  -1.321   1.065  0.00  0.00    +0.111 A 
ATOM     16  N   UNL     1      -4.012  -1.244  -0.075  0.00  0.00    -0.263 NA
ATOM     17  C   UNL     1      -3.311  -1.210  -1.228  0.00  0.00    +0.111 A 
ATOM     18  C   UNL     1      -1.925  -1.252  -1.294  0.00  0.00    +0.023 A 
ENDBRANCH  12  13
ENDBRANCH  11  12
ENDBRANCH   1  11
TORSDOF 3
