REMARK  Name = 
REMARK  2 active torsions:
REMARK  status: ('A' for Active; 'I' for Inactive)
REMARK    1  A    between atoms: N_1  and  C_2
REMARK    2  A    between atoms: C_3  and  S_4
REMARK                            x       y       z     vdW  Elec       q    Type
REMARK                         _______ _______ _______ _____ _____    ______ ____
ROOT
ATOM      1  C   UNL     1       2.371  -0.040  -0.098  0.00  0.00    +0.071 C 
ATOM      2  C   UNL     1       3.102  -0.575  -1.083  0.00  0.00    +0.051 C 
ENDROOT
BRANCH   1   3
ATOM      3  N   UNL     1       1.014   0.000  -0.024  0.00  0.00    -0.363 N 
ATOM      4  H   UNL     1       0.445  -0.400  -0.761  0.00  0.00    +0.142 HD
ATOM      5  H   UNL     1       0.558   0.432   0.772  0.00  0.00    +0.142 HD
ENDBRANCH   1   3
BRANCH   2   6
ATOM      6  S   UNL     1       4.831  -0.574  -1.081  0.00  0.00    -0.149 S 
ATOM      7  H   UNL     1       5.050   0.057   0.082  0.00  0.00    +0.107 HD
ENDBRANCH   2   6
TORSDOF 2
