REMARK  Name = 
REMARK  4 active torsions:
REMARK  status: ('A' for Active; 'I' for Inactive)
REMARK    1  A    between atoms: C_1  and  C_2
REMARK    2  A    between atoms: N_5  and  S_6
REMARK    3  A    between atoms: S_6  and  C_9
REMARK    4  A    between atoms: C_12  and  N_13
REMARK                            x       y       z     vdW  Elec       q    Type
REMARK                         _______ _______ _______ _____ _____    ______ ____
ROOT
ATOM      1  S   UNL     1       4.325  -3.797  -0.100  0.00  0.00    +0.075 S 
ATOM      2  O   UNL     1       3.635  -3.661  -1.364  0.00  0.00    -0.150 OA
ATOM      3  O   UNL     1       3.607  -4.213   1.090  0.00  0.00    -0.150 OA
ENDROOT
BRANCH   1  10
ATOM      4  C   UNL     1       5.752   0.467  -3.470  0.00  0.00    +0.066 C 
ATOM      5  C   UNL     1       6.297  -0.499  -2.460  0.00  0.00    +0.043 A 
ATOM      6  C   UNL     1       7.649  -0.791  -2.435  0.00  0.00    +0.043 A 
ATOM      7  C   UNL     1       8.065  -1.652  -1.444  0.00  0.00    +0.116 A 
ATOM      8  N   UNL     1       7.238  -2.189  -0.530  0.00  0.00    -0.222 NA
ATOM      9  C   UNL     1       5.952  -1.855  -0.666  0.00  0.00    +0.235 A 
ATOM     10  N   UNL     1       5.106  -2.373   0.312  0.00  0.00    -0.184 N 
ATOM     11  H   UNL     1       5.607  -2.482   1.185  0.00  0.00    +0.177 HD
ATOM     12  N   UNL     1       5.428  -1.046  -1.586  0.00  0.00    -0.219 NA
ENDBRANCH   1  10
BRANCH   1  13
ATOM     13  C   UNL     1       5.643  -4.980  -0.329  0.00  0.00    +0.109 A 
ATOM     14  C   UNL     1       6.190  -5.165  -1.601  0.00  0.00    +0.030 A 
ATOM     15  C   UNL     1       7.211  -6.101  -1.782  0.00  0.00    +0.024 A 
ATOM     16  C   UNL     1       7.708  -6.840  -0.703  0.00  0.00    +0.025 A 
ATOM     17  C   UNL     1       7.075  -6.722   0.538  0.00  0.00    +0.024 A 
ATOM     18  C   UNL     1       6.057  -5.783   0.737  0.00  0.00    +0.030 A 
BRANCH  16  19
ATOM     19  N   UNL     1       8.658  -7.844  -0.918  0.00  0.00    -0.358 N 
ATOM     20  H   UNL     1       9.269  -7.669  -1.710  0.00  0.00    +0.142 HD
ATOM     21  H   UNL     1       9.178  -8.104  -0.085  0.00  0.00    +0.142 HD
ENDBRANCH  16  19
ENDBRANCH   1  13
TORSDOF 3
