REMARK  Name = 
REMARK  7 active torsions:
REMARK  status: ('A' for Active; 'I' for Inactive)
REMARK    1  A    between atoms: C_1  and  C_2
REMARK    2  A    between atoms: C_2  and  O_4
REMARK    3  A    between atoms: O_4  and  C_5
REMARK    4  A    between atoms: C_5  and  C_6
REMARK    5  A    between atoms: C_6  and  N_8
REMARK    6  A    between atoms: C_6  and  C_9
REMARK    7  A    between atoms: C_9  and  O_10
REMARK                            x       y       z     vdW  Elec       q    Type
REMARK                         _______ _______ _______ _____ _____    ______ ____
ROOT
ATOM      1  C   UNK     1       5.102  -2.390   0.939  0.00  0.00    +0.198 C 
ENDROOT
BRANCH   1   2
ATOM      2  N   UNK     1       4.704  -3.502   0.012  0.00  0.00    -0.316 NA
ATOM      3  H   UNK     1       4.865  -4.387   0.507  0.00  0.00    +0.119 HD
ATOM      4  H   UNK     1       3.684  -3.454  -0.093  0.00  0.00    +0.119 HD
ENDBRANCH   1   2
BRANCH   1   5
ATOM      5  C   UNK     1       6.628  -2.298   0.961  0.00  0.00    +0.325 C 
ATOM      6  O   UNK     1       7.290  -1.735   1.815  0.00  0.00    -0.249 OA
BRANCH   5   7
ATOM      7  O   UNK     1       7.170  -2.899  -0.133  0.00  0.00    -0.479 OA
ATOM      8  H   UNK     1       6.415  -3.286  -0.642  0.00  0.00    +0.295 HD
ENDBRANCH   5   7
ENDBRANCH   1   5
BRANCH   1   9
ATOM      9  C   UNK     1       4.544  -1.044   0.460  0.00  0.00    +0.262 C 
BRANCH   9  10
ATOM     10  O   UNK     1       3.102  -1.034   0.514  0.00  0.00    -0.463 OA
BRANCH  10  12
ATOM     11  C   UNK     1       1.083  -0.793   1.683  0.00  0.00    +0.136 C 
ATOM     12  C   UNK     1       2.580  -0.795   1.745  0.00  0.00    +0.304 C 
ATOM     13  O   UNK     1       3.227  -0.634   2.768  0.00  0.00    -0.251 OA
ENDBRANCH  10  12
ENDBRANCH   9  10
ENDBRANCH   1   9
TORSDOF 6
