REMARK  Name = 
REMARK  3 active torsions:
REMARK  status: ('A' for Active; 'I' for Inactive)
REMARK    1  A    between atoms: C_5  and  C_9
REMARK    2  A    between atoms: C_11  and  C_28
REMARK    3  A    between atoms: N_19  and  C_20
REMARK                            x       y       z     vdW  Elec       q    Type
REMARK                         _______ _______ _______ _____ _____    ______ ____
ROOT
ATOM      1  C   UNL     1       6.457  -0.264  -0.763  0.00  0.00    -0.010 A 
ATOM      2  C   UNL     1       7.180  -1.486  -0.956  0.00  0.00    -0.017 A 
ATOM      3  C   UNL     1       6.515  -2.835  -0.801  0.00  0.00    +0.047 C 
ATOM      4  C   UNL     1       7.265  -4.000  -1.402  0.00  0.00    +0.101 C 
ATOM      5  C   UNL     1       8.727  -3.950  -1.075  0.00  0.00    +0.225 C 
ATOM      6  N   UNL     1       9.314  -2.710  -1.297  0.00  0.00    -0.237 N 
ATOM      7  O   UNL     1       9.351  -4.969  -0.782  0.00  0.00    -0.275 OA
ATOM      8  C   UNL     1       8.577  -1.473  -1.227  0.00  0.00    +0.045 A 
ATOM      9  C   UNL     1       9.234  -0.237  -1.329  0.00  0.00    +0.028 A 
ATOM     10  C   UNL     1       8.577   0.989  -1.126  0.00  0.00    -0.042 A 
ATOM     11  C   UNL     1       7.198   0.947  -0.867  0.00  0.00    +0.013 A 
ENDROOT
BRANCH   1  17
ATOM     12  F   UNL     1       0.841   0.184   0.268  0.00  0.00    -0.205 F 
ATOM     13  C   UNL     1       2.161   0.086   0.055  0.00  0.00    +0.126 A 
ATOM     14  C   UNL     1       2.888  -0.939   0.632  0.00  0.00    +0.077 A 
ATOM     15  C   UNL     1       4.273  -1.015   0.420  0.00  0.00    +0.134 A 
ATOM     16  F   UNL     1       4.909  -1.937   1.149  0.00  0.00    -0.205 F 
ATOM     17  C   UNL     1       4.979  -0.163  -0.464  0.00  0.00    +0.018 A 
ATOM     18  C   UNL     1       4.190   0.880  -1.008  0.00  0.00    +0.014 A 
ATOM     19  C   UNL     1       2.810   1.010  -0.749  0.00  0.00    +0.039 A 
ENDBRANCH   1  17
BRANCH   6  20
ATOM     20  C   UNL     1      10.666  -2.716  -1.774  0.00  0.00    +0.078 A 
ATOM     21  C   UNL     1      11.753  -2.452  -0.927  0.00  0.00    +0.064 A 
ATOM     22 CL   UNL     1      11.546  -2.178   0.767  0.00  0.00    -0.082 Cl
ATOM     23  C   UNL     1      13.062  -2.422  -1.433  0.00  0.00    +0.022 A 
ATOM     24  C   UNL     1      13.307  -2.690  -2.781  0.00  0.00    +0.003 A 
ATOM     25  C   UNL     1      12.249  -3.030  -3.616  0.00  0.00    +0.022 A 
ATOM     26  C   UNL     1      10.940  -3.058  -3.117  0.00  0.00    +0.064 A 
ATOM     27 CL   UNL     1       9.695  -3.528  -4.225  0.00  0.00    -0.082 Cl
ENDBRANCH   6  20
BRANCH  10  28
ATOM     28  C   UNL     1       9.438   2.253  -0.983  0.00  0.00    +0.021 C 
ATOM     29  C   UNL     1       8.740   3.534  -0.485  0.00  0.00    +0.023 C 
ATOM     30  C   UNL     1       8.160   4.371  -1.618  0.00  0.00    +0.081 C 
ATOM     31  N   UNL     1       9.222   4.749  -2.545  0.00  0.00    -0.316 NA
ATOM     32  H   UNL     1       8.854   5.386  -3.251  0.00  0.00    +0.122 HD
ATOM     33  C   UNL     1       9.776   3.566  -3.195  0.00  0.00    +0.081 C 
ATOM     34  C   UNL     1      10.355   2.571  -2.189  0.00  0.00    +0.023 C 
ENDBRANCH  10  28
TORSDOF 3
