REMARK  Name = 
REMARK  10 active torsions:
REMARK  status: ('A' for Active; 'I' for Inactive)
REMARK    1  A    between atoms: N_1  and  CA_2
REMARK    2  A    between atoms: CA_2  and  CB_4
REMARK    3  A    between atoms: CA_2  and  C_18
REMARK    4  A    between atoms: CB_4  and  SG_5
REMARK    5  A    between atoms: SG_5  and  C_6
REMARK    6  A    between atoms: C_10  and  CA_12
REMARK    7  A    between atoms: CA_12  and  N_14
REMARK    8  A    between atoms: CA_12  and  C_15
REMARK    9  A    between atoms: C_15  and  O_16
REMARK   10  A    between atoms: C_18  and  O_19
REMARK                            x       y       z     vdW  Elec       q    Type
REMARK                         _______ _______ _______ _____ _____    ______ ____
ROOT
ATOM      1  C   UNL     1       3.050   4.194   0.173  0.00  0.00    +0.176 C 
ATOM      2  C   UNL     1       3.761   4.758  -0.989  0.00  0.00    +0.051 C 
ATOM      3  C   UNL     1       3.233   5.943  -1.287  0.00  0.00    +0.151 C 
ATOM      4  O   UNL     1       2.204   6.315  -0.433  0.00  0.00    -0.408 OA
ATOM      5  N   UNL     1       2.138   5.263   0.599  0.00  0.00    -0.139 NA
ATOM      6  H   UNL     1       2.552   5.764   1.383  0.00  0.00    +0.169 HD
ENDROOT
BRANCH   1   7
ATOM      7  SG  UNL     1       2.093   2.723  -0.298  0.00  0.00    -0.133 S 
BRANCH   7   8
ATOM      8  CB  UNL     1       3.457   1.587  -0.725  0.00  0.00    +0.101 C 
BRANCH   8   9
ATOM      9  CA  UNL     1       2.926   0.233  -1.214  0.00  0.00    +0.171 C 
BRANCH   9  10
ATOM     10  N   UNL     1       2.070  -0.474  -0.204  0.00  0.00    -0.318 NA
ATOM     11  H1  UNL     1       2.412  -0.226   0.731  0.00  0.00    +0.119 HD
ATOM     12  H2  UNL     1       1.157   0.000  -0.231  0.00  0.00    +0.119 HD
ENDBRANCH   9  10
BRANCH   9  13
ATOM     13  C   UNL     1       4.127  -0.663  -1.548  0.00  0.00    +0.323 C 
ATOM     14  OXT UNL     1       5.097  -0.322  -2.204  0.00  0.00    -0.249 OA
BRANCH  13  15
ATOM     15  O   UNL     1       3.982  -1.902  -1.011  0.00  0.00    -0.480 OA
ATOM     16  H   UNL     1       3.103  -1.894  -0.551  0.00  0.00    +0.295 HD
ENDBRANCH  13  15
ENDBRANCH   9  13
ENDBRANCH   8   9
ENDBRANCH   7   8
ENDBRANCH   1   7
BRANCH   3  17
ATOM     17  CA  UNL     1       3.590   6.893  -2.389  0.00  0.00    +0.229 C 
BRANCH  17  18
ATOM     18  N   UNL     1       4.637   6.351  -3.306  0.00  0.00    -0.312 NA
ATOM     19  H1  UNL     1       4.856   7.084  -3.990  0.00  0.00    +0.119 HD
ATOM     20  H2  UNL     1       5.499   6.264  -2.761  0.00  0.00    +0.119 HD
ENDBRANCH  17  18
BRANCH  17  21
ATOM     21  C   UNL     1       2.337   7.219  -3.232  0.00  0.00    +0.329 C 
ATOM     22  OXT UNL     1       1.508   8.075  -2.965  0.00  0.00    -0.249 OA
BRANCH  21  23
ATOM     23  O   UNL     1       2.270   6.445  -4.350  0.00  0.00    -0.479 OA
ATOM     24  H   UNL     1       3.061   5.856  -4.344  0.00  0.00    +0.295 HD
ENDBRANCH  21  23
ENDBRANCH  17  21
ENDBRANCH   3  17
TORSDOF 10
