REMARK  Name = 
REMARK  3 active torsions:
REMARK  status: ('A' for Active; 'I' for Inactive)
REMARK    1  A    between atoms: C_11  and  N_12
REMARK    2  A    between atoms: C_14  and  C_15
REMARK    3  A    between atoms: C_18  and  C_19
REMARK                            x       y       z     vdW  Elec       q    Type
REMARK                         _______ _______ _______ _____ _____    ______ ____
ROOT
ATOM      1  C   UNL     1       5.168   0.976  -3.573  0.00  0.00    +0.045 C 
ATOM      2  C   UNL     1       5.614   2.252  -2.860  0.00  0.00    -0.042 C 
ATOM      3  C   UNL     1       4.839   3.352  -2.687  0.00  0.00    -0.028 C 
ATOM      4  C   UNL     1       3.501   3.590  -3.326  0.00  0.00    +0.035 C 
ATOM      5  C   UNL     1       7.157   2.212  -2.714  0.00  0.00    +0.069 C 
ATOM      6  C   UNL     1       7.761   2.151  -4.164  0.00  0.00    +0.061 C 
ATOM      7  C   UNL     1       6.719   1.950  -5.244  0.00  0.00    -0.074 C 
ATOM      8  C   UNL     1       6.375   3.255  -5.938  0.00  0.00    +0.039 C 
ATOM      9  C   UNL     1       7.624   0.913  -2.043  0.00  0.00    -0.004 A 
ATOM     10  C   UNL     1       9.004   0.805  -1.570  0.00  0.00    +0.013 A 
ATOM     11  C   UNL     1       9.482  -0.337  -1.093  0.00  0.00    +0.070 A 
ATOM     12  C   UNL     1       8.610  -1.529  -1.003  0.00  0.00    +0.249 A 
ATOM     13  O   UNL     1       8.990  -2.595  -0.527  0.00  0.00    -0.268 OA
ATOM     14  N   UNL     1       7.346  -1.369  -1.496  0.00  0.00    -0.326 N 
ATOM     15  H   UNL     1       6.763  -2.198  -1.473  0.00  0.00    +0.169 HD
ATOM     16  C   UNL     1       6.865  -0.201  -2.050  0.00  0.00    +0.025 A 
ATOM     17  C   UNL     1       5.778   1.005  -4.989  0.00  0.00    -0.020 C 
ATOM     18  C   UNL     1       5.515  -0.264  -2.718  0.00  0.00    +0.065 C 
ENDROOT
BRANCH   5  19
ATOM     19  N   UNL     1       7.640   3.417  -2.024  0.00  0.00    -0.317 NA
ATOM     20  H   UNL     1       7.469   3.306  -1.030  0.00  0.00    +0.119 HD
ATOM     21  H   UNL     1       8.643   3.511  -2.143  0.00  0.00    +0.119 HD
ENDBRANCH   5  19
TORSDOF 1
