REMARK  Name = 
REMARK  7 active torsions:
REMARK  status: ('A' for Active; 'I' for Inactive)
REMARK    1  A    between atoms: C_6  and  O_7
REMARK    2  A    between atoms: O_7  and  C_8
REMARK    3  A    between atoms: C_9  and  O_10
REMARK    4  A    between atoms: O_10  and  C_11
REMARK    5  A    between atoms: N_17  and  C_18
REMARK    6  A    between atoms: C_20  and  O_22
REMARK    7  A    between atoms: C_25  and  O_26
REMARK                            x       y       z     vdW  Elec       q    Type
REMARK                         _______ _______ _______ _____ _____    ______ ____
ROOT
ATOM      1  C   UNL     1      -0.000  -0.000  -0.000  0.00  0.00    +0.093 C 
ATOM      2  C   UNL     1      -0.000  -0.000   0.000  0.00  0.00    +0.092 C 
ATOM      3  C   UNL     1      -0.000  -0.000  -0.000  0.00  0.00    +0.033 C 
ATOM      4  C   UNL     1      -0.000  -0.000  -0.000  0.00  0.00    +0.046 C 
ATOM      5  C   UNL     1      -0.000  -0.000  -0.000  0.00  0.00    +0.116 C 
ATOM      6  C   UNL     1      -0.000  -0.000   0.000  0.00  0.00    +0.034 C 
ATOM      7  C   UNL     1      -0.000  -0.000   0.000  0.00  0.00    +0.030 C 
ATOM      8  C   UNL     1      -0.000  -0.000   0.000  0.00  0.00    +0.085 C 
ATOM      9  C   UNL     1      -0.000  -0.000  -0.000  0.00  0.00    +0.010 A 
ATOM     10  C   UNL     1      -0.000  -0.000   0.000  0.00  0.00    +0.166 A 
ATOM     11  C   UNL     1      -0.000  -0.000  -0.000  0.00  0.00    +0.162 A 
ATOM     12  C   UNL     1      -0.000  -0.000  -0.000  0.00  0.00    +0.050 A 
ATOM     13  C   UNL     1      -0.000  -0.000  -0.000  0.00  0.00    +0.008 A 
ATOM     14  C   UNL     1      -0.000  -0.000  -0.000  0.00  0.00    -0.038 A 
ATOM     15  C   UNL     1      -0.000  -0.000  -0.000  0.00  0.00    +0.040 C 
ATOM     16  N   UNL     1      -0.000  -0.000  -0.000  0.00  0.00    -0.299 NA
ATOM     17  C   UNL     1      -0.000  -0.000   0.000  0.00  0.00    +0.105 C 
ATOM     18  C   UNL     1      -0.000  -0.000   0.000  0.00  0.00    +0.057 C 
ENDROOT
BRANCH   2  19
ATOM     19  O   UNL     1      -0.000  -0.000   0.000  0.00  0.00    -0.386 OA
ATOM     20  H   UNL     1       0.000   0.000   0.000  0.00  0.00    +0.210 HD
ENDBRANCH   2  19
BRANCH   5  21
ATOM     21  O   UNL     1      -0.000  -0.000  -0.000  0.00  0.00    -0.392 OA
ATOM     22  H   UNL     1       0.000   0.000   0.000  0.00  0.00    +0.210 HD
ENDBRANCH   5  21
BRANCH  10  23
ATOM     23  O   UNL     1      -0.000  -0.000  -0.000  0.00  0.00    -0.491 OA
ATOM     24  C   UNL     1      -0.000  -0.000   0.000  0.00  0.00    +0.277 C 
ENDBRANCH  10  23
BRANCH  11  25
ATOM     25  O   UNL     1      -0.000  -0.000  -0.000  0.00  0.00    -0.491 OA
ATOM     26  C   UNL     1      -0.000  -0.000  -0.000  0.00  0.00    +0.277 C 
ENDBRANCH  11  25
TORSDOF 4
