REMARK  Name = 
REMARK  6 active torsions:
REMARK  status: ('A' for Active; 'I' for Inactive)
REMARK    1  A    between atoms: N_1  and  C_2
REMARK    2  A    between atoms: C_2  and  C_3
REMARK    3  A    between atoms: C_2  and  C_8
REMARK    4  A    between atoms: C_3  and  C_4
REMARK    5  A    between atoms: C_4  and  C_5
REMARK    6  A    between atoms: C_5  and  O_6
REMARK                            x       y       z     vdW  Elec       q    Type
REMARK                         _______ _______ _______ _____ _____    ______ ____
ROOT
ATOM      1  C   UNL     1       2.476   0.062   0.042  0.00  0.00    +0.074 C 
ENDROOT
BRANCH   1   2
ATOM      2  N   UNL     1       1.017   0.112   0.028  0.00  0.00    -0.324 NA
ATOM      3  H   UNL     1       0.661  -0.450  -0.744  0.00  0.00    +0.119 HD
ATOM      4  H   UNL     1       0.655  -0.327   0.873  0.00  0.00    +0.119 HD
ENDBRANCH   1   2
BRANCH   1   5
ATOM      5  C   UNL     1       2.983   0.865  -1.122  0.00  0.00    -0.016 C 
ATOM      6  C   UNL     1       3.798   1.924  -1.015  0.00  0.00    +0.005 C 
ENDBRANCH   1   5
BRANCH   1   7
ATOM      7  C   UNL     1       2.958  -1.397  -0.002  0.00  0.00    +0.034 C 
BRANCH   7   8
ATOM      8  C   UNL     1       4.484  -1.515   0.067  0.00  0.00    +0.122 C 
BRANCH   8   9
ATOM      9  C   UNL     1       4.934  -2.956   0.057  0.00  0.00    +0.305 C 
ATOM     10  O   UNL     1       4.196  -3.927   0.029  0.00  0.00    -0.251 OA
BRANCH   9  11
ATOM     11  O   UNL     1       6.283  -3.071   0.085  0.00  0.00    -0.481 OA
ATOM     12  H   UNL     1       6.751  -2.215   0.099  0.00  0.00    +0.295 HD
ENDBRANCH   9  11
ENDBRANCH   8   9
ENDBRANCH   7   8
ENDBRANCH   1   7
TORSDOF 6
