REMARK  Name = 
REMARK  13 active torsions:
REMARK  status: ('A' for Active; 'I' for Inactive)
REMARK    1  A    between atoms: C_1  and  C_2
REMARK    2  A    between atoms: C_2  and  C_3
REMARK    3  A    between atoms: C_2  and  N_4
REMARK    4  A    between atoms: N_4  and  C_5
REMARK    5  A    between atoms: N_4  and  C_6
REMARK    6  A    between atoms: N_4  and  C_24
REMARK    7  A    between atoms: C_6  and  C_7
REMARK    8  A    between atoms: C_7  and  C_8
REMARK    9  A    between atoms: C_8  and  C_9
REMARK   10  A    between atoms: C_8  and  C_12
REMARK   11  A    between atoms: C_8  and  C_18
REMARK   12  A    between atoms: C_24  and  C_25
REMARK   13  A    between atoms: C_24  and  C_26
REMARK                            x       y       z     vdW  Elec       q    Type
REMARK                         _______ _______ _______ _____ _____    ______ ____
ROOT
ATOM      1  C   UNL     1       0.540   3.597  -1.535  0.00  0.00    +0.101 C 
ENDROOT
BRANCH   1   2
ATOM      2  C   UNL     1      -1.024   3.524  -1.508  0.00  0.00    -0.028 A 
ATOM      3  C   UNL     1      -1.794   4.693  -1.684  0.00  0.00    +0.005 A 
ATOM      4  C   UNL     1      -3.192   4.652  -1.699  0.00  0.00    +0.000 A 
ATOM      5  C   UNL     1      -3.862   3.448  -1.513  0.00  0.00    +0.000 A 
ATOM      6  C   UNL     1      -3.136   2.285  -1.309  0.00  0.00    +0.000 A 
ATOM      7  C   UNL     1      -1.738   2.324  -1.306  0.00  0.00    +0.005 A 
ENDBRANCH   1   2
BRANCH   1   8
ATOM      8  C   UNL     1       0.998   4.193  -2.899  0.00  0.00    -0.028 A 
ATOM      9  C   UNL     1       1.181   5.581  -3.082  0.00  0.00    +0.005 A 
ATOM     10  C   UNL     1       1.604   6.113  -4.304  0.00  0.00    +0.000 A 
ATOM     11  C   UNL     1       1.813   5.273  -5.392  0.00  0.00    +0.000 A 
ATOM     12  C   UNL     1       1.572   3.911  -5.264  0.00  0.00    +0.000 A 
ATOM     13  C   UNL     1       1.152   3.378  -4.037  0.00  0.00    +0.005 A 
ENDBRANCH   1   8
BRANCH   1  14
ATOM     14  C   UNL     1       1.050   4.399  -0.286  0.00  0.00    +0.226 C 
ATOM     15  O   UNL     1       0.480   4.391   0.805  0.00  0.00    -0.275 OA
ATOM     16  N   UNL     1       2.300   4.968  -0.333  0.00  0.00    -0.328 N 
ATOM     17  H   UNL     1       2.523   5.537   0.479  0.00  0.00    +0.145 HD
ATOM     18  H   UNL     1       2.708   5.292  -1.201  0.00  0.00    +0.145 HD
ENDBRANCH   1  14
BRANCH   1  19
ATOM     19  C   UNL     1       1.130   2.150  -1.280  0.00  0.00    +0.076 C 
BRANCH  19  20
ATOM     20  C   UNL     1       2.653   2.005  -1.273  0.00  0.00    +0.135 C 
BRANCH  20  21
ATOM     21  N   UNL     1       3.171   0.502  -1.036  0.00  0.00    +0.245 N 
ATOM     22  C   UNL     1       2.664  -0.373  -2.194  0.00  0.00    +0.193 C 
BRANCH  21  24
ATOM     23  C   UNL     1       2.759  -1.549   0.583  0.00  0.00    +0.063 C 
ATOM     24  C   UNL     1       2.553  -0.051   0.326  0.00  0.00    +0.060 C 
ATOM     25  C   UNL     1       2.935   0.811   1.529  0.00  0.00    +0.063 C 
ENDBRANCH  21  24
BRANCH  21  26
ATOM     26  C   UNL     1       4.771   0.596  -1.046  0.00  0.00    +0.060 C 
ATOM     27  C   UNL     1       5.318   1.162  -2.370  0.00  0.00    +0.063 C 
ATOM     28  C   UNL     1       5.488  -0.723  -0.768  0.00  0.00    +0.063 C 
ENDBRANCH  21  26
ENDBRANCH  20  21
ENDBRANCH  19  20
ENDBRANCH   1  19
TORSDOF 8
