REMARK  Name = 
REMARK  5 active torsions:
REMARK  status: ('A' for Active; 'I' for Inactive)
REMARK    1  A    between atoms: C_1  and  C_2
REMARK    2  A    between atoms: C_2  and  N_3
REMARK    3  A    between atoms: C_5  and  C_6
REMARK    4  A    between atoms: C_6  and  O_7
REMARK    5  A    between atoms: C_15  and  N_18
REMARK                            x       y       z     vdW  Elec       q    Type
REMARK                         _______ _______ _______ _____ _____    ______ ____
ROOT
ATOM      1  N   UNL     1       2.997  -1.257  -0.439  0.00  0.00    -0.346 N 
ATOM      2  C   UNL     1       2.399  -2.390   0.158  0.00  0.00    +0.055 A 
ATOM      3  C   UNL     1       2.697  -3.674  -0.330  0.00  0.00    +0.049 A 
ATOM      4  C   UNL     1       2.091  -4.811   0.204  0.00  0.00    +0.054 A 
ATOM      5  C   UNL     1       1.189  -4.679   1.258  0.00  0.00    +0.145 A 
ATOM      6  C   UNL     1       0.874  -3.432   1.825  0.00  0.00    +0.067 A 
ATOM      7  F   UNL     1       0.587  -5.799   1.686  0.00  0.00    -0.204 F 
ATOM      8  C   UNL     1       3.680  -3.826  -1.430  0.00  0.00    +0.203 A 
ATOM      9  O   UNL     1       3.949  -4.926  -1.910  0.00  0.00    -0.286 OA
ATOM     10  C   UNL     1       4.361  -2.615  -1.932  0.00  0.00    +0.122 A 
ATOM     11  C   UNL     1       1.511  -2.313   1.248  0.00  0.00    +0.052 A 
ATOM     12  C   UNL     1       3.966  -1.442  -1.416  0.00  0.00    +0.105 A 
ENDROOT
BRANCH   6  13
ATOM     13  N   UNL     1      -0.025  -3.272   2.862  0.00  0.00    -0.325 N 
ATOM     14  C   UNL     1      -0.195  -4.264   3.939  0.00  0.00    +0.120 C 
ATOM     15  C   UNL     1      -1.699  -4.550   4.156  0.00  0.00    +0.100 C 
ATOM     16  N   UNL     1      -2.499  -3.331   4.407  0.00  0.00    -0.313 NA
ATOM     17  H   UNL     1      -3.487  -3.584   4.419  0.00  0.00    +0.122 HD
ATOM     18  C   UNL     1      -2.269  -2.360   3.321  0.00  0.00    +0.100 C 
ATOM     19  C   UNL     1      -0.778  -2.028   3.090  0.00  0.00    +0.120 C 
ENDBRANCH   6  13
BRANCH   1  21
ATOM     20  C   UNL     1       3.350   0.630   1.118  0.00  0.00    +0.027 C 
ATOM     21  C   UNL     1       2.550   0.097  -0.061  0.00  0.00    +0.118 C 
ENDBRANCH   1  21
BRANCH  10  22
ATOM     22  C   UNL     1       5.425  -2.632  -2.957  0.00  0.00    +0.342 C 
ATOM     23  O   UNL     1       5.983  -1.624  -3.365  0.00  0.00    -0.245 OA
BRANCH  22  24
ATOM     24  O   UNL     1       5.748  -3.865  -3.406  0.00  0.00    -0.477 OA
ATOM     25  H   UNL     1       5.209  -4.591  -3.008  0.00  0.00    +0.295 HD
ENDBRANCH  22  24
ENDBRANCH  10  22
TORSDOF 4
