REMARK  Name = 
REMARK  9 active torsions:
REMARK  status: ('A' for Active; 'I' for Inactive)
REMARK    1  A    between atoms: C_1  and  C_2
REMARK    2  A    between atoms: C_2  and  N_3
REMARK    3  A    between atoms: N_3  and  C_4
REMARK    4  A    between atoms: N_3  and  C_6
REMARK    5  A    between atoms: C_4  and  C_5
REMARK    6  A    between atoms: C_6  and  C_7
REMARK    7  A    between atoms: C_7  and  N_8
REMARK    8  A    between atoms: C_9  and  C_11
REMARK    9  A    between atoms: C_14  and  N_15
REMARK                            x       y       z     vdW  Elec       q    Type
REMARK                         _______ _______ _______ _____ _____    ______ ____
ROOT
ATOM      1  N   UNL     1       6.416   1.968   2.026  0.00  0.00    -0.310 N 
ATOM      2  H   UNL     1       6.901   1.113   1.781  0.00  0.00    +0.149 HD
ATOM      3  C   UNL     1       7.091   3.120   2.378  0.00  0.00    +0.244 C 
ATOM      4  O   UNL     1       6.515   4.151   2.713  0.00  0.00    -0.270 OA
ENDROOT
BRANCH   3   5
ATOM      5  C   UNL     1       8.572   3.111   2.289  0.00  0.00    +0.037 A 
ATOM      6  C   UNL     1       9.343   1.968   2.512  0.00  0.00    +0.015 A 
ATOM      7  C   UNL     1      10.741   2.041   2.412  0.00  0.00    +0.023 A 
ATOM      8  C   UNL     1      11.377   3.232   2.042  0.00  0.00    +0.025 A 
ATOM      9  C   UNL     1      10.604   4.385   1.902  0.00  0.00    +0.023 A 
ATOM     10  C   UNL     1       9.213   4.325   2.008  0.00  0.00    +0.015 A 
BRANCH   8  11
ATOM     11  N   UNL     1      12.774   3.321   2.048  0.00  0.00    -0.358 N 
ATOM     12  H   UNL     1      13.244   2.446   1.840  0.00  0.00    +0.142 HD
ATOM     13  H   UNL     1      13.136   4.090   1.492  0.00  0.00    +0.142 HD
ENDBRANCH   8  11
ENDBRANCH   3   5
BRANCH   1  14
ATOM     14  C   UNL     1       4.967   1.930   2.070  0.00  0.00    +0.120 C 
BRANCH  14  15
ATOM     15  C   UNL     1       4.348   0.906   1.100  0.00  0.00    +0.103 C 
BRANCH  15  16
ATOM     16  N   UNL     1       4.734  -0.510   1.307  0.00  0.00    -0.301 NA
BRANCH  16  18
ATOM     17  C   UNL     1       4.711  -2.435   2.943  0.00  0.00    +0.020 C 
ATOM     18  C   UNL     1       4.346  -0.982   2.649  0.00  0.00    +0.081 C 
ENDBRANCH  16  18
BRANCH  16  19
ATOM     19  C   UNL     1       4.214  -1.355   0.212  0.00  0.00    +0.081 C 
ATOM     20  C   UNL     1       2.696  -1.390   0.029  0.00  0.00    +0.020 C 
ENDBRANCH  16  19
ENDBRANCH  15  16
ENDBRANCH  14  15
ENDBRANCH   1  14
TORSDOF 7
