REMARK  Name = 
REMARK  12 active torsions:
REMARK  status: ('A' for Active; 'I' for Inactive)
REMARK    1  A    between atoms: C_1  and  O_2
REMARK    2  A    between atoms: O_2  and  C_3
REMARK    3  A    between atoms: C_8  and  O_9
REMARK    4  A    between atoms: O_9  and  C_10
REMARK    5  A    between atoms: C_10  and  C_11
REMARK    6  A    between atoms: C_11  and  N_12
REMARK    7  A    between atoms: N_12  and  C_13
REMARK    8  A    between atoms: C_13  and  C_14
REMARK    9  A    between atoms: C_14  and  O_15
REMARK   10  A    between atoms: C_14  and  C_16
REMARK   11  A    between atoms: C_16  and  O_17
REMARK   12  A    between atoms: O_17  and  C_18
REMARK                            x       y       z     vdW  Elec       q    Type
REMARK                         _______ _______ _______ _____ _____    ______ ____
ROOT
ATOM      1  C   UNL     1      -0.440  -4.354  -4.312  0.00  0.00    +0.166 C 
ENDROOT
BRANCH   1   2
ATOM      2  O   UNL     1       0.475  -3.719  -5.209  0.00  0.00    -0.387 OA
ATOM      3  H   UNL     1       1.295  -4.248  -5.174  0.00  0.00    +0.210 HD
ENDBRANCH   1   2
BRANCH   1   4
ATOM      4  C   UNL     1       0.280  -4.659  -2.978  0.00  0.00    +0.115 C 
BRANCH   4   5
ATOM      5  N   UNL     1       1.453  -5.548  -3.147  0.00  0.00    -0.310 NA
ATOM      6  H   UNL     1       1.187  -6.394  -3.645  0.00  0.00    +0.122 HD
BRANCH   5   7
ATOM      7  C   UNL     1       2.028  -5.971  -1.852  0.00  0.00    +0.122 C 
BRANCH   7   8
ATOM      8  C   UNL     1       1.045  -6.778  -0.991  0.00  0.00    +0.244 C 
BRANCH   8   9
ATOM      9  O   UNL     1       1.671  -7.284   0.180  0.00  0.00    -0.487 OA
BRANCH   9  11
ATOM     10  C   UNL     1      -0.527  -8.195   0.999  0.00  0.00    +0.161 A 
ATOM     11  C   UNL     1       0.842  -7.868   1.114  0.00  0.00    +0.162 A 
ATOM     12  C   UNL     1       1.519  -8.163   2.306  0.00  0.00    +0.049 A 
ATOM     13  C   UNL     1       0.860  -8.758   3.380  0.00  0.00    +0.004 A 
ATOM     14  C   UNL     1      -0.491  -9.060   3.277  0.00  0.00    +0.004 A 
ATOM     15  C   UNL     1      -1.181  -8.776   2.098  0.00  0.00    +0.049 A 
BRANCH  10  17
ATOM     16  C   UNL     1      -2.394  -8.625  -0.431  0.00  0.00    +0.277 C 
ATOM     17  O   UNL     1      -1.192  -7.910  -0.166  0.00  0.00    -0.491 OA
ENDBRANCH  10  17
ENDBRANCH   9  11
ENDBRANCH   8   9
ENDBRANCH   7   8
ENDBRANCH   5   7
ENDBRANCH   4   5
ENDBRANCH   1   4
BRANCH   1  18
ATOM     18  C   UNL     1      -0.992  -5.651  -4.921  0.00  0.00    +0.261 C 
BRANCH  18  19
ATOM     19  O   UNL     1      -1.788  -5.394  -6.076  0.00  0.00    -0.489 OA
BRANCH  19  20
ATOM     20  C   UNL     1      -2.210  -6.511  -6.761  0.00  0.00    +0.130 A 
ATOM     21  C   UNL     1      -2.856  -6.319  -8.006  0.00  0.00    +0.049 A 
ATOM     22  C   UNL     1      -3.188  -5.164  -8.795  0.00  0.00    +0.011 A 
ATOM     23  C   UNL     1      -3.838  -5.611  -9.942  0.00  0.00    +0.048 A 
ATOM     24  N   UNL     1      -3.900  -6.979  -9.864  0.00  0.00    -0.354 N 
ATOM     25  H   UNL     1      -4.322  -7.568 -10.565  0.00  0.00    +0.166 HD
ATOM     26  C   UNL     1      -4.315  -4.749 -10.939  0.00  0.00    +0.026 A 
ATOM     27  C   UNL     1      -4.116  -3.377 -10.756  0.00  0.00    +0.002 A 
ATOM     28  C   UNL     1      -3.462  -2.896  -9.625  0.00  0.00    +0.001 A 
ATOM     29  C   UNL     1      -2.992  -3.775  -8.641  0.00  0.00    +0.011 A 
ATOM     30  C   UNL     1      -3.312  -7.436  -8.711  0.00  0.00    +0.051 A 
ATOM     31  C   UNL     1      -3.156  -8.747  -8.250  0.00  0.00    +0.026 A 
ATOM     32  C   UNL     1      -2.514  -8.925  -7.028  0.00  0.00    +0.006 A 
ATOM     33  C   UNL     1      -2.052  -7.833  -6.297  0.00  0.00    +0.046 A 
ENDBRANCH  19  20
ENDBRANCH  18  19
ENDBRANCH   1  18
TORSDOF 11
