REMARK  Name = 
REMARK  12 active torsions:
REMARK  status: ('A' for Active; 'I' for Inactive)
REMARK    1  A    between atoms: N_14  and  C_15
REMARK    2  A    between atoms: N_14  and  C_16
REMARK    3  A    between atoms: C_25  and  O_26
REMARK    4  A    between atoms: O_26  and  C_27
REMARK    5  A    between atoms: N_32  and  C_33
REMARK    6  A    between atoms: N_32  and  C_34
REMARK    7  A    between atoms: C_37  and  O_38
REMARK    8  A    between atoms: O_38  and  C_39
REMARK    9  A    between atoms: C_43  and  O_44
REMARK   10  A    between atoms: O_44  and  C_45
REMARK   11  A    between atoms: C_46  and  O_47
REMARK   12  A    between atoms: O_47  and  C_48
REMARK                            x       y       z     vdW  Elec       q    Type
REMARK                         _______ _______ _______ _____ _____    ______ ____
ROOT
ATOM      1  C   UNL     1       3.113   0.378   0.109  0.00  0.00    +0.101 C 
ATOM      2  C   UNL     1       4.147   0.439   1.243  0.00  0.00    +0.008 A 
ATOM      3  C   UNL     1       5.507   0.088   1.226  0.00  0.00    +0.059 A 
ATOM      4  C   UNL     1       6.322   0.268   2.367  0.00  0.00    +0.170 A 
ATOM      5  C   UNL     1       5.618   0.017   3.544  0.00  0.00    +0.162 A 
ATOM      6  C   UNL     1       4.325   0.533   3.641  0.00  0.00    +0.053 A 
ATOM      7  O   UNL     1       6.884   1.703   2.352  0.00  0.00    -0.449 OA
ATOM      8  C   UNL     1       8.270   1.806   2.282  0.00  0.00    +0.170 A 
ATOM      9  C   UNL     1       9.084   2.779   2.893  0.00  0.00    +0.162 A 
ATOM     10  C   UNL     1      10.371   2.415   3.323  0.00  0.00    +0.050 A 
ATOM     11  C   UNL     1      10.936   1.239   2.862  0.00  0.00    +0.007 A 
ATOM     12  C   UNL     1      10.254   0.532   1.875  0.00  0.00    -0.038 A 
ATOM     13  C   UNL     1      10.776  -0.749   1.323  0.00  0.00    +0.095 C 
ATOM     14  C   UNL     1      11.016  -0.753  -0.211  0.00  0.00    +0.105 C 
ATOM     15  C   UNL     1      10.442  -2.097  -0.696  0.00  0.00    +0.050 A 
ATOM     16  C   UNL     1      11.255  -3.237  -0.519  0.00  0.00    -0.027 A 
ATOM     17  C   UNL     1      10.660  -4.478  -0.409  0.00  0.00    +0.054 A 
ATOM     18  C   UNL     1       9.281  -4.632  -0.475  0.00  0.00    +0.165 A 
ATOM     19  C   UNL     1       8.468  -3.516  -0.825  0.00  0.00    +0.205 A 
ATOM     20  C   UNL     1      12.743  -3.151  -0.441  0.00  0.00    +0.087 C 
ATOM     21  C   UNL     1      13.319  -1.801  -0.075  0.00  0.00    +0.138 C 
ATOM     22  C   UNL     1       9.067  -2.250  -1.030  0.00  0.00    +0.182 A 
ATOM     23  O   UNL     1       8.551  -1.057  -1.526  0.00  0.00    -0.452 OA
ATOM     24  C   UNL     1       7.299  -0.861  -2.037  0.00  0.00    +0.129 A 
ATOM     25  C   UNL     1       6.482  -1.807  -2.613  0.00  0.00    +0.046 A 
ATOM     26  C   UNL     1       5.093  -1.665  -2.449  0.00  0.00    +0.007 A 
ATOM     27  C   UNL     1       4.577  -0.483  -1.916  0.00  0.00    -0.041 A 
ATOM     28  C   UNL     1       5.410   0.623  -1.947  0.00  0.00    +0.007 A 
ATOM     29  C   UNL     1       6.791   0.429  -1.905  0.00  0.00    +0.046 A 
ATOM     30  N   UNL     1      12.526  -0.597  -0.585  0.00  0.00    +0.245 N 
ATOM     31  C   UNL     1      12.570  -0.419  -2.109  0.00  0.00    +0.193 C 
ATOM     32  C   UNL     1      13.229   0.635   0.001  0.00  0.00    +0.193 C 
ATOM     33  C   UNL     1       8.952   0.889   1.525  0.00  0.00    +0.054 A 
ATOM     34  C   UNL     1       3.664   0.921   2.469  0.00  0.00    -0.030 A 
ATOM     35  C   UNL     1       2.571   1.954   2.499  0.00  0.00    +0.086 C 
ATOM     36  C   UNL     1       1.689   2.077   1.245  0.00  0.00    +0.138 C 
ATOM     37  N   UNL     1       2.448   1.793  -0.085  0.00  0.00    +0.245 N 
ATOM     38  C   UNL     1       1.419   1.829  -1.215  0.00  0.00    +0.193 C 
ATOM     39  C   UNL     1       3.454   2.914  -0.333  0.00  0.00    +0.193 C 
ATOM     40  C   UNL     1       3.270  -0.486  -1.191  0.00  0.00    +0.094 C 
ENDROOT
BRANCH   5  41
ATOM     41  O   UNL     1       5.855  -1.020   4.421  0.00  0.00    -0.491 OA
ATOM     42  C   UNL     1       6.850  -1.981   4.062  0.00  0.00    +0.277 C 
ENDBRANCH   5  41
BRANCH   9  43
ATOM     43  O   UNL     1       8.723   4.107   2.791  0.00  0.00    -0.491 OA
ATOM     44  C   UNL     1       9.802   5.064   2.881  0.00  0.00    +0.277 C 
ENDBRANCH   9  43
BRANCH  18  45
ATOM     45  O   UNL     1       8.667  -5.804  -0.126  0.00  0.00    -0.491 OA
ATOM     46  C   UNL     1       9.426  -7.003  -0.256  0.00  0.00    +0.277 C 
ENDBRANCH  18  45
BRANCH  19  47
ATOM     47  O   UNL     1       7.103  -3.675  -0.848  0.00  0.00    -0.488 OA
ATOM     48  C   UNL     1       6.651  -4.841  -1.563  0.00  0.00    +0.277 C 
ENDBRANCH  19  47
TORSDOF 4
