REMARK  Name = 
REMARK  3 active torsions:
REMARK  status: ('A' for Active; 'I' for Inactive)
REMARK    1  A    between atoms: N_1  and  C_2
REMARK    2  A    between atoms: C_3  and  CL_14
REMARK    3  A    between atoms: C_5  and  N_6
REMARK                            x       y       z     vdW  Elec       q    Type
REMARK                         _______ _______ _______ _____ _____    ______ ____
ROOT
ATOM      1  C   UNL     1       2.500   0.065  -0.070  0.00  0.00    +0.048 A 
ATOM      2  C   UNL     1       3.185   1.241  -0.271  0.00  0.00    +0.026 A 
ATOM      3  C   UNL     1       4.505   1.323   0.234  0.00  0.00    +0.030 A 
ATOM      4  C   UNL     1       5.234   0.140   0.194  0.00  0.00    +0.080 A 
ATOM      5  C   UNL     1       4.516  -1.071   0.132  0.00  0.00    +0.064 A 
ATOM      6  C   UNL     1       5.237  -2.260   0.084  0.00  0.00    +0.131 A 
ATOM      7  N   UNL     1       6.564  -2.196   0.103  0.00  0.00    -0.199 NA
ATOM      8  C   UNL     1       7.196  -1.042   0.165  0.00  0.00    +0.215 A 
ATOM      9  N   UNL     1       8.666  -1.038   0.185  0.00  0.00    -0.327 N 
ATOM     10  H   UNL     1       9.155  -0.185   0.231  0.00  0.00    +0.145 HD
ATOM     11  H   UNL     1       9.161  -1.888   0.152  0.00  0.00    +0.145 HD
ATOM     12  N   UNL     1       6.553   0.113   0.210  0.00  0.00    -0.215 NA
ATOM     13  C   UNL     1       3.149  -1.049   0.120  0.00  0.00    +0.129 A 
ENDROOT
BRANCH   1  14
ATOM     14  N   UNL     1       1.030   0.065  -0.070  0.00  0.00    -0.357 N 
ATOM     15  H   UNL     1       0.538   0.905  -0.214  0.00  0.00    +0.142 HD
ATOM     16  H   UNL     1       0.538  -0.776   0.074  0.00  0.00    +0.142 HD
ENDBRANCH   1  14
BRANCH   6  17
ATOM     17  N   UNL     1       4.547  -3.556   0.014  0.00  0.00    -0.342 N 
ATOM     18  H   UNL     1       5.068  -4.390  -0.020  0.00  0.00    +0.144 HD
ATOM     19  H   UNL     1       3.563  -3.589   0.000  0.00  0.00    +0.144 HD
ENDBRANCH   6  17
BRANCH  13  20
ATOM     20 CL   UNL     1       2.243  -2.561   0.369  0.00  0.00    +0.211 Cl
ATOM     21  O   UNL     1        -nan    -nan    -nan  0.00  0.00    -0.178 OA
ATOM     22  O   UNL     1        -nan    -nan    -nan  0.00  0.00    -0.178 OA
ENDBRANCH  13  20
TORSDOF 3
