REMARK  Name = 
REMARK  1 active torsions:
REMARK  status: ('A' for Active; 'I' for Inactive)
REMARK    1  A    between atoms: N_3  and  C_4
REMARK                            x       y       z     vdW  Elec       q    Type
REMARK                         _______ _______ _______ _____ _____    ______ ____
ROOT
ATOM      1  O   UNL     1       0.988   0.378  -0.011  0.00  0.00    -0.270 OA
ATOM      2  C   UNL     1       2.189   0.193  -0.018  0.00  0.00    +0.254 C 
ATOM      3  C   UNL     1       2.815  -1.136  -0.043  0.00  0.00    +0.049 A 
ATOM      4  C   UNL     1       4.184  -0.949  -0.061  0.00  0.00    +0.049 A 
ATOM      5  C   UNL     1       5.078  -2.002  -0.081  0.00  0.00    +0.014 A 
ATOM      6  C   UNL     1       4.539  -3.292  -0.074  0.00  0.00    +0.001 A 
ATOM      7  C   UNL     1       3.143  -3.490  -0.048  0.00  0.00    +0.001 A 
ATOM      8  C   UNL     1       4.432   0.486  -0.031  0.00  0.00    +0.254 C 
ATOM      9  O   UNL     1       5.538   0.989  -0.037  0.00  0.00    -0.270 OA
ATOM     10  C   UNL     1       2.261  -2.402  -0.033  0.00  0.00    +0.014 A 
ATOM     11  N   UNL     1       3.208   1.102   0.023  0.00  0.00    -0.222 N 
ENDROOT
BRANCH  11  12
ATOM     12  C   UNL     1       3.109   2.551  -0.003  0.00  0.00    +0.171 C 
ATOM     13  C   UNL     1       3.177   3.090  -1.433  0.00  0.00    +0.240 C 
ATOM     14  O   UNL     1       3.336   2.399  -2.435  0.00  0.00    -0.273 OA
ATOM     15  N   UNL     1       3.044   4.460  -1.526  0.00  0.00    -0.255 N 
ATOM     16  H   UNL     1       3.136   4.846  -2.457  0.00  0.00    +0.158 HD
ATOM     17  C   UNL     1       2.364   5.258  -0.639  0.00  0.00    +0.219 C 
ATOM     18  O   UNL     1       2.037   6.401  -0.943  0.00  0.00    -0.275 OA
ATOM     19  C   UNL     1       2.073   4.670   0.727  0.00  0.00    +0.098 C 
ATOM     20  C   UNL     1       1.876   3.159   0.658  0.00  0.00    +0.041 C 
ENDBRANCH  11  12
TORSDOF 1
