REMARK  Name = 
REMARK  6 active torsions:
REMARK  status: ('A' for Active; 'I' for Inactive)
REMARK    1  A    between atoms: C_1  and  C_2
REMARK    2  A    between atoms: C_2  and  N_3
REMARK    3  A    between atoms: N_3  and  C_4
REMARK    4  A    between atoms: N_3  and  C_5
REMARK    5  A    between atoms: N_3  and  C_6
REMARK    6  A    between atoms: C_8  and  O_9
REMARK                            x       y       z     vdW  Elec       q    Type
REMARK                         _______ _______ _______ _____ _____    ______ ____
ROOT
ATOM      1  C   UNL     1       4.557  -1.191   1.102  0.00  0.00    +0.149 A 
ATOM      2  C   UNL     1       5.085  -2.452   1.446  0.00  0.00    +0.072 A 
ATOM      3  C   UNL     1       6.447  -2.618   1.707  0.00  0.00    +0.010 A 
ATOM      4  C   UNL     1       7.301  -1.526   1.640  0.00  0.00    +0.046 A 
ATOM      5  C   UNL     1       6.782  -0.269   1.358  0.00  0.00    +0.123 A 
ATOM      6  C   UNL     1       5.424  -0.087   1.092  0.00  0.00    +0.117 A 
ENDROOT
BRANCH   1   7
ATOM      7  N   UNL     1       3.167  -1.117   0.479  0.00  0.00    -0.381 NA
ATOM      8  C   UNL     1       2.204  -2.099   1.145  0.00  0.00    +0.361 C 
ATOM      9  C   UNL     1       3.369  -1.532  -0.987  0.00  0.00    +0.361 C 
BRANCH   7  11
ATOM     10  C   UNL     1       2.194   0.829   1.864  0.00  0.00    +0.076 C 
ATOM     11  C   UNL     1       2.531   0.287   0.484  0.00  0.00    +0.282 C 
ENDBRANCH   7  11
ENDBRANCH   1   7
BRANCH   5  12
ATOM     12  O   UNL     1       7.671   0.762   1.302  0.00  0.00    -0.507 OA
ATOM     13  H   UNL     1       7.214   1.614   1.203  0.00  0.00    +0.292 HD
ENDBRANCH   5  12
TORSDOF 3
