REMARK  Name = 
REMARK  12 active torsions:
REMARK  status: ('A' for Active; 'I' for Inactive)
REMARK    1  A    between atoms: C_10  and  O_11
REMARK    2  A    between atoms: C_16  and  C_17
REMARK    3  A    between atoms: C_16  and  O_18
REMARK    4  A    between atoms: C_19  and  O_20
REMARK    5  A    between atoms: C_21  and  O_22
REMARK    6  A    between atoms: C_25  and  C_26
REMARK    7  A    between atoms: N_28  and  C_29
REMARK    8  A    between atoms: C_29  and  N_30
REMARK    9  A    between atoms: C_35  and  O_36
REMARK   10  A    between atoms: C_37  and  N_39
REMARK   11  A    between atoms: N_39  and  C_40
REMARK   12  A    between atoms: N_39  and  C_41
REMARK                            x       y       z     vdW  Elec       q    Type
REMARK                         _______ _______ _______ _____ _____    ______ ____
ROOT
ATOM      1  C   UNL     1      -0.000  -0.000  -0.000  0.00  0.00    +0.061 C 
ATOM      2  C   UNL     1      -0.000  -0.000   0.000  0.00  0.00    +0.129 C 
ATOM      3  C   UNL     1      -0.000  -0.000   0.000  0.00  0.00    +0.127 C 
ATOM      4  C   UNL     1      -0.000  -0.000   0.000  0.00  0.00    +0.121 C 
ATOM      5  C   UNL     1      -0.000  -0.000   0.000  0.00  0.00    +0.211 C 
ATOM      6  O   UNL     1      -0.000  -0.000   0.000  0.00  0.00    -0.288 OA
ATOM      7  C   UNL     1      -0.000  -0.000  -0.000  0.00  0.00    +0.190 C 
ATOM      8  C   UNL     1      -0.000  -0.000  -0.000  0.00  0.00    +0.141 C 
ATOM      9  C   UNL     1      -0.000  -0.000   0.000  0.00  0.00    +0.047 C 
ATOM     10  C   UNL     1      -0.000  -0.000  -0.000  0.00  0.00    +0.197 C 
ATOM     11  O   UNL     1      -0.000  -0.000  -0.000  0.00  0.00    -0.287 OA
ATOM     12  C   UNL     1      -0.000  -0.000  -0.000  0.00  0.00    +0.069 A 
ATOM     13  C   UNL     1      -0.000  -0.000  -0.000  0.00  0.00    -0.001 A 
ATOM     14  C   UNL     1      -0.000  -0.000   0.000  0.00  0.00    +0.096 C 
ATOM     15  C   UNL     1      -0.000  -0.000  -0.000  0.00  0.00    +0.047 C 
ATOM     16  C   UNL     1      -0.000  -0.000  -0.000  0.00  0.00    +0.007 A 
ATOM     17  C   UNL     1      -0.000  -0.000  -0.000  0.00  0.00    +0.004 A 
ATOM     18  C   UNL     1      -0.000  -0.000  -0.000  0.00  0.00    +0.046 A 
ATOM     19  C   UNL     1      -0.000  -0.000   0.000  0.00  0.00    +0.128 A 
ATOM     20  C   UNL     1      -0.000  -0.000   0.000  0.00  0.00    +0.062 C 
ATOM     21  C   UNL     1      -0.000  -0.000  -0.000  0.00  0.00    +0.020 C 
ENDROOT
BRANCH   4  22
ATOM     22  C   UNL     1      -0.000  -0.000   0.000  0.00  0.00    +0.252 C 
ATOM     23  N   UNL     1      -0.000  -0.000   0.000  0.00  0.00    -0.298 N 
ATOM     24  H   UNL     1      -0.000  -0.000   0.000  0.00  0.00    +0.150 HD
ATOM     25  O   UNL     1      -0.000  -0.000   0.000  0.00  0.00    -0.270 OA
BRANCH  23  26
ATOM     26  C   UNL     1      -0.000  -0.000   0.000  0.00  0.00    +0.192 C 
BRANCH  26  27
ATOM     27  N   UNL     1      -0.000  -0.000   0.000  0.00  0.00    -0.287 NA
ATOM     28  C   UNL     1      -0.000  -0.000   0.000  0.00  0.00    +0.086 C 
ATOM     29  C   UNL     1      -0.000  -0.000   0.000  0.00  0.00    +0.017 C 
ATOM     30  C   UNL     1      -0.000  -0.000   0.000  0.00  0.00    +0.017 C 
ATOM     31  C   UNL     1      -0.000  -0.000   0.000  0.00  0.00    +0.086 C 
ENDBRANCH  26  27
ENDBRANCH  23  26
ENDBRANCH   4  22
BRANCH   2  32
ATOM     32  N   UNL     1      -0.000  -0.000   0.000  0.00  0.00    -0.299 NA
ATOM     33  C   UNL     1      -0.000  -0.000   0.000  0.00  0.00    +0.105 C 
ATOM     34  C   UNL     1      -0.000  -0.000   0.000  0.00  0.00    +0.105 C 
ENDBRANCH   2  32
BRANCH   3  35
ATOM     35  O   UNL     1      -0.000  -0.000   0.000  0.00  0.00    -0.509 OA
ATOM     36  H   UNL     1       0.000   0.000   0.000  0.00  0.00    +0.292 HD
ENDBRANCH   3  35
BRANCH   7  37
ATOM     37  O   UNL     1      -0.000  -0.000   0.000  0.00  0.00    -0.373 OA
ATOM     38  H   UNL     1       0.000   0.000   0.000  0.00  0.00    +0.211 HD
ENDBRANCH   7  37
BRANCH   8  39
ATOM     39  O   UNL     1      -0.000  -0.000   0.000  0.00  0.00    -0.507 OA
ATOM     40  H   UNL     1       0.000   0.000   0.000  0.00  0.00    +0.292 HD
ENDBRANCH   8  39
BRANCH  14  41
ATOM     41  O   UNL     1      -0.000  -0.000   0.000  0.00  0.00    -0.384 OA
ATOM     42  H   UNL     1       0.000   0.000   0.000  0.00  0.00    +0.211 HD
ENDBRANCH  14  41
BRANCH  19  43
ATOM     43  O   UNL     1      -0.000  -0.000  -0.000  0.00  0.00    -0.506 OA
ATOM     44  H   UNL     1       0.000   0.000   0.000  0.00  0.00    +0.292 HD
ENDBRANCH  19  43
TORSDOF 9
