REMARK  Name = 
REMARK  3 active torsions:
REMARK  status: ('A' for Active; 'I' for Inactive)
REMARK    1  A    between atoms: C_4  and  N_5
REMARK    2  A    between atoms: C_6  and  N_9
REMARK    3  A    between atoms: N_10  and  C_11
REMARK                            x       y       z     vdW  Elec       q    Type
REMARK                         _______ _______ _______ _____ _____    ______ ____
ROOT
ATOM      1  N   UNL     1       1.203  -0.079  -0.385  0.00  0.00    -0.343 N 
ATOM      2  H   UNL     1       0.709   0.483   0.298  0.00  0.00    +0.144 HD
ATOM      3  H   UNL     1       0.900  -1.050  -0.363  0.00  0.00    +0.144 HD
ATOM      4  C   UNL     1       2.576  -0.079  -0.154  0.00  0.00    +0.118 A 
ATOM      5  C   UNL     1       3.273   1.115  -0.061  0.00  0.00    +0.045 A 
ATOM      6  C   UNL     1       4.649   1.072   0.151  0.00  0.00    +0.036 A 
ATOM      7  C   UNL     1       5.306  -0.156   0.252  0.00  0.00    +0.126 A 
ATOM      8  C   UNL     1       4.508  -1.313   0.137  0.00  0.00    +0.146 A 
ATOM      9  N   UNL     1       3.170  -1.280  -0.064  0.00  0.00    -0.216 NA
ENDROOT
BRANCH   8  10
ATOM     10  N   UNL     1       5.040  -2.598   0.294  0.00  0.00    -0.341 N 
ATOM     11  H   UNL     1       5.896  -2.693  -0.243  0.00  0.00    +0.144 HD
ATOM     12  H   UNL     1       4.318  -3.264   0.038  0.00  0.00    +0.144 HD
ENDBRANCH   8  10
BRANCH   7  13
ATOM     13  N   UNL     1       6.703  -0.136   0.470  0.00  0.00    -0.146 NA
ATOM     14  N   UNL     1       7.298  -0.991  -0.218  0.00  0.00    -0.149 NA
BRANCH  14  15
ATOM     15  C   UNL     1       8.702  -0.874  -0.164  0.00  0.00    +0.086 A 
ATOM     16  C   UNL     1       9.425  -1.429  -1.230  0.00  0.00    +0.029 A 
ATOM     17  C   UNL     1      10.816  -1.319  -1.294  0.00  0.00    +0.002 A 
ATOM     18  C   UNL     1      11.507  -0.659  -0.282  0.00  0.00    +0.000 A 
ATOM     19  C   UNL     1      10.810  -0.129   0.804  0.00  0.00    +0.002 A 
ATOM     20  C   UNL     1       9.418  -0.244   0.865  0.00  0.00    +0.029 A 
ENDBRANCH  14  15
ENDBRANCH   7  13
TORSDOF 3
