REMARK  Name = 
REMARK  5 active torsions:
REMARK  status: ('A' for Active; 'I' for Inactive)
REMARK    1  A    between atoms: O_1  and  C_2
REMARK    2  A    between atoms: C_4  and  C_5
REMARK    3  A    between atoms: N_19  and  C_20
REMARK    4  A    between atoms: C_20  and  C_21
REMARK    5  A    between atoms: C_21  and  C_22
REMARK                            x       y       z     vdW  Elec       q    Type
REMARK                         _______ _______ _______ _____ _____    ______ ____
ROOT
ATOM      1  C   UNL     1       2.434  -0.171  -0.184  0.00  0.00    +0.320 C 
ATOM      2  C   UNL     1       2.851   1.093   0.638  0.00  0.00    +0.271 C 
ATOM      3  O   UNL     1       2.054   1.735   1.326  0.00  0.00    -0.270 OA
ATOM      4  N   UNL     1       4.202   1.469   0.527  0.00  0.00    -0.266 N 
ATOM      5  C   UNL     1       5.194   0.636  -0.083  0.00  0.00    +0.046 A 
ATOM      6  C   UNL     1       6.227   1.249  -0.815  0.00  0.00    +0.025 A 
ATOM      7  C   UNL     1       7.265   0.503  -1.380  0.00  0.00    +0.022 A 
ATOM      8  C   UNL     1       7.279  -0.876  -1.236  0.00  0.00    +0.042 A 
ATOM      9  C   UNL     1       6.235  -1.521  -0.582  0.00  0.00    +0.032 A 
ATOM     10 CL   UNL     1       8.596  -1.790  -1.856  0.00  0.00    -0.084 Cl
ATOM     11  C   UNL     1       5.193  -0.775   0.006  0.00  0.00    +0.023 A 
ATOM     12  C   UNL     1       4.128  -1.552   0.722  0.00  0.00    +0.081 C 
ATOM     13  N   UNL     1       2.865  -1.312   0.610  0.00  0.00    -0.243 NA
ENDROOT
BRANCH  12  14
ATOM     14  C   UNL     1       4.512  -2.712   1.591  0.00  0.00    +0.036 A 
ATOM     15  C   UNL     1       5.692  -2.716   2.336  0.00  0.00    +0.133 A 
ATOM     16  F   UNL     1       6.512  -1.655   2.338  0.00  0.00    -0.205 F 
ATOM     17  C   UNL     1       6.048  -3.822   3.105  0.00  0.00    +0.039 A 
ATOM     18  C   UNL     1       5.202  -4.929   3.162  0.00  0.00    +0.003 A 
ATOM     19  C   UNL     1       4.000  -4.923   2.454  0.00  0.00    +0.001 A 
ATOM     20  C   UNL     1       3.653  -3.818   1.671  0.00  0.00    +0.013 A 
ENDBRANCH  12  14
BRANCH   1  21
ATOM     21  O   UNL     1       1.048  -0.245  -0.446  0.00  0.00    -0.364 OA
ATOM     22  H   UNL     1       0.726  -0.816   0.273  0.00  0.00    +0.212 HD
ENDBRANCH   1  21
BRANCH   4  23
ATOM     23  C   UNL     1       4.626   2.702   1.229  0.00  0.00    +0.128 C 
BRANCH  23  24
ATOM     24  C   UNL     1       4.986   2.440   2.694  0.00  0.00    +0.138 C 
BRANCH  24  25
ATOM     25  C   UNL     1       5.445   3.707   3.397  0.00  0.00    +0.064 C 
ATOM     26  N   UNL     1       5.825   4.758   3.980  0.00  0.00    -0.197 NA
ENDBRANCH  24  25
ENDBRANCH  23  24
ENDBRANCH   4  23
TORSDOF 5
