REMARK  Name = 
REMARK  18 active torsions:
REMARK  status: ('A' for Active; 'I' for Inactive)
REMARK    1  A    between atoms: C_1  and  C_2
REMARK    2  A    between atoms: C_2  and  C_4
REMARK    3  A    between atoms: C_2  and  C_50
REMARK    4  A    between atoms: C_4  and  C_6
REMARK    5  A    between atoms: C_4  and  C_35
REMARK    6  A    between atoms: C_6  and  C_7
REMARK    7  A    between atoms: C_7  and  O_9
REMARK    8  A    between atoms: C_7  and  C_10
REMARK    9  A    between atoms: C_10  and  N_11
REMARK   10  A    between atoms: N_14  and  C_15
REMARK   11  A    between atoms: C_15  and  C_16
REMARK   12  A    between atoms: C_26  and  C_28
REMARK   13  A    between atoms: N_30  and  C_31
REMARK   14  A    between atoms: C_31  and  C_32
REMARK   15  A    between atoms: C_31  and  C_33
REMARK   16  A    between atoms: C_31  and  C_34
REMARK   17  A    between atoms: N_37  and  C_38
REMARK   18  A    between atoms: C_40  and  O_42
REMARK                            x       y       z     vdW  Elec       q    Type
REMARK                         _______ _______ _______ _____ _____    ______ ____
ROOT
ATOM      1  C   UNL     1       5.487  -0.891   0.129  0.00  0.00    +0.129 C 
ENDROOT
BRANCH   1   2
ATOM      2  O   UNL     1       5.368   0.034   1.217  0.00  0.00    -0.391 OA
ATOM      3  H   UNL     1       5.044   0.883   0.859  0.00  0.00    +0.210 HD
ENDBRANCH   1   2
BRANCH   1   4
ATOM      4  C   UNL     1       4.411  -1.979   0.257  0.00  0.00    +0.046 C 
BRANCH   4   5
ATOM      5  C   UNL     1       2.943  -1.478   0.114  0.00  0.00    +0.085 C 
BRANCH   5   6
ATOM      6  C   UNL     1       2.668  -0.451   1.217  0.00  0.00    +0.217 C 
ATOM      7  N   UNL     1       2.552  -1.002   2.469  0.00  0.00    -0.306 N 
ATOM      8  H   UNL     1       2.640  -2.003   2.580  0.00  0.00    +0.149 HD
ATOM      9  O   UNL     1       2.642   0.761   1.015  0.00  0.00    -0.275 OA
BRANCH   7  10
ATOM     10  C   UNL     1       2.629  -0.187   3.668  0.00  0.00    +0.132 C 
ATOM     11  C   UNL     1       3.003  -1.070   4.822  0.00  0.00    -0.022 A 
ATOM     12  C   UNL     1       1.966  -1.190   5.744  0.00  0.00    -0.040 A 
ATOM     13  C   UNL     1       2.056  -2.086   6.798  0.00  0.00    +0.004 A 
ATOM     14  C   UNL     1       3.210  -2.863   6.920  0.00  0.00    +0.000 A 
ATOM     15  C   UNL     1       4.268  -2.718   6.012  0.00  0.00    +0.000 A 
ATOM     16  C   UNL     1       0.803  -0.317   5.397  0.00  0.00    +0.069 C 
ATOM     17  C   UNL     1       4.173  -1.809   4.958  0.00  0.00    +0.006 A 
ATOM     18  C   UNL     1       1.251   0.400   4.103  0.00  0.00    +0.143 C 
BRANCH  18  19
ATOM     19  O   UNL     1       1.328   1.813   4.347  0.00  0.00    -0.389 OA
ATOM     20  H   UNL     1       2.077   1.970   4.949  0.00  0.00    +0.210 HD
ENDBRANCH  18  19
ENDBRANCH   7  10
ENDBRANCH   5   6
BRANCH   5  22
ATOM     21  C   UNL     1       1.090  -0.525  -1.371  0.00  0.00    +0.013 C 
ATOM     22  C   UNL     1       2.587  -0.884  -1.281  0.00  0.00    +0.028 C 
BRANCH  22  23
ATOM     23  C   UNL     1       2.918  -1.761  -2.486  0.00  0.00    -0.044 A 
ATOM     24  C   UNL     1       2.716  -3.150  -2.497  0.00  0.00    +0.004 A 
ATOM     25  C   UNL     1       2.999  -3.903  -3.641  0.00  0.00    +0.000 A 
ATOM     26  C   UNL     1       3.464  -3.278  -4.796  0.00  0.00    +0.000 A 
ATOM     27  C   UNL     1       3.640  -1.898  -4.812  0.00  0.00    +0.000 A 
ATOM     28  C   UNL     1       3.367  -1.146  -3.667  0.00  0.00    +0.004 A 
ENDBRANCH  22  23
ENDBRANCH   5  22
ENDBRANCH   4   5
ENDBRANCH   1   4
BRANCH   1  29
ATOM     29  C   UNL     1       6.927  -1.440   0.244  0.00  0.00    +0.116 C 
BRANCH  29  30
ATOM     30  N   UNL     1       7.450  -2.404  -0.769  0.00  0.00    -0.287 NA
ATOM     31  C   UNL     1       8.907  -2.620  -0.437  0.00  0.00    +0.157 C 
ATOM     32  C   UNL     1       9.844  -1.423  -0.804  0.00  0.00    +0.113 C 
ATOM     33  N   UNL     1       9.682  -0.821  -2.151  0.00  0.00    -0.295 NA
ATOM     34  C   UNL     1       8.246  -0.610  -2.423  0.00  0.00    +0.100 C 
ATOM     35  C   UNL     1       7.344  -1.838  -2.134  0.00  0.00    +0.100 C 
BRANCH  31  36
ATOM     36  C   UNL     1       9.526  -3.932  -0.988  0.00  0.00    +0.232 C 
ATOM     37  N   UNL     1       8.691  -4.993  -1.277  0.00  0.00    -0.309 N 
ATOM     38  H   UNL     1       7.694  -4.798  -1.294  0.00  0.00    +0.149 HD
ATOM     39  O   UNL     1      10.748  -4.037  -1.057  0.00  0.00    -0.274 OA
BRANCH  37  40
ATOM     40  C   UNL     1       9.222  -6.284  -1.768  0.00  0.00    +0.026 C 
ATOM     41  C   UNL     1       9.899  -6.114  -3.139  0.00  0.00    +0.031 C 
ATOM     42  C   UNL     1       8.081  -7.298  -1.942  0.00  0.00    +0.031 C 
ATOM     43  C   UNL     1      10.225  -6.891  -0.764  0.00  0.00    +0.031 C 
ENDBRANCH  37  40
ENDBRANCH  31  36
BRANCH  33  44
ATOM     44  C   UNL     1      10.286  -1.624  -3.235  0.00  0.00    +0.119 C 
BRANCH  44  45
ATOM     45  C   UNL     1      11.787  -1.835  -3.176  0.00  0.00    -0.030 A 
ATOM     46  C   UNL     1      12.666  -0.862  -2.680  0.00  0.00    +0.054 A 
ATOM     47  C   UNL     1      14.019  -1.141  -2.695  0.00  0.00    +0.167 A 
ATOM     48  C   UNL     1      14.516  -2.327  -3.186  0.00  0.00    +0.166 A 
ATOM     49  O   UNL     1      15.872  -2.396  -3.114  0.00  0.00    -0.453 OA
ATOM     50  C   UNL     1      16.174  -1.109  -2.539  0.00  0.00    +0.466 C 
ATOM     51  C   UNL     1      13.692  -3.298  -3.698  0.00  0.00    +0.050 A 
ATOM     52  O   UNL     1      15.005  -0.313  -2.252  0.00  0.00    -0.453 OA
ATOM     53  C   UNL     1      12.321  -3.035  -3.709  0.00  0.00    +0.009 A 
ENDBRANCH  44  45
ENDBRANCH  33  44
ENDBRANCH  29  30
ENDBRANCH   1  29
TORSDOF 14
