REMARK  Name = 
REMARK  9 active torsions:
REMARK  status: ('A' for Active; 'I' for Inactive)
REMARK    1  A    between atoms: C_2  and  C_5
REMARK    2  A    between atoms: C_5  and  O_6
REMARK    3  A    between atoms: O_6  and  C_7
REMARK    4  A    between atoms: C_9  and  C_10
REMARK    5  A    between atoms: N_12  and  C_13
REMARK    6  A    between atoms: C_13  and  C_14
REMARK    7  A    between atoms: C_20  and  O_21
REMARK    8  A    between atoms: O_21  and  C_22
REMARK    9  A    between atoms: C_22  and  C_23
REMARK                            x       y       z     vdW  Elec       q    Type
REMARK                         _______ _______ _______ _____ _____    ______ ____
ROOT
ATOM      1  C   UNL     1       4.842   2.583   0.724  0.00  0.00    +0.122 A 
ATOM      2  C   UNL     1       6.177   2.510   1.114  0.00  0.00    +0.049 A 
ATOM      3  C   UNL     1       6.918   3.670   1.343  0.00  0.00    +0.050 A 
ATOM      4  C   UNL     1       6.324   4.927   1.181  0.00  0.00    +0.133 A 
ATOM      5  C   UNL     1       4.968   5.007   0.805  0.00  0.00    +0.082 A 
ATOM      6  C   UNL     1       4.227   3.827   0.596  0.00  0.00    +0.062 A 
ENDROOT
BRANCH   5   7
ATOM      7  C   UNL     1       4.248   6.306   0.578  0.00  0.00    +0.248 C 
ATOM      8  N   UNL     1       5.029   7.398   0.279  0.00  0.00    -0.310 N 
ATOM      9  H   UNL     1       6.028   7.307   0.395  0.00  0.00    +0.149 HD
ATOM     10  O   UNL     1       3.022   6.344   0.623  0.00  0.00    -0.270 OA
BRANCH   8  11
ATOM     11  C   UNL     1       4.512   8.747   0.118  0.00  0.00    +0.123 C 
BRANCH  11  12
ATOM     12  C   UNL     1       4.754   9.302  -1.309  0.00  0.00    +0.071 C 
ATOM     13  N   UNL     1       6.160   9.236  -1.763  0.00  0.00    -0.312 NA
ATOM     14  H   UNL     1       6.506   8.286  -1.640  0.00  0.00    +0.122 HD
ATOM     15  C   UNL     1       7.039  10.190  -1.089  0.00  0.00    +0.081 C 
ATOM     16  C   UNL     1       6.541  11.627  -1.232  0.00  0.00    +0.015 C 
ATOM     17  C   UNL     1       5.097  11.766  -0.766  0.00  0.00    +0.003 C 
ATOM     18  C   UNL     1       4.212  10.732  -1.457  0.00  0.00    +0.020 C 
ENDBRANCH  11  12
ENDBRANCH   8  11
ENDBRANCH   5   7
BRANCH   1  19
ATOM     19  O   UNL     1       4.230   1.376   0.536  0.00  0.00    -0.483 OA
BRANCH  19  20
ATOM     20  C   UNL     1       3.192   1.333  -0.450  0.00  0.00    +0.342 C 
BRANCH  20  22
ATOM     21  F   UNL     1       4.071  -0.895  -0.651  0.00  0.00    -0.167 F 
ATOM     22  C   UNL     1       3.124  -0.045  -1.108  0.00  0.00    +0.424 C 
ATOM     23  F   UNL     1       1.921  -0.628  -0.899  0.00  0.00    -0.167 F 
ATOM     24  F   UNL     1       3.293   0.056  -2.449  0.00  0.00    -0.167 F 
ENDBRANCH  20  22
ENDBRANCH  19  20
ENDBRANCH   1  19
BRANCH   4  25
ATOM     25  O   UNL     1       6.982   6.093   1.463  0.00  0.00    -0.482 OA
BRANCH  25  26
ATOM     26  C   UNL     1       8.393   6.146   1.213  0.00  0.00    +0.342 C 
BRANCH  26  27
ATOM     27  C   UNL     1       8.915   7.566   1.432  0.00  0.00    +0.424 C 
ATOM     28  F   UNL     1       9.388   8.088   0.277  0.00  0.00    -0.167 F 
ATOM     29  F   UNL     1       9.922   7.584   2.333  0.00  0.00    -0.167 F 
ATOM     30  F   UNL     1       7.950   8.403   1.880  0.00  0.00    -0.167 F 
ENDBRANCH  26  27
ENDBRANCH  25  26
ENDBRANCH   4  25
TORSDOF 9
