REMARK  Name = 
REMARK  14 active torsions:
REMARK  status: ('A' for Active; 'I' for Inactive)
REMARK    1  A    between atoms: C_1  and  O_2
REMARK    2  A    between atoms: O_2  and  C_3
REMARK    3  A    between atoms: C_4  and  O_5
REMARK    4  A    between atoms: O_5  and  C_6
REMARK    5  A    between atoms: C_8  and  C_9
REMARK    6  A    between atoms: C_9  and  C_10
REMARK    7  A    between atoms: C_10  and  N_11
REMARK    8  A    between atoms: N_11  and  C_12
REMARK    9  A    between atoms: C_12  and  C_13
REMARK   10  A    between atoms: C_13  and  O_14
REMARK   11  A    between atoms: C_13  and  C_15
REMARK   12  A    between atoms: C_15  and  O_16
REMARK   13  A    between atoms: O_16  and  C_17
REMARK   14  A    between atoms: C_21  and  C_22
REMARK                            x       y       z     vdW  Elec       q    Type
REMARK                         _______ _______ _______ _____ _____    ______ ____
ROOT
ATOM      1  N   UNL     1       4.433   6.745  -3.639  0.00  0.00    -0.313 NA
ATOM      2  H   UNL     1       4.022   6.553  -4.552  0.00  0.00    +0.122 HD
ENDROOT
BRANCH   1   3
ATOM      3  C   UNL     1       4.033   5.669  -2.722  0.00  0.00    +0.085 C 
BRANCH   3   4
ATOM      4  C   UNL     1       2.510   5.499  -2.609  0.00  0.00    +0.050 C 
BRANCH   4   8
ATOM      5  C   UNL     1       1.579   2.350   0.173  0.00  0.00    +0.161 A 
ATOM      6  C   UNL     1       1.791   3.658   0.624  0.00  0.00    +0.049 A 
ATOM      7  C   UNL     1       2.077   4.675  -0.279  0.00  0.00    +0.007 A 
ATOM      8  C   UNL     1       2.157   4.400  -1.646  0.00  0.00    -0.042 A 
ATOM      9  C   UNL     1       1.955   3.091  -2.099  0.00  0.00    +0.053 A 
ATOM     10  C   UNL     1       1.678   2.058  -1.202  0.00  0.00    +0.162 A 
BRANCH   5  12
ATOM     11  C   UNL     1       0.725   1.647   2.267  0.00  0.00    +0.277 C 
ATOM     12  O   UNL     1       1.317   1.300   1.020  0.00  0.00    -0.491 OA
ENDBRANCH   5  12
BRANCH  10  13
ATOM     13  O   UNL     1       1.496   0.747  -1.570  0.00  0.00    -0.491 OA
ATOM     14  C   UNL     1       1.522   0.449  -2.960  0.00  0.00    +0.277 C 
ENDBRANCH  10  13
ENDBRANCH   4   8
ENDBRANCH   3   4
ENDBRANCH   1   3
BRANCH   1  15
ATOM     15  C   UNL     1       4.014   8.070  -3.145  0.00  0.00    +0.115 C 
BRANCH  15  16
ATOM     16  C   UNL     1       4.446   9.205  -4.091  0.00  0.00    +0.166 C 
BRANCH  16  17
ATOM     17  O   UNL     1       5.875   9.203  -4.200  0.00  0.00    -0.387 OA
ATOM     18  H   UNL     1       6.128   8.275  -4.364  0.00  0.00    +0.210 HD
ENDBRANCH  16  17
BRANCH  16  19
ATOM     19  C   UNL     1       3.799   9.049  -5.473  0.00  0.00    +0.261 C 
BRANCH  19  20
ATOM     20  O   UNL     1       4.078  10.207  -6.255  0.00  0.00    -0.489 OA
BRANCH  20  21
ATOM     21  C   UNL     1       3.739  10.131  -7.578  0.00  0.00    +0.121 A 
ATOM     22  C   UNL     1       4.273  11.150  -8.367  0.00  0.00    +0.049 A 
ATOM     23  C   UNL     1       4.004  11.213  -9.738  0.00  0.00    -0.047 A 
ATOM     24  C   UNL     1       4.592  12.323 -10.555  0.00  0.00    +0.044 C 
ATOM     25  C   UNL     1       3.180  10.241 -10.314  0.00  0.00    +0.003 A 
ATOM     26  C   UNL     1       2.642   9.221  -9.530  0.00  0.00    +0.004 A 
ATOM     27  C   UNL     1       2.921   9.164  -8.162  0.00  0.00    +0.045 A 
ENDBRANCH  20  21
ENDBRANCH  19  20
ENDBRANCH  16  19
ENDBRANCH  15  16
ENDBRANCH   1  15
TORSDOF 11
