REMARK  Name = 
REMARK  4 active torsions:
REMARK  status: ('A' for Active; 'I' for Inactive)
REMARK    1  A    between atoms: O_1  and  N_2
REMARK    2  A    between atoms: C_6  and  O_8
REMARK    3  A    between atoms: C_9  and  O_11
REMARK    4  A    between atoms: C_12  and  O_14
REMARK                            x       y       z     vdW  Elec       q    Type
REMARK                         _______ _______ _______ _____ _____    ______ ____
ROOT
ATOM      1  N   UNL     1       2.513  -0.215  -0.121  0.00  0.00    +0.149 NA
ATOM      2  C   UNL     1       3.118  -0.029  -1.262  0.00  0.00    +0.364 C 
ATOM      3  C   UNL     1       4.657   0.051  -1.283  0.00  0.00    +0.265 C 
ATOM      4  C   UNL     1       5.056   1.286  -2.103  0.00  0.00    +0.187 C 
ATOM      5  C   UNL     1       4.363   1.304  -3.477  0.00  0.00    +0.185 C 
ATOM      6  C   UNL     1       2.840   1.202  -3.345  0.00  0.00    +0.257 C 
ATOM      7  N   UNL     1       2.448   0.125  -2.458  0.00  0.00    -0.229 N 
ATOM      8  H   UNL     1       1.444   0.086  -2.286  0.00  0.00    +0.291 HD
ENDROOT
BRANCH   1   9
ATOM      9  O   UNL     1       1.121  -0.213  -0.302  0.00  0.00    -0.311 OA
ATOM     10  H   UNL     1       0.799  -0.419   0.596  0.00  0.00    +0.361 HD
ENDBRANCH   1   9
BRANCH   3  11
ATOM     11  O   UNL     1       5.216   0.123   0.026  0.00  0.00    -0.378 OA
ATOM     12  H   UNL     1       4.519   0.482   0.604  0.00  0.00    +0.211 HD
ENDBRANCH   3  11
BRANCH   4  13
ATOM     13  O   UNL     1       6.479   1.317  -2.318  0.00  0.00    -0.386 OA
ATOM     14  H   UNL     1       6.638   1.937  -3.054  0.00  0.00    +0.210 HD
ENDBRANCH   4  13
BRANCH   5  15
ATOM     15  O   UNL     1       4.732   2.511  -4.165  0.00  0.00    -0.385 OA
ATOM     16  H   UNL     1       4.432   3.271  -3.634  0.00  0.00    +0.210 HD
ENDBRANCH   5  15
TORSDOF 4
