REMARK  Name = 
REMARK  54 active torsions:
REMARK  status: ('A' for Active; 'I' for Inactive)
REMARK    1  A    between atoms: C_1  and  C_2
REMARK    2  A    between atoms: C_2  and  C_3
REMARK    3  A    between atoms: C_3  and  C_4
REMARK    4  A    between atoms: C_3  and  C_5
REMARK    5  A    between atoms: C_5  and  C_6
REMARK    6  A    between atoms: C_6  and  C_7
REMARK    7  A    between atoms: C_7  and  C_8
REMARK    8  A    between atoms: C_8  and  C_9
REMARK    9  A    between atoms: N_11  and  C_12
REMARK   10  A    between atoms: C_12  and  C_13
REMARK   11  A    between atoms: C_12  and  C_21
REMARK   12  A    between atoms: C_13  and  C_14
REMARK   13  A    between atoms: C_14  and  N_15
REMARK   14  A    between atoms: N_15  and  C_16
REMARK   15  A    between atoms: C_16  and  S_17
REMARK   16  A    between atoms: N_23  and  C_24
REMARK   17  A    between atoms: C_24  and  C_25
REMARK   18  A    between atoms: C_24  and  C_28
REMARK   19  A    between atoms: C_25  and  C_26
REMARK   20  A    between atoms: C_25  and  O_27
REMARK   21  A    between atoms: N_30  and  C_31
REMARK   22  A    between atoms: C_31  and  C_32
REMARK   23  A    between atoms: C_31  and  C_40
REMARK   24  A    between atoms: C_32  and  C_33
REMARK   25  A    between atoms: C_33  and  N_34
REMARK   26  A    between atoms: N_34  and  C_35
REMARK   27  A    between atoms: C_35  and  S_36
REMARK   28  A    between atoms: N_42  and  C_43
REMARK   29  A    between atoms: C_49  and  C_105
REMARK   30  A    between atoms: C_53  and  C_54
REMARK   31  A    between atoms: C_54  and  C_55
REMARK   32  A    between atoms: C_55  and  N_56
REMARK   33  A    between atoms: N_56  and  C_57
REMARK   34  A    between atoms: C_57  and  S_58
REMARK   35  A    between atoms: C_65  and  C_66
REMARK   36  A    between atoms: C_66  and  C_67
REMARK   37  A    between atoms: C_67  and  N_68
REMARK   38  A    between atoms: N_68  and  C_69
REMARK   39  A    between atoms: C_69  and  S_70
REMARK   40  A    between atoms: C_77  and  C_78
REMARK   41  A    between atoms: C_78  and  C_79
REMARK   42  A    between atoms: C_79  and  C_80
REMARK   43  A    between atoms: C_79  and  C_81
REMARK   44  A    between atoms: C_85  and  C_86
REMARK   45  A    between atoms: C_86  and  C_87
REMARK   46  A    between atoms: C_87  and  C_88
REMARK   47  A    between atoms: C_87  and  C_89
REMARK   48  A    between atoms: C_93  and  C_94
REMARK   49  A    between atoms: C_94  and  C_95
REMARK   50  A    between atoms: C_95  and  N_96
REMARK   51  A    between atoms: N_96  and  C_97
REMARK   52  A    between atoms: C_97  and  S_98
REMARK   53  A    between atoms: C_105  and  C_106
REMARK   54  A    between atoms: C_105  and  O_107
REMARK                            x       y       z     vdW  Elec       q    Type
REMARK                         _______ _______ _______ _____ _____    ______ ____
ROOT
ATOM      1  C   UNL     1      21.109   6.508   5.517  0.00  0.00    +0.160 C 
ATOM      2  C   UNL     1      21.776   6.130   3.371  0.00  0.00    +0.234 C 
ATOM      3  O   UNL     1      20.666   6.038   2.689  0.00  0.00    -0.274 OA
ATOM      4  N   UNL     1      23.107   6.077   1.817  0.00  0.00    -0.302 N 
ATOM      5  H   UNL     1      22.244   6.452   1.260  0.00  0.00    +0.150 HD
ATOM      6  C   UNL     1      24.110   5.996  -0.067  0.00  0.00    +0.160 C 
ATOM      7  C   UNL     1      24.045   6.482  -1.993  0.00  0.00    +0.234 C 
ATOM      8  O   UNL     1      23.448   5.923  -2.937  0.00  0.00    -0.274 OA
ATOM      9  N   UNL     1      25.039   7.772  -2.532  0.00  0.00    -0.302 N 
ATOM     10  H   UNL     1      25.337   8.251  -3.404  0.00  0.00    +0.150 HD
ATOM     11  C   UNL     1      24.679   8.699  -1.638  0.00  0.00    +0.159 C 
ATOM     12  C   UNL     1      25.538   9.488  -0.681  0.00  0.00    +0.234 C 
ATOM     13  O   UNL     1      26.247  10.442  -0.965  0.00  0.00    -0.274 OA
ATOM     14  N   UNL     1      25.548   8.826   0.553  0.00  0.00    -0.302 N 
ATOM     15  H   UNL     1      25.550   7.815   0.697  0.00  0.00    +0.150 HD
ATOM     16  C   UNL     1      26.185   9.403   1.623  0.00  0.00    +0.159 C 
ATOM     17  C   UNL     1      25.806   8.614   2.833  0.00  0.00    +0.234 C 
ATOM     18  O   UNL     1      25.484   7.436   2.795  0.00  0.00    -0.274 OA
ATOM     19  N   UNL     1      26.034   9.381   3.948  0.00  0.00    -0.302 N 
ATOM     20  H   UNL     1      25.915  10.384   3.860  0.00  0.00    +0.150 HD
ATOM     21  C   UNL     1      25.738   8.874   5.246  0.00  0.00    +0.160 C 
ATOM     22  C   UNL     1      26.119   9.760   6.354  0.00  0.00    +0.234 C 
ATOM     23  O   UNL     1      26.549  10.890   6.136  0.00  0.00    -0.274 OA
ATOM     24  N   UNL     1      25.727   9.290   7.585  0.00  0.00    -0.302 N 
ATOM     25  H   UNL     1      25.405   8.324   7.741  0.00  0.00    +0.150 HD
ATOM     26  C   UNL     1      26.037  10.048   8.745  0.00  0.00    +0.160 C 
ATOM     27  C   UNL     1      25.548   9.310   9.967  0.00  0.00    +0.234 C 
ATOM     28  O   UNL     1      25.253   8.115   9.910  0.00  0.00    -0.274 OA
ATOM     29  N   UNL     1      25.538  10.012  11.138  0.00  0.00    -0.300 N 
ATOM     30  H   UNL     1      26.108  10.847  11.247  0.00  0.00    +0.150 HD
ATOM     31  C   UNL     1      24.957   9.403  12.335  0.00  0.00    +0.187 C 
ATOM     32  C   UNL     1      23.286   9.263  11.883  0.00  0.00    +0.236 C 
ATOM     33  O   UNL     1      22.475   9.793  12.649  0.00  0.00    -0.274 OA
ATOM     34  N   UNL     1      23.022   8.490  10.537  0.00  0.00    -0.314 N 
ATOM     35  H   UNL     1      23.807   7.844  10.502  0.00  0.00    +0.149 HD
ATOM     36  C   UNL     1      21.796   8.016   9.262  0.00  0.00    +0.106 C 
ATOM     37  C   UNL     1      21.848   7.240   7.382  0.00  0.00    +0.050 C 
ENDROOT
BRANCH   1  39
ATOM     38  C   UNL     1      19.038   6.686   8.245  0.00  0.00    +0.234 C 
ATOM     39  N   UNL     1      19.940   5.940   6.987  0.00  0.00    -0.302 N 
ATOM     40  H   UNL     1      20.534   5.251   7.443  0.00  0.00    +0.150 HD
ATOM     41  O   UNL     1      18.467   7.767   7.992  0.00  0.00    -0.274 OA
BRANCH  38  42
ATOM     42  C   UNL     1      18.746   6.095  10.072  0.00  0.00    +0.160 C 
BRANCH  42  44
ATOM     43  C   UNL     1      18.133   6.106  12.843  0.00  0.00    +0.236 C 
ATOM     44  N   UNL     1      17.762   6.491  11.489  0.00  0.00    -0.302 N 
ATOM     45  H   UNL     1      16.783   6.256  11.347  0.00  0.00    +0.150 HD
ATOM     46  O   UNL     1      19.317   5.870  13.121  0.00  0.00    -0.274 OA
BRANCH  43  47
ATOM     47  C   UNL     1      17.036   5.944  14.112  0.00  0.00    +0.187 C 
BRANCH  47  49
ATOM     48  C   UNL     1      14.554   5.538  14.574  0.00  0.00    +0.234 C 
ATOM     49  N   UNL     1      15.596   6.040  13.776  0.00  0.00    -0.300 N 
ATOM     50  H   UNL     1      15.377   6.811  13.159  0.00  0.00    +0.150 HD
ATOM     51  O   UNL     1      14.686   4.917  15.630  0.00  0.00    -0.274 OA
BRANCH  48  52
ATOM     52  C   UNL     1      13.129   5.818  14.081  0.00  0.00    +0.160 C 
BRANCH  52  54
ATOM     53  C   UNL     1      11.178   4.353  13.651  0.00  0.00    +0.214 C 
ATOM     54  N   UNL     1      12.277   4.673  14.409  0.00  0.00    -0.304 N 
ATOM     55  H   UNL     1      12.534   4.130  15.226  0.00  0.00    +0.149 HD
ATOM     56  O   UNL     1      10.850   4.977  12.645  0.00  0.00    -0.276 OA
BRANCH  53  57
ATOM     57  C   UNL     1      10.398   3.143  14.114  0.00  0.00    +0.096 C 
BRANCH  57  58
ATOM     58  C   UNL     1       9.815   3.341  15.507  0.00  0.00    +0.009 C 
BRANCH  58  59
ATOM     59  C   UNL     1       9.000   2.123  15.912  0.00  0.00    +0.001 C 
BRANCH  59  60
ATOM     60  C   UNL     1       8.383   2.296  17.300  0.00  0.00    +0.003 C 
BRANCH  60  61
ATOM     61  C   UNL     1       7.553   1.067  17.713  0.00  0.00    -0.014 C 
ATOM     62  C   UNL     1       6.430   0.800  16.704  0.00  0.00    +0.007 C 
BRANCH  61  64
ATOM     63  C   UNL     1       6.210   0.058  19.621  0.00  0.00    +0.004 C 
ATOM     64  C   UNL     1       6.985   1.272  19.129  0.00  0.00    -0.000 C 
ENDBRANCH  61  64
ENDBRANCH  60  61
ENDBRANCH  59  60
ENDBRANCH  58  59
ENDBRANCH  57  58
ENDBRANCH  53  57
ENDBRANCH  52  54
BRANCH  52  65
ATOM     65  C   UNL     1      12.646   7.085  14.790  0.00  0.00    +0.047 C 
BRANCH  65  66
ATOM     66  C   UNL     1      13.528   8.286  14.429  0.00  0.00    +0.084 C 
BRANCH  66  67
ATOM     67  N   UNL     1      13.543   8.575  12.994  0.00  0.00    -0.299 NA
ATOM     68  H   UNL     1      13.816   7.788  12.420  0.00  0.00    +0.123 HD
BRANCH  67  69
ATOM     69  C   UNL     1      12.163   8.960  12.537  0.00  0.00    +0.236 C 
BRANCH  69  70
ATOM     70  S   UNL     1      11.318  10.398  13.308  0.00  0.00    -0.067 S 
ATOM     71  O   UNL     1      11.175  10.046  14.723  0.00  0.00    -0.184 OA
ATOM     72  O   UNL     1      10.043  10.472  12.596  0.00  0.00    -0.184 OA
ATOM     73  O   UNL     1      12.229  11.513  13.048  0.00  0.00    -0.723 OA
ENDBRANCH  69  70
ENDBRANCH  67  69
ENDBRANCH  66  67
ENDBRANCH  65  66
ENDBRANCH  52  65
ENDBRANCH  48  52
ENDBRANCH  47  49
BRANCH  47  74
ATOM     74  C   UNL     1      17.334   4.625  14.943  0.00  0.00    +0.141 C 
ATOM     75  C   UNL     1      16.946   3.407  14.112  0.00  0.00    +0.040 C 
BRANCH  74  76
ATOM     76  O   UNL     1      18.676   4.499  15.414  0.00  0.00    -0.390 OA
ATOM     77  H   UNL     1      19.265   4.686  14.657  0.00  0.00    +0.210 HD
ENDBRANCH  74  76
ENDBRANCH  47  74
ENDBRANCH  43  47
ENDBRANCH  42  44
BRANCH  42  78
ATOM     78  C   UNL     1      18.183   4.696  10.013  0.00  0.00    +0.047 C 
BRANCH  78  79
ATOM     79  C   UNL     1      19.124   3.792   9.322  0.00  0.00    +0.084 C 
BRANCH  79  80
ATOM     80  N   UNL     1      18.679   2.440   9.529  0.00  0.00    -0.299 NA
ATOM     81  H   UNL     1      17.676   2.307   9.385  0.00  0.00    +0.123 HD
BRANCH  80  82
ATOM     82  C   UNL     1      19.354   1.625   8.485  0.00  0.00    +0.236 C 
BRANCH  82  83
ATOM     83  S   UNL     1      18.981  -0.144   8.448  0.00  0.00    -0.067 S 
ATOM     84  O   UNL     1      19.756  -0.639   7.312  0.00  0.00    -0.184 OA
ATOM     85  O   UNL     1      17.529  -0.176   8.252  0.00  0.00    -0.184 OA
ATOM     86  O   UNL     1      19.428  -0.639   9.751  0.00  0.00    -0.723 OA
ENDBRANCH  82  83
ENDBRANCH  80  82
ENDBRANCH  79  80
ENDBRANCH  78  79
ENDBRANCH  42  78
ENDBRANCH  38  42
ENDBRANCH   1  39
BRANCH  31  87
ATOM     87  C   UNL     1      25.511  10.266  13.596  0.00  0.00    +0.141 C 
ATOM     88  C   UNL     1      25.156   9.792  15.006  0.00  0.00    +0.040 C 
BRANCH  87  89
ATOM     89  O   UNL     1      26.974  10.334  13.569  0.00  0.00    -0.390 OA
ATOM     90  H   UNL     1      27.351   9.468  13.821  0.00  0.00    +0.210 HD
ENDBRANCH  87  89
ENDBRANCH  31  87
BRANCH  16  91
ATOM     91  C   UNL     1      27.658   9.198   1.453  0.00  0.00    +0.034 C 
BRANCH  91  92
ATOM     92  C   UNL     1      28.367   9.876   2.593  0.00  0.00    -0.015 C 
ATOM     93  C   UNL     1      28.057  11.369   2.539  0.00  0.00    +0.007 C 
ATOM     94  C   UNL     1      29.817   9.533   2.471  0.00  0.00    +0.007 C 
ENDBRANCH  91  92
ENDBRANCH  16  91
BRANCH   6  95
ATOM     95  C   UNL     1      25.651   5.659  -1.564  0.00  0.00    +0.047 C 
BRANCH  95  96
ATOM     96  C   UNL     1      25.993   5.721  -3.639  0.00  0.00    +0.084 C 
BRANCH  96  97
ATOM     97  N   UNL     1      27.032   5.772  -5.184  0.00  0.00    -0.299 NA
ATOM     98  H   UNL     1      26.613   6.295  -5.987  0.00  0.00    +0.123 HD
BRANCH  97  99
ATOM     99  C   UNL     1      28.531   5.377  -5.695  0.00  0.00    +0.236 C 
BRANCH  99 100
ATOM    100  S   UNL     1      29.504   5.304  -7.580  0.00  0.00    -0.067 S 
ATOM    101  O   UNL     1      30.898   4.970  -7.230  0.00  0.00    -0.184 OA
ATOM    102  O   UNL     1      29.431   6.618  -8.227  0.00  0.00    -0.184 OA
ATOM    103  O   UNL     1      28.904   4.242  -8.393  0.00  0.00    -0.723 OA
ENDBRANCH  99 100
ENDBRANCH  97  99
ENDBRANCH  96  97
ENDBRANCH  95  96
ENDBRANCH   6  95
BRANCH  26 104
ATOM    104  C   UNL     1      27.531  10.066   8.829  0.00  0.00    +0.047 C 
BRANCH 104 105
ATOM    105  C   UNL     1      28.054   8.614   8.889  0.00  0.00    +0.084 C 
BRANCH 105 106
ATOM    106  N   UNL     1      29.488   8.581   8.912  0.00  0.00    -0.299 NA
ATOM    107  H   UNL     1      29.885   8.994   8.068  0.00  0.00    +0.123 HD
BRANCH 106 108
ATOM    108  C   UNL     1      30.023   9.351  10.058  0.00  0.00    +0.236 C 
BRANCH 108 109
ATOM    109  S   UNL     1      31.817   9.487  10.166  0.00  0.00    -0.067 S 
ATOM    110  O   UNL     1      32.275   8.110  10.330  0.00  0.00    -0.184 OA
ATOM    111  O   UNL     1      32.016  10.342  11.338  0.00  0.00    -0.184 OA
ATOM    112  O   UNL     1      32.170  10.117   8.891  0.00  0.00    -0.723 OA
ENDBRANCH 108 109
ENDBRANCH 106 108
ENDBRANCH 105 106
ENDBRANCH 104 105
ENDBRANCH  26 104
BRANCH  21 113
ATOM    113  C   UNL     1      24.317   9.134   5.215  0.00  0.00    +0.047 C 
BRANCH 113 114
ATOM    114  C   UNL     1      23.515   8.750   6.375  0.00  0.00    +0.084 C 
BRANCH 114 115
ATOM    115  N   UNL     1      22.272   8.769   5.702  0.00  0.00    -0.299 NA
ATOM    116  H   UNL     1      21.971   9.691   5.405  0.00  0.00    +0.123 HD
BRANCH 115 117
ATOM    117  C   UNL     1      22.500   7.751   4.611  0.00  0.00    +0.236 C 
BRANCH 117 118
ATOM    118  S   UNL     1      23.350   5.679   5.277  0.00  0.00    -0.067 S 
ATOM    119  O   UNL     1      23.629   4.868   4.099  0.00  0.00    -0.184 OA
ATOM    120  O   UNL     1      22.361   4.890   6.057  0.00  0.00    -0.184 OA
ATOM    121  O   UNL     1      24.515   5.900   6.115  0.00  0.00    -0.723 OA
ENDBRANCH 117 118
ENDBRANCH 115 117
ENDBRANCH 114 115
ENDBRANCH 113 114
ENDBRANCH  21 113
BRANCH  11 122
ATOM    122  C   UNL     1      23.132   8.721  -2.047  0.00  0.00    +0.034 C 
BRANCH 122 123
ATOM    123  C   UNL     1      22.237   8.188  -0.944  0.00  0.00    -0.015 C 
ATOM    124  C   UNL     1      20.860   7.557  -1.059  0.00  0.00    +0.007 C 
ATOM    125  C   UNL     1      22.469   9.177   0.145  0.00  0.00    +0.007 C 
ENDBRANCH 122 123
ENDBRANCH  11 122
TORSDOF 46
