REMARK  Name = 
REMARK  4 active torsions:
REMARK  status: ('A' for Active; 'I' for Inactive)
REMARK    1  A    between atoms: O_1  and  C_2
REMARK    2  A    between atoms: C_2  and  C_4
REMARK    3  A    between atoms: C_8  and  O_9
REMARK    4  A    between atoms: C_10  and  O_11
REMARK                            x       y       z     vdW  Elec       q    Type
REMARK                         _______ _______ _______ _____ _____    ______ ____
ROOT
ATOM      1  C   UNL     1       3.216   0.674  -1.134  0.00  0.00    +0.104 A 
ATOM      2  C   UNL     1       4.081  -0.029  -1.974  0.00  0.00    +0.172 A 
ATOM      3  C   UNL     1       4.729   0.616  -3.029  0.00  0.00    +0.159 A 
ATOM      4  C   UNL     1       4.538   1.972  -3.264  0.00  0.00    +0.049 A 
ATOM      5  C   UNL     1       3.680   2.688  -2.429  0.00  0.00    +0.005 A 
ATOM      6  C   UNL     1       3.022   2.044  -1.373  0.00  0.00    +0.019 A 
ENDROOT
BRANCH   1   7
ATOM      7  C   UNL     1       2.479   0.058   0.005  0.00  0.00    +0.340 C 
ATOM      8  O   UNL     1       1.738   0.703   0.730  0.00  0.00    -0.245 OA
BRANCH   7   9
ATOM      9  O   UNL     1       2.684  -1.266   0.175  0.00  0.00    -0.477 OA
ATOM     10  H   UNL     1       3.311  -1.638  -0.486  0.00  0.00    +0.295 HD
ENDBRANCH   7   9
ENDBRANCH   1   7
BRANCH   2  11
ATOM     11  O   UNL     1       4.323  -1.370  -1.793  0.00  0.00    -0.503 OA
ATOM     12  H   UNL     1       4.970  -1.596  -2.499  0.00  0.00    +0.292 HD
ENDBRANCH   2  11
BRANCH   3  13
ATOM     13  O   UNL     1       5.552  -0.144  -3.817  0.00  0.00    -0.503 OA
ATOM     14  H   UNL     1       5.888   0.418  -4.538  0.00  0.00    +0.292 HD
ENDBRANCH   3  13
TORSDOF 4
