REMARK  Name = 
REMARK  47 active torsions:
REMARK  status: ('A' for Active; 'I' for Inactive)
REMARK    1  A    between atoms: C_1  and  C_2
REMARK    2  A    between atoms: C_2  and  C_3
REMARK    3  A    between atoms: C_3  and  C_4
REMARK    4  A    between atoms: C_4  and  C_5
REMARK    5  A    between atoms: C_5  and  C_6
REMARK    6  A    between atoms: C_6  and  C_7
REMARK    7  A    between atoms: C_7  and  C_8
REMARK    8  A    between atoms: C_8  and  C_9
REMARK    9  A    between atoms: C_9  and  C_10
REMARK   10  A    between atoms: C_10  and  C_11
REMARK   11  A    between atoms: C_11  and  C_12
REMARK   12  A    between atoms: C_12  and  C_13
REMARK   13  A    between atoms: C_13  and  C_14
REMARK   14  A    between atoms: C_14  and  C_15
REMARK   15  A    between atoms: C_15  and  C_16
REMARK   16  A    between atoms: C_16  and  C_17
REMARK   17  A    between atoms: C_17  and  C_18
REMARK   18  A    between atoms: C_18  and  O_20
REMARK   19  A    between atoms: O_20  and  C_21
REMARK   20  A    between atoms: C_21  and  C_22
REMARK   21  A    between atoms: C_22  and  C_24
REMARK   22  A    between atoms: C_22  and  O_33
REMARK   23  A    between atoms: C_24  and  O_25
REMARK   24  A    between atoms: O_25  and  P_26
REMARK   25  A    between atoms: P_26  and  O_27
REMARK   26  A    between atoms: P_26  and  O_29
REMARK   27  A    between atoms: O_29  and  C_30
REMARK   28  A    between atoms: C_30  and  C_31
REMARK   29  A    between atoms: C_31  and  N_32
REMARK   30  A    between atoms: O_33  and  C_34
REMARK   31  A    between atoms: C_34  and  C_36
REMARK   32  A    between atoms: C_36  and  C_37
REMARK   33  A    between atoms: C_37  and  C_38
REMARK   34  A    between atoms: C_38  and  C_39
REMARK   35  A    between atoms: C_39  and  C_40
REMARK   36  A    between atoms: C_40  and  C_41
REMARK   37  A    between atoms: C_41  and  C_42
REMARK   38  A    between atoms: C_42  and  C_43
REMARK   39  A    between atoms: C_43  and  C_44
REMARK   40  A    between atoms: C_44  and  C_45
REMARK   41  A    between atoms: C_45  and  C_46
REMARK   42  A    between atoms: C_46  and  C_47
REMARK   43  A    between atoms: C_47  and  C_48
REMARK   44  A    between atoms: C_48  and  C_49
REMARK   45  A    between atoms: C_49  and  C_50
REMARK   46  A    between atoms: C_50  and  C_51
REMARK   47  A    between atoms: C_51  and  C_52
REMARK                            x       y       z     vdW  Elec       q    Type
REMARK                         _______ _______ _______ _____ _____    ______ ____
ROOT
ATOM      1  C   UNL     1      19.000  -2.199 -13.736  0.00  0.00    +0.240 C 
ENDROOT
BRANCH   1   2
ATOM      2  C   UNL     1      18.399  -3.475 -14.318  0.00  0.00    +0.220 C 
BRANCH   2   3
ATOM      3  O   UNL     1      18.293  -3.332 -15.730  0.00  0.00    -0.283 OA
BRANCH   3   4
ATOM      4  P   UNL     1      17.524  -4.494 -16.524  0.00  0.00    +0.475 P 
ATOM      5  O   UNL     1      17.396  -4.268 -17.995  0.00  0.00    -0.227 OA
BRANCH   4   6
ATOM      6  O   UNL     1      18.436  -5.769 -16.201  0.00  0.00    -0.302 OA
ATOM      7  H   UNL     1      18.799  -6.130 -17.030  0.00  0.00    +0.222 HD
ENDBRANCH   4   6
BRANCH   4   8
ATOM      8  O   UNL     1      16.156  -4.712 -15.717  0.00  0.00    -0.285 OA
BRANCH   8   9
ATOM      9  C   UNL     1      15.052  -5.311 -16.371  0.00  0.00    +0.187 C 
BRANCH   9  10
ATOM     10  C   UNL     1      14.934  -6.788 -15.993  0.00  0.00    +0.106 C 
BRANCH  10  11
ATOM     11  N   UNL     1      16.084  -7.564 -16.453  0.00  0.00    -0.328 NA
ATOM     12  H   UNL     1      15.965  -8.542 -16.192  0.00  0.00    +0.118 HD
ATOM     13  H   UNL     1      16.151  -7.529 -17.468  0.00  0.00    +0.118 HD
ENDBRANCH  10  11
ENDBRANCH   9  10
ENDBRANCH   8   9
ENDBRANCH   4   8
ENDBRANCH   3   4
ENDBRANCH   2   3
ENDBRANCH   1   2
BRANCH   1  14
ATOM     14  C   UNL     1      19.193  -2.338 -12.221  0.00  0.00    +0.279 C 
BRANCH  14  15
ATOM     15  O   UNL     1      19.770  -1.142 -11.669  0.00  0.00    -0.461 OA
BRANCH  15  16
ATOM     16  C   UNL     1      21.098  -0.972 -11.933  0.00  0.00    +0.307 C 
ATOM     17  O   UNL     1      21.829  -1.823 -12.418  0.00  0.00    -0.251 OA
BRANCH  16  18
ATOM     18  C   UNL     1      21.540   0.398 -11.500  0.00  0.00    +0.120 C 
BRANCH  18  19
ATOM     19  C   UNL     1      21.966   0.341 -10.047  0.00  0.00    +0.011 C 
BRANCH  19  20
ATOM     20  C   UNL     1      22.445   1.696  -9.543  0.00  0.00    +0.001 C 
BRANCH  20  21
ATOM     21  C   UNL     1      22.862   1.577  -8.081  0.00  0.00    +0.000 C 
BRANCH  21  22
ATOM     22  C   UNL     1      23.350   2.908  -7.526  0.00  0.00    +0.000 C 
BRANCH  22  23
ATOM     23  C   UNL     1      23.761   2.747  -6.066  0.00  0.00    +0.000 C 
BRANCH  23  24
ATOM     24  C   UNL     1      24.253   4.070  -5.493  0.00  0.00    -0.000 C 
BRANCH  24  25
ATOM     25  C   UNL     1      24.666   3.903  -4.035  0.00  0.00    -0.000 C 
BRANCH  25  26
ATOM     26  C   UNL     1      25.156   5.228  -3.464  0.00  0.00    -0.000 C 
BRANCH  26  27
ATOM     27  C   UNL     1      25.567   5.068  -2.005  0.00  0.00    -0.000 C 
BRANCH  27  28
ATOM     28  C   UNL     1      26.058   6.394  -1.437  0.00  0.00    -0.000 C 
BRANCH  28  29
ATOM     29  C   UNL     1      26.468   6.237   0.023  0.00  0.00    -0.000 C 
BRANCH  29  30
ATOM     30  C   UNL     1      26.958   7.564   0.592  0.00  0.00    -0.000 C 
BRANCH  30  31
ATOM     31  C   UNL     1      27.371   7.411   2.053  0.00  0.00    -0.000 C 
BRANCH  31  32
ATOM     32  C   UNL     1      27.859   8.742   2.618  0.00  0.00    -0.000 C 
BRANCH  32  34
ATOM     33  C   UNL     1      28.759   9.928   4.641  0.00  0.00    +0.004 C 
ATOM     34  C   UNL     1      28.275   8.601   4.080  0.00  0.00    -0.003 C 
ENDBRANCH  32  34
ENDBRANCH  31  32
ENDBRANCH  30  31
ENDBRANCH  29  30
ENDBRANCH  28  29
ENDBRANCH  27  28
ENDBRANCH  26  27
ENDBRANCH  25  26
ENDBRANCH  24  25
ENDBRANCH  23  24
ENDBRANCH  22  23
ENDBRANCH  21  22
ENDBRANCH  20  21
ENDBRANCH  19  20
ENDBRANCH  18  19
ENDBRANCH  16  18
ENDBRANCH  15  16
ENDBRANCH  14  15
ENDBRANCH   1  14
BRANCH   1  35
ATOM     35  O   UNL     1      18.062  -1.121 -13.990  0.00  0.00    -0.456 OA
BRANCH  35  36
ATOM     36  C   UNL     1      18.615   0.103 -14.187  0.00  0.00    +0.308 C 
ATOM     37  O   UNL     1      19.806   0.370 -14.131  0.00  0.00    -0.251 OA
BRANCH  36  38
ATOM     38  C   UNL     1      17.555   1.120 -14.527  0.00  0.00    +0.120 C 
BRANCH  38  39
ATOM     39  C   UNL     1      17.958   1.887 -15.780  0.00  0.00    +0.011 C 
BRANCH  39  40
ATOM     40  C   UNL     1      18.066   0.965 -16.996  0.00  0.00    +0.001 C 
BRANCH  40  41
ATOM     41  C   UNL     1      18.484   1.744 -18.236  0.00  0.00    +0.000 C 
BRANCH  41  42
ATOM     42  C   UNL     1      18.600   0.816 -19.440  0.00  0.00    +0.000 C 
BRANCH  42  43
ATOM     43  C   UNL     1      19.009   1.597 -20.682  0.00  0.00    +0.000 C 
BRANCH  43  44
ATOM     44  C   UNL     1      19.116   0.674 -21.890  0.00  0.00    -0.000 C 
BRANCH  44  45
ATOM     45  C   UNL     1      19.520   1.458 -23.133  0.00  0.00    -0.000 C 
BRANCH  45  46
ATOM     46  C   UNL     1      19.624   0.534 -24.340  0.00  0.00    -0.000 C 
BRANCH  46  47
ATOM     47  C   UNL     1      20.026   1.316 -25.585  0.00  0.00    -0.000 C 
BRANCH  47  48
ATOM     48  C   UNL     1      20.130   0.392 -26.793  0.00  0.00    -0.000 C 
BRANCH  48  49
ATOM     49  C   UNL     1      20.533   1.175 -28.038  0.00  0.00    -0.000 C 
BRANCH  49  50
ATOM     50  C   UNL     1      20.639   0.251 -29.247  0.00  0.00    -0.000 C 
BRANCH  50  51
ATOM     51  C   UNL     1      21.044   1.031 -30.495  0.00  0.00    -0.000 C 
BRANCH  51  52
ATOM     52  C   UNL     1      21.148   0.105 -31.704  0.00  0.00    -0.000 C 
BRANCH  52  53
ATOM     53  C   UNL     1      21.553   0.878 -32.956  0.00  0.00    -0.003 C 
ATOM     54  C   UNL     1      21.658  -0.043 -34.159  0.00  0.00    +0.004 C 
ENDBRANCH  52  53
ENDBRANCH  51  52
ENDBRANCH  50  51
ENDBRANCH  49  50
ENDBRANCH  48  49
ENDBRANCH  47  48
ENDBRANCH  46  47
ENDBRANCH  45  46
ENDBRANCH  44  45
ENDBRANCH  43  44
ENDBRANCH  42  43
ENDBRANCH  41  42
ENDBRANCH  40  41
ENDBRANCH  39  40
ENDBRANCH  38  39
ENDBRANCH  36  38
ENDBRANCH  35  36
ENDBRANCH   1  35
TORSDOF 45
