REMARK  Name = 
REMARK  33 active torsions:
REMARK  status: ('A' for Active; 'I' for Inactive)
REMARK    1  A    between atoms: C_1  and  C_2
REMARK    2  A    between atoms: N_4  and  C_5
REMARK    3  A    between atoms: N_4  and  C_38
REMARK    4  A    between atoms: C_5  and  C_6
REMARK    5  A    between atoms: C_6  and  O_7
REMARK    6  A    between atoms: C_6  and  C_8
REMARK    7  A    between atoms: C_8  and  N_9
REMARK    8  A    between atoms: N_9  and  C_13
REMARK    9  A    between atoms: C_10  and  C_11
REMARK   10  A    between atoms: C_16  and  C_17
REMARK   11  A    between atoms: N_19  and  C_20
REMARK   12  A    between atoms: C_20  and  C_21
REMARK   13  A    between atoms: C_21  and  O_22
REMARK   14  A    between atoms: C_21  and  C_23
REMARK   15  A    between atoms: C_23  and  O_24
REMARK   16  A    between atoms: C_27  and  C_28
REMARK   17  A    between atoms: N_30  and  C_31
REMARK   18  A    between atoms: C_31  and  C_32
REMARK   19  A    between atoms: C_32  and  O_33
REMARK   20  A    between atoms: C_32  and  C_34
REMARK   21  A    between atoms: C_34  and  O_35
REMARK   22  A    between atoms: C_41  and  C_42
REMARK   23  A    between atoms: N_44  and  C_45
REMARK   24  A    between atoms: C_45  and  C_46
REMARK   25  A    between atoms: C_46  and  O_47
REMARK   26  A    between atoms: C_46  and  C_48
REMARK   27  A    between atoms: C_48  and  O_49
REMARK   28  A    between atoms: C_52  and  C_53
REMARK   29  A    between atoms: N_55  and  C_56
REMARK   30  A    between atoms: C_56  and  C_57
REMARK   31  A    between atoms: C_57  and  O_58
REMARK   32  A    between atoms: C_57  and  C_59
REMARK   33  A    between atoms: C_59  and  O_60
REMARK                            x       y       z     vdW  Elec       q    Type
REMARK                         _______ _______ _______ _____ _____    ______ ____
ROOT
ATOM      1  C   UNL     1       1.158  -1.529   1.884  0.00  0.00    +0.150 C 
ENDROOT
BRANCH   1   2
ATOM      2  O   UNL     1       0.674  -2.420   0.882  0.00  0.00    -0.389 OA
ATOM      3  H   UNL     1       1.419  -2.835   0.405  0.00  0.00    +0.210 HD
ENDBRANCH   1   2
BRANCH   1   4
ATOM      4  C   UNL     1       0.278  -1.828   3.102  0.00  0.00    +0.146 C 
BRANCH   4   5
ATOM      5  N   UNL     1      -1.209  -1.844   2.811  0.00  0.00    -0.267 N 
ATOM      6  C   UNL     1      -1.948  -1.160   1.836  0.00  0.00    +0.217 C 
ATOM      7  O   UNL     1      -3.175  -1.374   1.723  0.00  0.00    -0.276 OA
ATOM      8  C   UNL     1      -1.366  -0.072   0.953  0.00  0.00    +0.109 C 
BRANCH   5   9
ATOM      9  C   UNL     1      -2.006  -2.563   3.783  0.00  0.00    +0.064 A 
ATOM     10  C   UNL     1      -2.781  -1.829   4.719  0.00  0.00    +0.049 A 
ATOM     11  I   UNL     1      -2.356   0.288   4.992  0.00  0.00    -0.041 I 
ATOM     12  C   UNL     1      -3.701  -2.484   5.577  0.00  0.00    +0.065 A 
ATOM     13  C   UNL     1      -3.702  -3.910   5.622  0.00  0.00    +0.040 A 
ATOM     14  I   UNL     1      -5.008  -4.912   7.038  0.00  0.00    -0.042 I 
ATOM     15  C   UNL     1      -2.869  -4.670   4.755  0.00  0.00    +0.065 A 
ATOM     16  C   UNL     1      -2.104  -3.977   3.779  0.00  0.00    +0.049 A 
ATOM     17  I   UNL     1      -1.315  -5.080   2.093  0.00  0.00    -0.041 I 
BRANCH  15  18
ATOM     18  C   UNL     1      -2.576  -6.131   4.972  0.00  0.00    +0.246 C 
ATOM     19  N   UNL     1      -3.623  -7.010   5.141  0.00  0.00    -0.309 N 
ATOM     20  H   UNL     1      -4.578  -6.671   5.168  0.00  0.00    +0.149 HD
ATOM     21  O   UNL     1      -1.407  -6.500   5.033  0.00  0.00    -0.270 OA
BRANCH  19  22
ATOM     22  C   UNL     1      -3.415  -8.416   5.490  0.00  0.00    +0.138 C 
BRANCH  22  23
ATOM     23  C   UNL     1      -4.686  -9.052   6.075  0.00  0.00    +0.157 C 
BRANCH  23  24
ATOM     24  O   UNL     1      -5.778  -8.856   5.159  0.00  0.00    -0.388 OA
ATOM     25  H   UNL     1      -5.653  -9.475   4.417  0.00  0.00    +0.210 HD
ENDBRANCH  23  24
BRANCH  23  26
ATOM     26  C   UNL     1      -4.500 -10.547   6.375  0.00  0.00    +0.188 C 
BRANCH  26  27
ATOM     27  O   UNL     1      -5.698 -11.138   6.868  0.00  0.00    -0.392 OA
ATOM     28  H   UNL     1      -6.143 -10.494   7.448  0.00  0.00    +0.210 HD
ENDBRANCH  26  27
ENDBRANCH  23  26
ENDBRANCH  22  23
ENDBRANCH  19  22
ENDBRANCH  15  18
BRANCH  12  29
ATOM     29  C   UNL     1      -4.584  -1.675   6.467  0.00  0.00    +0.246 C 
ATOM     30  N   UNL     1      -5.354  -0.682   5.901  0.00  0.00    -0.309 N 
ATOM     31  H   UNL     1      -5.244  -0.423   4.921  0.00  0.00    +0.149 HD
ATOM     32  O   UNL     1      -4.591  -1.890   7.687  0.00  0.00    -0.270 OA
BRANCH  30  33
ATOM     33  C   UNL     1      -6.295   0.105   6.690  0.00  0.00    +0.138 C 
BRANCH  33  34
ATOM     34  C   UNL     1      -6.200   1.621   6.443  0.00  0.00    +0.157 C 
BRANCH  34  35
ATOM     35  O   UNL     1      -6.450   1.898   5.058  0.00  0.00    -0.388 OA
ATOM     36  H   UNL     1      -7.414   1.892   4.920  0.00  0.00    +0.210 HD
ENDBRANCH  34  35
BRANCH  34  37
ATOM     37  C   UNL     1      -7.202   2.370   7.341  0.00  0.00    +0.188 C 
BRANCH  37  38
ATOM     38  O   UNL     1      -7.170   3.777   7.118  0.00  0.00    -0.392 OA
ATOM     39  H   UNL     1      -6.239   4.056   7.073  0.00  0.00    +0.210 HD
ENDBRANCH  37  38
ENDBRANCH  34  37
ENDBRANCH  33  34
ENDBRANCH  30  33
ENDBRANCH  12  29
ENDBRANCH   5   9
ENDBRANCH   4   5
ENDBRANCH   1   4
BRANCH   1  40
ATOM     40  C   UNL     1       2.690  -1.587   2.025  0.00  0.00    +0.146 C 
BRANCH  40  43
ATOM     41  C   UNL     1       4.015  -0.254  -1.424  0.00  0.00    +0.109 C 
ATOM     42  C   UNL     1       3.189  -1.048  -0.424  0.00  0.00    +0.217 C 
ATOM     43  N   UNL     1       3.400  -0.802   0.942  0.00  0.00    -0.267 N 
ATOM     44  O   UNL     1       2.401  -1.899  -0.831  0.00  0.00    -0.276 OA
BRANCH  43  45
ATOM     45  C   UNL     1       4.556  -0.073   1.366  0.00  0.00    +0.064 A 
ATOM     46  C   UNL     1       5.811  -0.729   1.484  0.00  0.00    +0.049 A 
ATOM     47  I   UNL     1       5.969  -2.777   0.752  0.00  0.00    -0.041 I 
ATOM     48  C   UNL     1       6.934  -0.036   1.989  0.00  0.00    +0.065 A 
ATOM     49  C   UNL     1       6.781   1.339   2.351  0.00  0.00    +0.040 A 
ATOM     50  I   UNL     1       8.345   2.318   3.497  0.00  0.00    -0.042 I 
ATOM     51  C   UNL     1       5.561   2.037   2.133  0.00  0.00    +0.065 A 
ATOM     52  C   UNL     1       4.447   1.314   1.651  0.00  0.00    +0.049 A 
ATOM     53  I   UNL     1       2.559   2.304   1.245  0.00  0.00    -0.041 I 
BRANCH  48  54
ATOM     54  C   UNL     1       8.282  -0.680   2.075  0.00  0.00    +0.246 C 
ATOM     55  N   UNL     1       8.374  -1.944   2.631  0.00  0.00    -0.309 N 
ATOM     56  H   UNL     1       7.551  -2.534   2.591  0.00  0.00    +0.149 HD
ATOM     57  O   UNL     1       9.259  -0.090   1.625  0.00  0.00    -0.270 OA
BRANCH  55  58
ATOM     58  C   UNL     1       9.655  -2.646   2.629  0.00  0.00    +0.138 C 
BRANCH  58  59
ATOM     59  C   UNL     1       9.504  -4.143   2.930  0.00  0.00    +0.157 C 
BRANCH  59  60
ATOM     60  O   UNL     1       8.774  -4.769   1.869  0.00  0.00    -0.388 OA
ATOM     61  H   UNL     1       9.399  -4.986   1.152  0.00  0.00    +0.210 HD
ENDBRANCH  59  60
BRANCH  59  62
ATOM     62  C   UNL     1      10.881  -4.812   3.097  0.00  0.00    +0.188 C 
BRANCH  62  63
ATOM     63  O   UNL     1      10.754  -6.213   3.325  0.00  0.00    -0.392 OA
ATOM     64  H   UNL     1      10.033  -6.356   3.964  0.00  0.00    +0.210 HD
ENDBRANCH  62  63
ENDBRANCH  59  62
ENDBRANCH  58  59
ENDBRANCH  55  58
ENDBRANCH  48  54
BRANCH  51  65
ATOM     65  C   UNL     1       5.403   3.484   2.486  0.00  0.00    +0.246 C 
ATOM     66  N   UNL     1       6.289   4.380   1.924  0.00  0.00    -0.309 N 
ATOM     67  H   UNL     1       7.046   4.075   1.321  0.00  0.00    +0.149 HD
ATOM     68  O   UNL     1       4.509   3.831   3.251  0.00  0.00    -0.270 OA
BRANCH  66  69
ATOM     69  C   UNL     1       6.193   5.815   2.185  0.00  0.00    +0.138 C 
BRANCH  69  70
ATOM     70  C   UNL     1       7.523   6.533   1.919  0.00  0.00    +0.157 C 
BRANCH  70  71
ATOM     71  O   UNL     1       7.944   6.251   0.576  0.00  0.00    -0.388 OA
ATOM     72  H   UNL     1       7.467   6.859  -0.018  0.00  0.00    +0.210 HD
ENDBRANCH  70  71
BRANCH  70  73
ATOM     73  C   UNL     1       7.402   8.051   2.144  0.00  0.00    +0.188 C 
BRANCH  73  74
ATOM     74  O   UNL     1       8.629   8.719   1.861  0.00  0.00    -0.392 OA
ATOM     75  H   UNL     1       9.356   8.198   2.244  0.00  0.00    +0.210 HD
ENDBRANCH  73  74
ENDBRANCH  70  73
ENDBRANCH  69  70
ENDBRANCH  66  69
ENDBRANCH  51  65
ENDBRANCH  43  45
ENDBRANCH  40  43
ENDBRANCH   1  40
TORSDOF 31
