REMARK  Name = 
REMARK  1 active torsions:
REMARK  status: ('A' for Active; 'I' for Inactive)
REMARK    1  A    between atoms: O_1  and  BI_2
REMARK                            x       y       z     vdW  Elec       q    Type
REMARK                         _______ _______ _______ _____ _____    ______ ____
ROOT
ATOM      1 BI   UNL     1       2.825   0.066  -0.788  0.00  0.00    +0.000 Bi
ATOM      2  O   UNL     1       3.896   1.457   0.330  0.00  0.00    +0.000 OA
ATOM      3  C   UNL     1       5.191   1.334   0.685  0.00  0.00    +0.000 A 
ATOM      4  C   UNL     1       5.869   0.083   0.796  0.00  0.00    +0.000 A 
ATOM      5  C   UNL     1       7.238   0.100   1.150  0.00  0.00    +0.000 A 
ATOM      6  C   UNL     1       7.912   1.299   1.381  0.00  0.00    +0.000 A 
ATOM      7  C   UNL     1       7.236   2.509   1.286  0.00  0.00    +0.000 A 
ATOM      8  C   UNL     1       5.218  -1.253   0.593  0.00  0.00    +0.000 C 
ATOM      9  O   UNL     1       5.840  -2.265   0.881  0.00  0.00    +0.000 OA
ATOM     10  C   UNL     1       5.883   2.525   0.949  0.00  0.00    +0.000 A 
ATOM     11  O   UNL     1       3.967  -1.414   0.115  0.00  0.00    +0.000 OA
ENDROOT
BRANCH   1  12
ATOM     12  O   UNL     1       1.343  -0.120   0.712  0.00  0.00    +0.000 OA
ATOM     13  H   UNL     1       0.594  -0.562   0.236  0.00  0.00    +0.000 HD
ENDBRANCH   1  12
TORSDOF 1
