REMARK  Name = 
REMARK  16 active torsions:
REMARK  status: ('A' for Active; 'I' for Inactive)
REMARK    1  A    between atoms: C_1  and  C_2
REMARK    2  A    between atoms: C_2  and  C_3
REMARK    3  A    between atoms: C_3  and  C_4
REMARK    4  A    between atoms: C_4  and  C_5
REMARK    5  A    between atoms: C_5  and  N_6
REMARK    6  A    between atoms: C_7  and  C_9
REMARK    7  A    between atoms: C_9  and  C_11
REMARK    8  A    between atoms: C_9  and  N_37
REMARK    9  A    between atoms: C_11  and  C_12
REMARK   10  A    between atoms: C_15  and  N_16
REMARK   11  A    between atoms: N_16  and  C_22
REMARK   12  A    between atoms: C_17  and  C_19
REMARK   13  A    between atoms: C_19  and  O_20
REMARK   14  A    between atoms: C_27  and  C_28
REMARK   15  A    between atoms: C_28  and  O_29
REMARK   16  A    between atoms: C_38  and  C_39
REMARK                            x       y       z     vdW  Elec       q    Type
REMARK                         _______ _______ _______ _____ _____    ______ ____
ROOT
ATOM      1  C   UNL     1       8.899   0.756  -2.281  0.00  0.00    -0.037 A 
ATOM      2  C   UNL     1       9.250  -0.585  -2.605  0.00  0.00    -0.013 A 
ATOM      3  C   UNL     1       9.907  -0.917  -3.810  0.00  0.00    +0.009 A 
ATOM      4  C   UNL     1      10.096  -2.233  -4.228  0.00  0.00    +0.001 A 
ATOM      5  C   UNL     1       9.654  -3.263  -3.419  0.00  0.00    +0.001 A 
ATOM      6  C   UNL     1       9.088  -2.983  -2.169  0.00  0.00    +0.010 A 
ATOM      7  C   UNL     1       8.882  -1.654  -1.708  0.00  0.00    +0.004 A 
ATOM      8  C   UNL     1       8.235  -1.345  -0.468  0.00  0.00    +0.050 A 
ATOM      9  C   UNL     1       7.858  -0.020  -0.215  0.00  0.00    +0.025 A 
ATOM     10  C   UNL     1       8.188   1.009  -1.099  0.00  0.00    +0.006 A 
ENDROOT
BRANCH   8  11
ATOM     11  N   UNL     1       7.959  -2.310   0.567  0.00  0.00    -0.230 N 
ATOM     12  C   UNL     1       8.899  -3.212   1.087  0.00  0.00    +0.332 C 
ATOM     13  O   UNL     1       8.633  -4.372   1.402  0.00  0.00    -0.262 OA
BRANCH  11  14
ATOM     14  C   UNL     1       6.596  -2.479   0.969  0.00  0.00    +0.056 A 
ATOM     15  C   UNL     1       6.140  -2.225   2.287  0.00  0.00    +0.081 A 
ATOM     16  C   UNL     1       4.790  -2.465   2.614  0.00  0.00    +0.017 A 
ATOM     17  C   UNL     1       3.906  -2.966   1.660  0.00  0.00    +0.001 A 
ATOM     18  C   UNL     1       4.363  -3.259   0.379  0.00  0.00    +0.002 A 
ATOM     19  C   UNL     1       5.693  -3.009   0.032  0.00  0.00    +0.025 A 
BRANCH  15  20
ATOM     20  C   UNL     1       7.041  -1.710   3.361  0.00  0.00    +0.339 C 
ATOM     21  O   UNL     1       8.215  -2.009   3.479  0.00  0.00    -0.245 OA
BRANCH  20  22
ATOM     22  O   UNL     1       6.445  -0.840   4.210  0.00  0.00    -0.477 OA
ATOM     23  H   UNL     1       5.550  -0.541   3.968  0.00  0.00    +0.295 HD
ENDBRANCH  20  22
ENDBRANCH  15  20
ENDBRANCH  11  14
BRANCH  12  24
ATOM     24  C   UNL     1      10.282  -2.606   1.468  0.00  0.00    +0.393 C 
ATOM     25  O   UNL     1      10.713  -1.520   1.133  0.00  0.00    -0.240 OA
BRANCH  24  26
ATOM     26  O   UNL     1      10.949  -3.392   2.334  0.00  0.00    -0.474 OA
ATOM     27  H   UNL     1      11.663  -2.830   2.692  0.00  0.00    +0.296 HD
ENDBRANCH  24  26
ENDBRANCH  12  24
ENDBRANCH   8  11
BRANCH   1  28
ATOM     28  C   UNL     1       9.117   1.930  -3.239  0.00  0.00    +0.067 C 
BRANCH  28  29
ATOM     29  C   UNL     1      10.037   3.078  -2.773  0.00  0.00    +0.163 C 
BRANCH  29  30
ATOM     30  N   UNL     1      11.375   2.665  -2.322  0.00  0.00    -0.304 N 
ATOM     31  H   UNL     1      11.520   2.679  -1.319  0.00  0.00    +0.149 HD
ATOM     32  C   UNL     1      12.286   1.971  -3.074  0.00  0.00    +0.211 C 
ATOM     33  O   UNL     1      12.127   1.724  -4.267  0.00  0.00    -0.276 OA
ATOM     34  C   UNL     1      13.536   1.570  -2.340  0.00  0.00    +0.109 C 
ENDBRANCH  29  30
BRANCH  29  37
ATOM     35  N   UNL     1      10.741   3.858  -5.020  0.00  0.00    -0.314 N 
ATOM     36  H   UNL     1      11.350   3.036  -4.989  0.00  0.00    +0.149 HD
ATOM     37  C   UNL     1      10.051   4.180  -3.875  0.00  0.00    +0.234 C 
ATOM     38  O   UNL     1       9.365   5.196  -3.768  0.00  0.00    -0.274 OA
BRANCH  35  39
ATOM     39  C   UNL     1      10.780   4.672  -6.217  0.00  0.00    +0.104 C 
BRANCH  39  40
ATOM     40  C   UNL     1      10.827   3.798  -7.474  0.00  0.00    +0.019 C 
BRANCH  40  41
ATOM     41  C   UNL     1       9.571   2.931  -7.617  0.00  0.00    +0.001 C 
BRANCH  41  43
ATOM     42  C   UNL     1       8.376   1.169  -8.949  0.00  0.00    +0.004 C 
ATOM     43  C   UNL     1       9.627   2.029  -8.850  0.00  0.00    -0.003 C 
ENDBRANCH  41  43
ENDBRANCH  40  41
ENDBRANCH  39  40
ENDBRANCH  35  39
ENDBRANCH  29  37
ENDBRANCH  28  29
ENDBRANCH   1  28
TORSDOF 14
