REMARK  Name = 
REMARK  8 active torsions:
REMARK  status: ('A' for Active; 'I' for Inactive)
REMARK    1  A    between atoms: C_1  and  C_2
REMARK    2  A    between atoms: C_4  and  C_7
REMARK    3  A    between atoms: N_9  and  C_10
REMARK    4  A    between atoms: C_10  and  C_11
REMARK    5  A    between atoms: C_11  and  C_12
REMARK    6  A    between atoms: C_15  and  S_18
REMARK    7  A    between atoms: S_18  and  N_21
REMARK    8  A    between atoms: N_24  and  N_25
REMARK                            x       y       z     vdW  Elec       q    Type
REMARK                         _______ _______ _______ _____ _____    ______ ____
ROOT
ATOM      1  C   UNL     1       7.896   6.135  -0.047  0.00  0.00    -0.046 A 
ATOM      2  C   UNL     1       9.155   5.524  -0.168  0.00  0.00    +0.005 A 
ATOM      3  C   UNL     1      10.314   6.296  -0.318  0.00  0.00    +0.029 A 
ATOM      4  C   UNL     1      10.216   7.691  -0.327  0.00  0.00    +0.109 A 
ATOM      5  C   UNL     1       8.984   8.312  -0.148  0.00  0.00    +0.029 A 
ATOM      6  C   UNL     1       7.836   7.537   0.013  0.00  0.00    +0.005 A 
ENDROOT
BRANCH   4   7
ATOM      7  S   UNL     1      11.655   8.691  -0.611  0.00  0.00    +0.076 S 
ATOM      8  O   UNL     1      11.271  10.084  -0.688  0.00  0.00    -0.150 OA
ATOM      9  O   UNL     1      12.388   8.069  -1.698  0.00  0.00    -0.150 OA
BRANCH   7  10
ATOM     10  N   UNL     1      12.604   8.480   0.733  0.00  0.00    -0.168 N 
ATOM     11  H   UNL     1      13.548   8.189   0.523  0.00  0.00    +0.178 HD
ATOM     12  C   UNL     1      12.131   8.634   2.026  0.00  0.00    +0.333 C 
ATOM     13  N   UNL     1      13.108   8.478   2.994  0.00  0.00    -0.231 N 
ATOM     14  H   UNL     1      14.057   8.254   2.725  0.00  0.00    +0.171 HD
ATOM     15  O   UNL     1      10.954   8.864   2.258  0.00  0.00    -0.250 OA
BRANCH  13  16
ATOM     16  N   UNL     1      12.832   8.583   4.393  0.00  0.00    -0.226 NA
ATOM     17  C   UNL     1      12.025   7.438   4.843  0.00  0.00    +0.105 C 
ATOM     18  C   UNL     1      12.004   7.268   6.361  0.00  0.00    +0.017 C 
ATOM     19  C   UNL     1      10.877   8.024   7.055  0.00  0.00    +0.001 C 
ATOM     20  C   UNL     1      10.632   9.444   6.563  0.00  0.00    +0.001 C 
ATOM     21  C   UNL     1      11.903  10.190   6.174  0.00  0.00    +0.017 C 
ATOM     22  C   UNL     1      12.319   9.924   4.725  0.00  0.00    +0.105 C 
ENDBRANCH  13  16
ENDBRANCH   7  10
ENDBRANCH   4   7
BRANCH   1  23
ATOM     23  C   UNL     1       6.642   5.288   0.050  0.00  0.00    +0.054 C 
BRANCH  23  24
ATOM     24  C   UNL     1       5.423   5.907  -0.650  0.00  0.00    +0.109 C 
BRANCH  24  26
ATOM     25  C   UNL     1       3.355   5.216   0.506  0.00  0.00    +0.266 C 
ATOM     26  N   UNL     1       4.236   5.090  -0.548  0.00  0.00    -0.310 N 
ATOM     27  H   UNL     1       3.978   4.456  -1.298  0.00  0.00    +0.149 HD
ATOM     28  O   UNL     1       3.550   5.965   1.460  0.00  0.00    -0.268 OA
BRANCH  25  33
ATOM     29  C   UNL     1      -1.071   2.834   1.203  0.00  0.00    +0.089 C 
ATOM     30  C   UNL     1       0.219   3.402   0.779  0.00  0.00    +0.135 A 
ATOM     31  O   UNL     1       0.718   2.963  -0.407  0.00  0.00    -0.359 OA
ATOM     32  N   UNL     1       1.933   3.578  -0.655  0.00  0.00    -0.073 NA
ATOM     33  C   UNL     1       2.155   4.389   0.396  0.00  0.00    +0.168 A 
ATOM     34  C   UNL     1       1.087   4.312   1.325  0.00  0.00    +0.080 A 
ENDBRANCH  25  33
ENDBRANCH  24  26
ENDBRANCH  23  24
ENDBRANCH   1  23
TORSDOF 7
