REMARK  Name = 
REMARK  7 active torsions:
REMARK  status: ('A' for Active; 'I' for Inactive)
REMARK    1  A    between atoms: C_1  and  O_2
REMARK    2  A    between atoms: O_2  and  C_3
REMARK    3  A    between atoms: C_10  and  C_11
REMARK    4  A    between atoms: C_10  and  C_21
REMARK    5  A    between atoms: C_15  and  O_17
REMARK    6  A    between atoms: C_18  and  O_20
REMARK    7  A    between atoms: C_21  and  O_22
REMARK                            x       y       z     vdW  Elec       q    Type
REMARK                         _______ _______ _______ _____ _____    ______ ____
ROOT
ATOM      1  C   UNL     1       3.032   1.216   0.230  0.00  0.00    +0.281 C 
ATOM      2  C   UNL     1       3.283   1.179   1.756  0.00  0.00    +0.201 C 
ATOM      3  C   UNL     1       2.147   1.812   2.555  0.00  0.00    +0.179 C 
ATOM      4  C   UNL     1       1.741   3.158   1.967  0.00  0.00    +0.184 C 
ATOM      5  C   UNL     1       1.322   2.926   0.522  0.00  0.00    +0.178 C 
ATOM      6  C   UNL     1       0.992   4.287  -0.077  0.00  0.00    +0.198 C 
ATOM      7  O   UNL     1       2.113   5.176   0.026  0.00  0.00    -0.337 OA
ATOM      8  C   UNL     1       2.622   5.291   1.366  0.00  0.00    +0.268 C 
ATOM      9  C   UNL     1       3.995   5.956   1.229  0.00  0.00    +0.087 C 
ATOM     10  O   UNL     1       2.866   4.045   2.008  0.00  0.00    -0.331 OA
ATOM     11  O   UNL     1       2.408   2.404  -0.244  0.00  0.00    -0.341 OA
ENDROOT
BRANCH   1  13
ATOM     12  C   UNL     1       4.274   1.064  -1.800  0.00  0.00    +0.197 C 
ATOM     13  O   UNL     1       4.328   1.122  -0.385  0.00  0.00    -0.352 OA
ENDBRANCH   1  13
BRANCH   2  14
ATOM     14  O   UNL     1       3.441  -0.181   2.213  0.00  0.00    -0.384 OA
ATOM     15  H   UNL     1       3.479  -0.126   3.188  0.00  0.00    +0.210 HD
ENDBRANCH   2  14
BRANCH   3  16
ATOM     16  O   UNL     1       2.567   1.957   3.921  0.00  0.00    -0.386 OA
ATOM     17  H   UNL     1       3.179   2.720   3.942  0.00  0.00    +0.210 HD
ENDBRANCH   3  16
BRANCH   8  18
ATOM     18  C   UNL     1       1.720   6.299   2.146  0.00  0.00    +0.365 C 
ATOM     19  O   UNL     1       1.472   6.253   3.340  0.00  0.00    -0.245 OA
BRANCH  18  20
ATOM     20  O   UNL     1       1.182   7.242   1.321  0.00  0.00    -0.477 OA
ATOM     21  H   UNL     1       1.449   7.064   0.390  0.00  0.00    +0.295 HD
ENDBRANCH  18  20
ENDBRANCH   8  18
TORSDOF 5
