REMARK  Name = 
REMARK  6 active torsions:
REMARK  status: ('A' for Active; 'I' for Inactive)
REMARK    1  A    between atoms: C_1  and  C_2
REMARK    2  A    between atoms: C_2  and  C_3
REMARK    3  A    between atoms: C_2  and  C_4
REMARK    4  A    between atoms: C_2  and  C_5
REMARK    5  A    between atoms: C_8  and  S_9
REMARK    6  A    between atoms: S_9  and  C_10
REMARK                            x       y       z     vdW  Elec       q    Type
REMARK                         _______ _______ _______ _____ _____    ______ ____
ROOT
ATOM      1  C   UNL     1       3.749  -2.847   6.015  0.00  0.00    +0.025 A 
ATOM      2  C   UNL     1       4.005  -2.199   7.275  0.00  0.00    +0.054 A 
ATOM      3  C   UNL     1       5.123  -1.435   7.677  0.00  0.00    +0.130 A 
ATOM      4  N   UNL     1       5.258  -0.881   8.894  0.00  0.00    -0.199 NA
ATOM      5  C   UNL     1       4.263  -1.066   9.753  0.00  0.00    +0.215 A 
ATOM      6  N   UNL     1       3.172  -1.780   9.506  0.00  0.00    -0.215 NA
ATOM      7  N   UNL     1       4.380  -0.500  11.005  0.00  0.00    -0.327 N 
ATOM      8  H   UNL     1       3.832  -1.020  11.676  0.00  0.00    +0.145 HD
ATOM      9  H   UNL     1       5.348  -0.319  11.223  0.00  0.00    +0.145 HD
ATOM     10  N   UNL     1       6.162  -1.100   6.806  0.00  0.00    -0.342 N 
ATOM     11  H   UNL     1       6.884  -0.621   7.341  0.00  0.00    +0.144 HD
ATOM     12  H   UNL     1       6.506  -1.902   6.290  0.00  0.00    +0.144 HD
ATOM     13  C   UNL     1       3.040  -2.312   8.288  0.00  0.00    +0.079 A 
ATOM     14  C   UNL     1       1.865  -3.009   8.047  0.00  0.00    +0.028 A 
ATOM     15  C   UNL     1       1.596  -3.604   6.819  0.00  0.00    +0.003 A 
ATOM     16  C   UNL     1       2.542  -3.533   5.810  0.00  0.00    +0.016 A 
ENDROOT
BRANCH   1  17
ATOM     17  S   UNL     1       4.963  -2.976   4.692  0.00  0.00    -0.089 S 
BRANCH  17  21
ATOM     18  C   UNL     1       3.060  -0.677   1.161  0.00  0.00    -0.042 A 
ATOM     19  C   UNL     1       2.849  -2.058   1.332  0.00  0.00    +0.005 A 
ATOM     20  C   UNL     1       3.405  -2.754   2.413  0.00  0.00    +0.015 A 
ATOM     21  C   UNL     1       4.165  -2.083   3.372  0.00  0.00    +0.013 A 
ATOM     22  C   UNL     1       4.359  -0.711   3.238  0.00  0.00    +0.015 A 
ATOM     23  C   UNL     1       3.814  -0.018   2.149  0.00  0.00    +0.005 A 
BRANCH  18  25
ATOM     24  C   UNL     1       2.895   1.541  -0.147  0.00  0.00    +0.015 C 
ATOM     25  C   UNL     1       2.500   0.048  -0.076  0.00  0.00    -0.013 C 
ATOM     26  C   UNL     1       3.033  -0.619  -1.364  0.00  0.00    +0.015 C 
ATOM     27  C   UNL     1       0.958  -0.023  -0.079  0.00  0.00    +0.015 C 
ENDBRANCH  18  25
ENDBRANCH  17  21
ENDBRANCH   1  17
TORSDOF 3
