REMARK  Name = 
REMARK  22 active torsions:
REMARK  status: ('A' for Active; 'I' for Inactive)
REMARK    1  A    between atoms: C_1  and  C_2
REMARK    2  A    between atoms: C_2  and  C_3
REMARK    3  A    between atoms: C_2  and  O_5
REMARK    4  A    between atoms: C_2  and  C_10
REMARK    5  A    between atoms: C_3  and  O_4
REMARK    6  A    between atoms: O_5  and  P_6
REMARK    7  A    between atoms: P_6  and  O_7
REMARK    8  A    between atoms: P_6  and  O_8
REMARK    9  A    between atoms: C_10  and  O_12
REMARK   10  A    between atoms: C_10  and  C_13
REMARK   11  A    between atoms: C_13  and  O_14
REMARK   12  A    between atoms: O_14  and  P_15
REMARK   13  A    between atoms: P_15  and  O_16
REMARK   14  A    between atoms: P_15  and  O_18
REMARK   15  A    between atoms: O_18  and  P_19
REMARK   16  A    between atoms: P_19  and  O_20
REMARK   17  A    between atoms: P_19  and  O_22
REMARK   18  A    between atoms: O_22  and  C_23
REMARK   19  A    between atoms: C_23  and  C_24
REMARK   20  A    between atoms: C_27  and  N_35
REMARK   21  A    between atoms: C_29  and  O_31
REMARK   22  A    between atoms: C_32  and  O_34
REMARK                            x       y       z     vdW  Elec       q    Type
REMARK                         _______ _______ _______ _____ _____    ______ ____
ROOT
ATOM      1  P   UNL     1      15.081  -4.330   4.129  0.00  0.00    +0.483 P 
ATOM      2  O   UNL     1      15.005  -3.214   3.090  0.00  0.00    -0.227 OA
ENDROOT
BRANCH   1   3
ATOM      3  O   UNL     1      15.085  -3.620   5.599  0.00  0.00    -0.302 OA
ATOM      4  H   UNL     1      15.054  -4.249   6.331  0.00  0.00    +0.222 HD
ENDBRANCH   1   3
BRANCH   1   5
ATOM      5  O   UNL     1      13.354  -4.419   4.189  0.00  0.00    -0.284 OA
BRANCH   5   6
ATOM      6  C   UNL     1      12.588  -4.215   2.983  0.00  0.00    +0.206 C 
BRANCH   6   7
ATOM      7  C   UNL     1      11.054  -4.330   3.219  0.00  0.00    +0.178 C 
ATOM      8  C   UNL     1      10.487  -3.299   4.201  0.00  0.00    +0.178 C 
ATOM      9  C   UNL     1      10.047  -2.117   3.331  0.00  0.00    +0.195 C 
ATOM     10  C   UNL     1      10.154  -2.660   1.898  0.00  0.00    +0.255 C 
ATOM     11  O   UNL     1      10.262  -4.097   2.007  0.00  0.00    -0.346 OA
BRANCH  10  12
ATOM     12  N   UNL     1       9.080  -2.202   1.029  0.00  0.00    -0.270 N 
ATOM     13  C   UNL     1       9.304  -0.967   0.392  0.00  0.00    +0.352 A 
ATOM     14  O   UNL     1      10.281  -0.281   0.694  0.00  0.00    -0.244 OA
ATOM     15  N   UNL     1       8.411  -0.537  -0.553  0.00  0.00    -0.178 NA
ATOM     16  C   UNL     1       7.249  -1.104  -0.630  0.00  0.00    +0.123 A 
ATOM     17  N   UNL     1       6.418  -0.660  -1.621  0.00  0.00    -0.343 N 
ATOM     18  H   UNL     1       6.800   0.149  -2.103  0.00  0.00    +0.144 HD
ATOM     19  H   UNL     1       5.437  -0.548  -1.393  0.00  0.00    +0.144 HD
ATOM     20  C   UNL     1       6.825  -2.174   0.301  0.00  0.00    +0.061 A 
ATOM     21  C   UNL     1       7.798  -2.719   1.041  0.00  0.00    +0.096 A 
ENDBRANCH  10  12
BRANCH   8  22
ATOM     22  O   UNL     1       9.322  -3.871   4.832  0.00  0.00    -0.386 OA
ATOM     23  H   UNL     1       8.820  -4.354   4.149  0.00  0.00    +0.210 HD
ENDBRANCH   8  22
BRANCH   9  24
ATOM     24  O   UNL     1      10.878  -0.974   3.519  0.00  0.00    -0.385 OA
ATOM     25  H   UNL     1      10.707  -0.357   2.775  0.00  0.00    +0.210 HD
ENDBRANCH   9  24
ENDBRANCH   6   7
ENDBRANCH   5   6
ENDBRANCH   1   5
BRANCH   1  26
ATOM     26  O   UNL     1      16.807  -4.241   4.069  0.00  0.00    -0.186 OA
BRANCH  26  27
ATOM     27  P   UNL     1      17.778  -3.647   2.965  0.00  0.00    +0.483 P 
ATOM     28  O   UNL     1      17.764  -2.173   2.724  0.00  0.00    -0.227 OA
BRANCH  27  29
ATOM     29  O   UNL     1      17.473  -4.471   1.622  0.00  0.00    -0.302 OA
ATOM     30  H   UNL     1      17.316  -3.822   0.905  0.00  0.00    +0.222 HD
ENDBRANCH  27  29
BRANCH  27  31
ATOM     31  O   UNL     1      19.282  -4.163   3.374  0.00  0.00    -0.284 OA
BRANCH  31  32
ATOM     32  C   UNL     1      19.743  -3.569   4.586  0.00  0.00    +0.206 C 
BRANCH  32  33
ATOM     33  C   UNL     1      21.244  -3.704   5.003  0.00  0.00    +0.175 C 
BRANCH  33  34
ATOM     34  O   UNL     1      21.639  -5.075   5.186  0.00  0.00    -0.387 OA
ATOM     35  H   UNL     1      21.328  -5.335   6.083  0.00  0.00    +0.210 HD
ENDBRANCH  33  34
BRANCH  33  37
ATOM     36  C   UNL     1      21.391  -1.381   6.139  0.00  0.00    +0.047 C 
ATOM     37  C   UNL     1      21.492  -2.902   6.345  0.00  0.00    +0.129 C 
BRANCH  37  38
ATOM     38  O   UNL     1      22.747  -3.181   6.977  0.00  0.00    -0.275 OA
BRANCH  38  39
ATOM     39  P   UNL     1      24.152  -3.171   6.234  0.00  0.00    +0.473 P 
ATOM     40  O   UNL     1      24.279  -2.326   5.016  0.00  0.00    -0.228 OA
BRANCH  39  41
ATOM     41  O   UNL     1      25.147  -2.718   7.402  0.00  0.00    -0.303 OA
ATOM     42  H   UNL     1      25.417  -1.788   7.298  0.00  0.00    +0.222 HD
ENDBRANCH  39  41
BRANCH  39  43
ATOM     43  O   UNL     1      24.532  -4.702   6.040  0.00  0.00    -0.303 OA
ATOM     44  H   UNL     1      24.005  -5.110   5.326  0.00  0.00    +0.222 HD
ENDBRANCH  39  43
ENDBRANCH  38  39
ENDBRANCH  37  38
BRANCH  37  45
ATOM     45  C   UNL     1      20.481  -3.330   7.444  0.00  0.00    +0.193 C 
BRANCH  45  46
ATOM     46  O   UNL     1      20.520  -4.751   7.632  0.00  0.00    -0.392 OA
ATOM     47  H   UNL     1      20.811  -4.901   8.553  0.00  0.00    +0.210 HD
ENDBRANCH  45  46
ENDBRANCH  37  45
ENDBRANCH  33  37
ENDBRANCH  32  33
ENDBRANCH  31  32
ENDBRANCH  27  31
ENDBRANCH  26  27
ENDBRANCH   1  26
TORSDOF 21
