REMARK  Name = 
REMARK  11 active torsions:
REMARK  status: ('A' for Active; 'I' for Inactive)
REMARK    1  A    between atoms: C_1  and  C_2
REMARK    2  A    between atoms: C_5  and  O_7
REMARK    3  A    between atoms: C_19  and  C_21
REMARK    4  A    between atoms: C_22  and  C_23
REMARK    5  A    between atoms: C_23  and  C_24
REMARK    6  A    between atoms: C_24  and  C_25
REMARK    7  A    between atoms: C_25  and  C_26
REMARK    8  A    between atoms: C_26  and  C_27
REMARK    9  A    between atoms: C_27  and  C_28
REMARK   10  A    between atoms: C_28  and  C_29
REMARK   11  A    between atoms: C_29  and  O_30
REMARK                            x       y       z     vdW  Elec       q    Type
REMARK                         _______ _______ _______ _____ _____    ______ ____
ROOT
ATOM      1  C   UNL     1       0.000   0.000  -0.000  0.00  0.00    +0.000 C 
ATOM      2  C   UNL     1      -0.000  -0.000  -0.000  0.00  0.00    +0.000 C 
ATOM      3  O   UNL     1      -0.000  -0.000   0.000  0.00  0.00    +0.000 OA
ATOM      4  C   UNL     1      -0.000  -0.000  -0.000  0.00  0.00    +0.000 C 
ATOM      5  O   UNL     1      -0.000  -0.000  -0.000  0.00  0.00    +0.000 OA
ATOM      6  C   UNL     1      -0.000  -0.000   0.000  0.00  0.00    +0.000 C 
ATOM      7  N   UNL     1      -0.000  -0.000  -0.000  0.00  0.00    +0.000 N 
ATOM      8  H   UNL     1       0.000   0.000   0.000  0.00  0.00    +0.000 HD
ATOM      9  C   UNL     1      -0.000  -0.000  -0.000  0.00  0.00    +0.000 C 
ATOM     10  C   UNL     1      -0.000  -0.000  -0.000  0.00  0.00    +0.000 C 
ATOM     11  N   UNL     1      -0.000  -0.000  -0.000  0.00  0.00    +0.000 NA
ATOM     12  C   UNL     1      -0.000  -0.000  -0.000  0.00  0.00    +0.000 C 
ATOM     13  C   UNL     1      -0.000  -0.000  -0.000  0.00  0.00    +0.000 A 
ATOM     14  C   UNL     1      -0.000  -0.000  -0.000  0.00  0.00    +0.000 A 
ATOM     15  O   UNL     1      -0.000  -0.000   0.000  0.00  0.00    +0.000 OA
ATOM     16 FE   UNL     1      -0.000  -0.000  -0.000  0.00  0.00    +0.000 Fe
ATOM     17  O   UNL     1      -0.000  -0.000   0.000  0.00  0.00    +0.000 OA
ATOM     18  N   UNL     1      -0.000  -0.000   0.000  0.00  0.00    +0.000 NA
ATOM     19  C   UNL     1      -0.000  -0.000  -0.000  0.00  0.00    +0.000 C 
ATOM     20  C   UNL     1      -0.000  -0.000  -0.000  0.00  0.00    +0.000 C 
ATOM     21  C   UNL     1      -0.000  -0.000  -0.000  0.00  0.00    +0.000 C 
ATOM     22  C   UNL     1      -0.000  -0.000  -0.000  0.00  0.00    +0.000 C 
ATOM     23  O   UNL     1      -0.000  -0.000  -0.000  0.00  0.00    +0.000 OA
ATOM     24  O   UNL     1      -0.000  -0.000  -0.000  0.00  0.00    +0.000 OA
ATOM     25  N   UNL     1      -0.000  -0.000   0.000  0.00  0.00    +0.000 N 
ATOM     26  C   UNL     1      -0.000  -0.000   0.000  0.00  0.00    +0.000 C 
ATOM     27  O   UNL     1      -0.000  -0.000   0.000  0.00  0.00    +0.000 OA
ATOM     28  C   UNL     1      -0.000  -0.000   0.000  0.00  0.00    +0.000 C 
ATOM     29  C   UNL     1      -0.000  -0.000  -0.000  0.00  0.00    +0.000 C 
ATOM     30  C   UNL     1      -0.000  -0.000  -0.000  0.00  0.00    +0.000 C 
ATOM     31  C   UNL     1      -0.000  -0.000  -0.000  0.00  0.00    +0.000 C 
ATOM     32  N   UNL     1      -0.000  -0.000  -0.000  0.00  0.00    +0.000 NA
ATOM     33  H   UNL     1       0.000   0.000   0.000  0.00  0.00    +0.000 HD
ATOM     34  C   UNL     1      -0.000  -0.000   0.000  0.00  0.00    +0.000 C 
ATOM     35  C   UNL     1      -0.000  -0.000   0.000  0.00  0.00    +0.000 C 
ATOM     36  C   UNL     1      -0.000  -0.000  -0.000  0.00  0.00    +0.000 A 
ATOM     37  C   UNL     1      -0.000  -0.000  -0.000  0.00  0.00    +0.000 A 
ATOM     38  C   UNL     1      -0.000  -0.000  -0.000  0.00  0.00    +0.000 A 
ATOM     39  C   UNL     1      -0.000  -0.000  -0.000  0.00  0.00    +0.000 A 
ATOM     40  O   UNL     1      -0.000  -0.000  -0.000  0.00  0.00    +0.000 OA
ATOM     41  C   UNL     1      -0.000  -0.000  -0.000  0.00  0.00    +0.000 C 
ATOM     42  O   UNL     1      -0.000  -0.000  -0.000  0.00  0.00    +0.000 OA
ATOM     43  C   UNL     1      -0.000  -0.000   0.000  0.00  0.00    +0.000 C 
ATOM     44  C   UNL     1      -0.000  -0.000   0.000  0.00  0.00    +0.000 C 
ENDROOT
BRANCH  22  45
ATOM     45  C   UNL     1      -0.000  -0.000  -0.000  0.00  0.00    +0.000 C 
ATOM     46  C   UNL     1      -0.000  -0.000  -0.000  0.00  0.00    +0.000 C 
BRANCH  46  47
ATOM     47  C   UNL     1      -0.000  -0.000  -0.000  0.00  0.00    +0.000 C 
BRANCH  47  48
ATOM     48  C   UNL     1      -0.000  -0.000  -0.000  0.00  0.00    +0.000 C 
BRANCH  48  49
ATOM     49  C   UNL     1      -0.000  -0.000  -0.000  0.00  0.00    +0.000 C 
BRANCH  49  50
ATOM     50  C   UNL     1      -0.000  -0.000  -0.000  0.00  0.00    +0.000 C 
BRANCH  50  51
ATOM     51  C   UNL     1      -0.000  -0.000  -0.000  0.00  0.00    +0.000 C 
BRANCH  51  52
ATOM     52  C   UNL     1      -0.000  -0.000  -0.000  0.00  0.00    +0.000 C 
BRANCH  52  53
ATOM     53  C   UNL     1      -0.000  -0.000  -0.000  0.00  0.00    +0.000 C 
ATOM     54  O   UNL     1      -0.000  -0.000  -0.000  0.00  0.00    +0.000 OA
BRANCH  53  55
ATOM     55  O   UNL     1      -0.000  -0.000  -0.000  0.00  0.00    +0.000 OA
ATOM     56  H   UNL     1      -0.000  -0.000  -0.000  0.00  0.00    +0.000 HD
ENDBRANCH  53  55
ENDBRANCH  52  53
ENDBRANCH  51  52
ENDBRANCH  50  51
ENDBRANCH  49  50
ENDBRANCH  48  49
ENDBRANCH  47  48
ENDBRANCH  46  47
ENDBRANCH  22  45
BRANCH  34  57
ATOM     57  O   UNL     1      -0.000  -0.000  -0.000  0.00  0.00    +0.000 OA
ATOM     58  H   UNL     1       0.000   0.000   0.000  0.00  0.00    +0.000 HD
ENDBRANCH  34  57
TORSDOF 10
