REMARK  Name = 
REMARK  5 active torsions:
REMARK  status: ('A' for Active; 'I' for Inactive)
REMARK    1  A    between atoms: C_1  and  C_2
REMARK    2  A    between atoms: C_2  and  C_3
REMARK    3  A    between atoms: C_3  and  C_4
REMARK    4  A    between atoms: C_4  and  C_5
REMARK    5  A    between atoms: C_10  and  C_11
REMARK                            x       y       z     vdW  Elec       q    Type
REMARK                         _______ _______ _______ _____ _____    ______ ____
ROOT
ATOM      1  C   UNL     1       2.905  -1.273   0.704  0.00  0.00    +0.105 C 
ATOM      2  C   UNL     1       4.313  -1.375   0.103  0.00  0.00    +0.152 C 
ATOM      3  O   UNL     1       5.322  -1.054   0.734  0.00  0.00    -0.296 OA
ATOM      4  C   UNL     1       4.391  -1.779  -1.362  0.00  0.00    +0.070 C 
ATOM      5  C   UNL     1       5.825  -1.916  -1.860  0.00  0.00    +0.017 C 
ATOM      6  C   UNL     1       3.640  -3.091  -1.498  0.00  0.00    +0.115 C 
ATOM      7  N   UNL     1       2.307  -3.028  -0.943  0.00  0.00    -0.314 N 
ATOM      8  H   UNL     1       1.679  -3.800  -1.148  0.00  0.00    +0.149 HD
ATOM      9  C   UNL     1       2.031  -2.454   0.272  0.00  0.00    +0.226 C 
ATOM     10  O   UNL     1       1.030  -2.818   0.883  0.00  0.00    -0.275 OA
ENDROOT
BRANCH   1  12
ATOM     11  C   UNL     1       2.927   1.316   0.395  0.00  0.00    +0.005 C 
ATOM     12  C   UNL     1       2.217  -0.005   0.112  0.00  0.00    +0.020 C 
ENDBRANCH   1  12
BRANCH   1  13
ATOM     13  C   UNL     1       2.931  -1.171   2.252  0.00  0.00    +0.020 C 
ATOM     14  C   UNL     1       3.492  -2.386   2.985  0.00  0.00    +0.005 C 
ENDBRANCH   1  13
TORSDOF 2
