REMARK  Name = 
REMARK  10 active torsions:
REMARK  status: ('A' for Active; 'I' for Inactive)
REMARK    1  A    between atoms: C_1  and  C_2
REMARK    2  A    between atoms: C_2  and  C_3
REMARK    3  A    between atoms: C_2  and  O_4
REMARK    4  A    between atoms: C_2  and  C_23
REMARK    5  A    between atoms: O_4  and  C_5
REMARK    6  A    between atoms: C_8  and  C_9
REMARK    7  A    between atoms: C_9  and  C_10
REMARK    8  A    between atoms: C_10  and  N_11
REMARK    9  A    between atoms: C_12  and  C_14
REMARK   10  A    between atoms: C_23  and  O_24
REMARK                            x       y       z     vdW  Elec       q    Type
REMARK                         _______ _______ _______ _____ _____    ______ ____
ROOT
ATOM      1  C   UNL     1       2.620  -2.313   0.743  0.00  0.00    +0.122 A 
ATOM      2  C   UNL     1       1.880  -2.223   1.916  0.00  0.00    +0.046 A 
ATOM      3  C   UNL     1       1.602  -3.373   2.665  0.00  0.00    +0.007 A 
ATOM      4  C   UNL     1       2.116  -4.622   2.288  0.00  0.00    -0.046 A 
ATOM      5  C   UNL     1       2.922  -4.685   1.146  0.00  0.00    +0.007 A 
ATOM      6  C   UNL     1       3.181  -3.539   0.392  0.00  0.00    +0.046 A 
ENDROOT
BRANCH   1   7
ATOM      7  O   UNL     1       2.886  -1.298  -0.124  0.00  0.00    -0.475 OA
BRANCH   7   9
ATOM      8  C   UNL     1       0.449  -0.639  -0.340  0.00  0.00    +0.067 C 
ATOM      9  C   UNL     1       1.932  -0.243  -0.389  0.00  0.00    +0.200 C 
ATOM     10  C   UNL     1       2.270   0.969   0.478  0.00  0.00    +0.067 C 
BRANCH   9  11
ATOM     11  C   UNL     1       2.202   0.173  -1.854  0.00  0.00    +0.348 C 
ATOM     12  O   UNL     1       1.583   1.041  -2.455  0.00  0.00    -0.247 OA
BRANCH  11  13
ATOM     13  O   UNL     1       3.214  -0.518  -2.438  0.00  0.00    -0.478 OA
ATOM     14  H   UNL     1       3.578  -1.160  -1.789  0.00  0.00    +0.295 HD
ENDBRANCH  11  13
ENDBRANCH   9  11
ENDBRANCH   7   9
ENDBRANCH   1   7
BRANCH   4  15
ATOM     15  C   UNL     1       1.723  -5.860   3.066  0.00  0.00    +0.054 C 
BRANCH  15  16
ATOM     16  C   UNL     1       2.803  -6.945   3.136  0.00  0.00    +0.109 C 
BRANCH  16  17
ATOM     17  N   UNL     1       2.376  -8.104   3.895  0.00  0.00    -0.311 N 
ATOM     18  H   UNL     1       2.759  -8.231   4.821  0.00  0.00    +0.149 HD
ATOM     19  C   UNL     1       1.686  -9.136   3.286  0.00  0.00    +0.244 C 
ATOM     20  O   UNL     1       1.347  -9.129   2.112  0.00  0.00    -0.270 OA
BRANCH  19  21
ATOM     21  C   UNL     1       1.404 -10.321   4.140  0.00  0.00    +0.037 A 
ATOM     22  C   UNL     1       1.360 -11.584   3.535  0.00  0.00    +0.014 A 
ATOM     23  C   UNL     1       1.110 -12.723   4.306  0.00  0.00    +0.021 A 
ATOM     24  C   UNL     1       0.892 -12.594   5.677  0.00  0.00    +0.041 A 
ATOM     25 CL   UNL     1       0.582 -13.993   6.629  0.00  0.00    -0.084 Cl
ATOM     26  C   UNL     1       0.916 -11.338   6.284  0.00  0.00    +0.021 A 
ATOM     27  C   UNL     1       1.169 -10.198   5.517  0.00  0.00    +0.014 A 
ENDBRANCH  19  21
ENDBRANCH  16  17
ENDBRANCH  15  16
ENDBRANCH   4  15
TORSDOF 8
