REMARK  Name = 
REMARK  42 active torsions:
REMARK  status: ('A' for Active; 'I' for Inactive)
REMARK    1  A    between atoms: C_1  and  O_2
REMARK    2  A    between atoms: O_2  and  C_3
REMARK    3  A    between atoms: C_5  and  C_6
REMARK    4  A    between atoms: C_6  and  C_7
REMARK    5  A    between atoms: C_11  and  O_12
REMARK    6  A    between atoms: O_12  and  C_13
REMARK    7  A    between atoms: C_14  and  O_15
REMARK    8  A    between atoms: O_15  and  C_16
REMARK    9  A    between atoms: N_21  and  C_22
REMARK   10  A    between atoms: N_21  and  C_23
REMARK   11  A    between atoms: C_23  and  C_24
REMARK   12  A    between atoms: C_24  and  C_25
REMARK   13  A    between atoms: C_25  and  O_26
REMARK   14  A    between atoms: O_26  and  C_27
REMARK   15  A    between atoms: C_27  and  C_29
REMARK   16  A    between atoms: C_29  and  C_30
REMARK   17  A    between atoms: C_30  and  C_31
REMARK   18  A    between atoms: C_32  and  C_33
REMARK   19  A    between atoms: C_33  and  C_34
REMARK   20  A    between atoms: C_34  and  C_35
REMARK   21  A    between atoms: C_35  and  O_37
REMARK   22  A    between atoms: O_37  and  C_38
REMARK   23  A    between atoms: C_38  and  C_39
REMARK   24  A    between atoms: C_39  and  C_40
REMARK   25  A    between atoms: C_40  and  N_41
REMARK   26  A    between atoms: N_41  and  C_42
REMARK   27  A    between atoms: C_47  and  O_48
REMARK   28  A    between atoms: O_48  and  C_49
REMARK   29  A    between atoms: C_50  and  O_51
REMARK   30  A    between atoms: O_51  and  C_52
REMARK   31  A    between atoms: C_55  and  C_57
REMARK   32  A    between atoms: C_57  and  C_58
REMARK   33  A    between atoms: C_60  and  O_61
REMARK   34  A    between atoms: O_61  and  C_62
REMARK   35  A    between atoms: C_63  and  O_64
REMARK   36  A    between atoms: O_64  and  C_65
REMARK   37  A    between atoms: C_66  and  O_67
REMARK   38  A    between atoms: O_67  and  C_68
REMARK   39  A    between atoms: C_71  and  O_72
REMARK   40  A    between atoms: O_72  and  C_73
REMARK   41  A    between atoms: C_74  and  O_75
REMARK   42  A    between atoms: O_75  and  C_76
REMARK                            x       y       z     vdW  Elec       q    Type
REMARK                         _______ _______ _______ _____ _____    ______ ____
ROOT
ATOM      1  C   UNL     1      -5.461  10.895   5.994  0.00  0.00    -0.030 C 
ATOM      2  C   UNL     1      -6.701  10.967   6.505  0.00  0.00    -0.030 C 
ENDROOT
BRANCH   1   3
ATOM      3  C   UNL     1      -4.729   9.639   5.590  0.00  0.00    +0.038 C 
BRANCH   3   4
ATOM      4  C   UNL     1      -5.518   8.337   5.680  0.00  0.00    +0.124 C 
BRANCH   4   5
ATOM      5  C   UNL     1      -6.705   8.358   4.751  0.00  0.00    +0.307 C 
ATOM      6  O   UNL     1      -6.705   8.785   3.603  0.00  0.00    -0.251 OA
BRANCH   5   7
ATOM      7  O   UNL     1      -7.788   7.793   5.364  0.00  0.00    -0.464 OA
BRANCH   7   8
ATOM      8  C   UNL     1      -8.991   7.800   4.588  0.00  0.00    +0.237 C 
BRANCH   8   9
ATOM      9  C   UNL     1      -8.899   6.722   3.515  0.00  0.00    +0.092 C 
BRANCH   9  10
ATOM     10  C   UNL     1     -10.126   6.732   2.626  0.00  0.00    +0.137 C 
BRANCH  10  12
ATOM     11  C   UNL     1      -8.739   5.903   0.533  0.00  0.00    +0.102 C 
ATOM     12  N   UNL     1     -10.044   5.732   1.445  0.00  0.00    +0.247 N 
ATOM     13  C   UNL     1     -11.327   5.926   0.620  0.00  0.00    +0.193 C 
ATOM     14  C   UNL     1      -9.997   4.295   2.014  0.00  0.00    +0.138 C 
ATOM     15  C   UNL     1     -10.124   3.243   0.921  0.00  0.00    +0.086 C 
ATOM     16  C   UNL     1      -9.223   3.501  -0.256  0.00  0.00    -0.030 A 
ATOM     17  C   UNL     1      -9.060   2.465  -1.196  0.00  0.00    +0.053 A 
ATOM     18  C   UNL     1      -8.221   2.597  -2.307  0.00  0.00    +0.162 A 
ATOM     19  C   UNL     1      -7.499   3.768  -2.461  0.00  0.00    +0.162 A 
ATOM     20  C   UNL     1      -7.661   4.798  -1.529  0.00  0.00    +0.058 A 
ATOM     21  C   UNL     1      -8.568   4.732  -0.453  0.00  0.00    +0.008 A 
BRANCH  19  22
ATOM     22  O   UNL     1      -6.706   3.942  -3.572  0.00  0.00    -0.491 OA
ATOM     23  C   UNL     1      -5.495   4.670  -3.410  0.00  0.00    +0.277 C 
ENDBRANCH  19  22
BRANCH  18  24
ATOM     24  O   UNL     1      -8.233   1.484  -3.112  0.00  0.00    -0.491 OA
ATOM     25  C   UNL     1      -7.393   1.465  -4.257  0.00  0.00    +0.277 C 
ENDBRANCH  18  24
BRANCH  11  26
ATOM     26  C   UNL     1      -8.711   7.363  -0.061  0.00  0.00    +0.095 C 
BRANCH  26  31
ATOM     27  C   UNL     1      -6.126   8.289  -2.690  0.00  0.00    +0.165 A 
ATOM     28  C   UNL     1      -4.910   8.162  -1.976  0.00  0.00    +0.204 A 
ATOM     29  C   UNL     1      -4.961   7.926  -0.587  0.00  0.00    +0.165 A 
ATOM     30  C   UNL     1      -6.203   7.766   0.052  0.00  0.00    +0.053 A 
ATOM     31  C   UNL     1      -7.400   7.822  -0.665  0.00  0.00    -0.035 A 
ATOM     32  C   UNL     1      -7.352   8.184  -2.015  0.00  0.00    +0.053 A 
BRANCH  27  34
ATOM     33  C   UNL     1      -7.165   7.826  -4.786  0.00  0.00    +0.277 C 
ATOM     34  O   UNL     1      -6.089   8.422  -4.057  0.00  0.00    -0.491 OA
ENDBRANCH  27  34
BRANCH  28  35
ATOM     35  O   UNL     1      -3.678   8.079  -2.573  0.00  0.00    -0.488 OA
ATOM     36  C   UNL     1      -3.431   8.888  -3.717  0.00  0.00    +0.277 C 
ENDBRANCH  28  35
BRANCH  29  37
ATOM     37  O   UNL     1      -3.926   7.749   0.296  0.00  0.00    -0.491 OA
ATOM     38  C   UNL     1      -2.590   7.968  -0.135  0.00  0.00    +0.277 C 
ENDBRANCH  29  37
ENDBRANCH  26  31
ENDBRANCH  11  26
ENDBRANCH  10  12
ENDBRANCH   9  10
ENDBRANCH   8   9
ENDBRANCH   7   8
ENDBRANCH   5   7
ENDBRANCH   4   5
ENDBRANCH   3   4
ENDBRANCH   1   3
BRANCH   2  39
ATOM     39  C   UNL     1      -7.444  12.237   6.781  0.00  0.00    +0.038 C 
BRANCH  39  40
ATOM     40  C   UNL     1      -7.538  13.159   5.576  0.00  0.00    +0.124 C 
BRANCH  40  41
ATOM     41  C   UNL     1      -8.437  12.621   4.491  0.00  0.00    +0.307 C 
ATOM     42  O   UNL     1      -9.086  11.585   4.498  0.00  0.00    -0.251 OA
BRANCH  41  43
ATOM     43  O   UNL     1      -8.563  13.599   3.550  0.00  0.00    -0.464 OA
BRANCH  43  44
ATOM     44  C   UNL     1      -9.855  13.680   2.949  0.00  0.00    +0.237 C 
BRANCH  44  45
ATOM     45  C   UNL     1     -10.223  15.155   3.000  0.00  0.00    +0.092 C 
BRANCH  45  46
ATOM     46  C   UNL     1     -11.666  15.505   2.647  0.00  0.00    +0.137 C 
BRANCH  46  47
ATOM     47  N   UNL     1     -12.069  15.389   1.160  0.00  0.00    +0.247 N 
ATOM     48  C   UNL     1     -13.484  16.215   0.951  0.00  0.00    +0.102 C 
ATOM     49  C   UNL     1     -13.699  16.606  -0.509  0.00  0.00    +0.008 A 
ATOM     50  C   UNL     1     -12.705  16.472  -1.490  0.00  0.00    -0.030 A 
ATOM     51  C   UNL     1     -12.987  16.753  -2.839  0.00  0.00    +0.053 A 
ATOM     52  C   UNL     1     -14.226  17.252  -3.242  0.00  0.00    +0.162 A 
ATOM     53  C   UNL     1     -15.185  17.507  -2.257  0.00  0.00    +0.162 A 
ATOM     54  C   UNL     1     -11.313  16.015  -1.181  0.00  0.00    +0.086 C 
ATOM     55  C   UNL     1     -14.906  17.189  -0.915  0.00  0.00    +0.058 A 
ATOM     56  C   UNL     1     -10.992  16.072   0.298  0.00  0.00    +0.138 C 
ATOM     57  C   UNL     1     -12.256  13.934   0.716  0.00  0.00    +0.193 C 
BRANCH  52  58
ATOM     58  O   UNL     1     -14.530  17.510  -4.547  0.00  0.00    -0.491 OA
ATOM     59  C   UNL     1     -13.570  17.187  -5.546  0.00  0.00    +0.277 C 
ENDBRANCH  52  58
BRANCH  53  60
ATOM     60  O   UNL     1     -16.438  18.040  -2.394  0.00  0.00    -0.491 OA
ATOM     61  C   UNL     1     -16.868  18.454  -3.682  0.00  0.00    +0.277 C 
ENDBRANCH  53  60
BRANCH  48  62
ATOM     62  C   UNL     1     -14.629  15.346   1.585  0.00  0.00    +0.095 C 
BRANCH  62  63
ATOM     63  C   UNL     1     -16.044  15.833   1.814  0.00  0.00    -0.035 A 
ATOM     64  C   UNL     1     -16.387  16.860   2.704  0.00  0.00    +0.053 A 
ATOM     65  C   UNL     1     -17.738  17.137   2.995  0.00  0.00    +0.165 A 
ATOM     66  C   UNL     1     -18.770  16.352   2.441  0.00  0.00    +0.204 A 
ATOM     67  C   UNL     1     -18.434  15.355   1.506  0.00  0.00    +0.165 A 
ATOM     68  C   UNL     1     -17.087  15.106   1.216  0.00  0.00    +0.053 A 
BRANCH  67  69
ATOM     69  O   UNL     1     -19.458  14.618   0.958  0.00  0.00    -0.491 OA
ATOM     70  C   UNL     1     -19.165  13.907  -0.242  0.00  0.00    +0.277 C 
ENDBRANCH  67  69
BRANCH  66  71
ATOM     71  O   UNL     1     -20.115  16.559   2.640  0.00  0.00    -0.488 OA
ATOM     72  C   UNL     1     -20.560  16.794   3.973  0.00  0.00    +0.277 C 
ENDBRANCH  66  71
BRANCH  65  73
ATOM     73  O   UNL     1     -18.085  18.140   3.862  0.00  0.00    -0.491 OA
ATOM     74  C   UNL     1     -17.325  19.339   3.776  0.00  0.00    +0.277 C 
ENDBRANCH  65  73
ENDBRANCH  62  63
ENDBRANCH  48  62
ENDBRANCH  46  47
ENDBRANCH  45  46
ENDBRANCH  44  45
ENDBRANCH  43  44
ENDBRANCH  41  43
ENDBRANCH  40  41
ENDBRANCH  39  40
ENDBRANCH   2  39
TORSDOF 30
