REMARK  Name = 
REMARK  6 active torsions:
REMARK  status: ('A' for Active; 'I' for Inactive)
REMARK    1  A    between atoms: N_1  and  C_2
REMARK    2  A    between atoms: C_2  and  C_4
REMARK    3  A    between atoms: C_2  and  C_7
REMARK    4  A    between atoms: C_4  and  S_5
REMARK    5  A    between atoms: S_5  and  O_6
REMARK    6  A    between atoms: C_7  and  O_8
REMARK                            x       y       z     vdW  Elec       q    Type
REMARK                         _______ _______ _______ _____ _____    ______ ____
ROOT
ATOM      1  C   UNK     1       2.403  -0.007   0.026  0.00  0.00    +0.173 C 
ENDROOT
BRANCH   1   2
ATOM      2  N   UNK     1       0.910   0.120  -0.098  0.00  0.00    -0.318 NA
ATOM      3  H   UNK     1       0.627  -0.361  -0.961  0.00  0.00    +0.119 HD
ATOM      4  H   UNK     1       0.507  -0.481   0.631  0.00  0.00    +0.119 HD
ENDBRANCH   1   2
BRANCH   1   5
ATOM      5  C   UNK     1       3.046   1.171  -0.719  0.00  0.00    +0.323 C 
ATOM      6  O   UNK     1       4.236   1.285  -0.960  0.00  0.00    -0.249 OA
BRANCH   5   7
ATOM      7  O   UNK     1       2.118   2.099  -1.067  0.00  0.00    -0.480 OA
ATOM      8  H   UNK     1       1.251   1.748  -0.736  0.00  0.00    +0.295 HD
ENDBRANCH   5   7
ENDBRANCH   1   5
BRANCH   1   9
ATOM      9  C   UNK     1       2.957  -1.323  -0.537  0.00  0.00    +0.129 C 
BRANCH   9  10
ATOM     10  S   UNK     1       2.211  -2.764   0.307  0.00  0.00    -0.009 S 
BRANCH  10  11
ATOM     11  O   UNK     1       2.840  -3.979  -0.635  0.00  0.00    -0.329 OA
ATOM     12  H   UNK     1       3.557  -4.469  -0.162  0.00  0.00    +0.227 HD
ENDBRANCH  10  11
ENDBRANCH   9  10
ENDBRANCH   1   9
TORSDOF 6
