REMARK  Name = 
REMARK  5 active torsions:
REMARK  status: ('A' for Active; 'I' for Inactive)
REMARK    1  A    between atoms: C_1  and  O_2
REMARK    2  A    between atoms: O_2  and  C_3
REMARK    3  A    between atoms: C_5  and  O_6
REMARK    4  A    between atoms: C_7  and  C_10
REMARK    5  A    between atoms: C_10  and  C_12
REMARK                            x       y       z     vdW  Elec       q    Type
REMARK                         _______ _______ _______ _____ _____    ______ ____
ROOT
ATOM      1  C   UNL     1       3.059  -0.965  -0.842  0.00  0.00    +0.124 A 
ATOM      2  C   UNL     1       2.914  -2.313  -0.523  0.00  0.00    +0.046 A 
ATOM      3  C   UNL     1       3.427  -3.289  -1.379  0.00  0.00    +0.019 A 
ATOM      4  C   UNL     1       4.063  -2.934  -2.576  0.00  0.00    +0.064 A 
ATOM      5  C   UNL     1       4.252  -1.574  -2.860  0.00  0.00    +0.131 A 
ATOM      6  C   UNL     1       3.767  -0.595  -1.986  0.00  0.00    +0.091 A 
ENDROOT
BRANCH   1   8
ATOM      7  C   UNL     1       1.320  -0.200   0.538  0.00  0.00    +0.277 C 
ATOM      8  O   UNL     1       2.581   0.062  -0.074  0.00  0.00    -0.495 OA
ENDBRANCH   1   8
BRANCH   4   9
ATOM      9  C   UNL     1       4.577  -4.005  -3.481  0.00  0.00    +0.197 C 
ATOM     10  O   UNL     1       5.670  -3.879  -4.025  0.00  0.00    -0.287 OA
BRANCH   9  11
ATOM     11  C   UNL     1       3.827  -5.283  -3.674  0.00  0.00    +0.022 A 
ATOM     12  C   UNL     1       2.433  -5.373  -3.552  0.00  0.00    +0.012 A 
ATOM     13  C   UNL     1       1.797  -6.611  -3.686  0.00  0.00    +0.001 A 
ATOM     14  C   UNL     1       2.542  -7.755  -3.970  0.00  0.00    +0.000 A 
ATOM     15  C   UNL     1       3.923  -7.665  -4.131  0.00  0.00    +0.001 A 
ATOM     16  C   UNL     1       4.563  -6.433  -3.987  0.00  0.00    +0.012 A 
ENDBRANCH   9  11
ENDBRANCH   4   9
BRANCH   5  17
ATOM     17  O   UNL     1       4.877  -1.177  -4.008  0.00  0.00    -0.506 OA
ATOM     18  H   UNL     1       5.146  -0.247  -3.928  0.00  0.00    +0.292 HD
ENDBRANCH   5  17
TORSDOF 4
