REMARK  Name = 
REMARK  10 active torsions:
REMARK  status: ('A' for Active; 'I' for Inactive)
REMARK    1  A    between atoms: N_12  and  C_13
REMARK    2  A    between atoms: C_16  and  C_17
REMARK    3  A    between atoms: C_17  and  C_18
REMARK    4  A    between atoms: C_17  and  O_19
REMARK    5  A    between atoms: C_17  and  C_20
REMARK    6  A    between atoms: C_20  and  C_21
REMARK    7  A    between atoms: C_21  and  C_22
REMARK    8  A    between atoms: C_23  and  O_24
REMARK    9  A    between atoms: O_24  and  C_25
REMARK   10  A    between atoms: C_28  and  O_29
REMARK                            x       y       z     vdW  Elec       q    Type
REMARK                         _______ _______ _______ _____ _____    ______ ____
ROOT
ATOM      1  C   UNL     1       6.961  -1.820  -2.380  0.00  0.00    +0.072 C 
ATOM      2  C   UNL     1       6.228  -2.265  -3.673  0.00  0.00    +0.018 C 
ATOM      3  C   UNL     1       4.780  -1.873  -3.790  0.00  0.00    -0.019 C 
ATOM      4  C   UNL     1       4.282  -2.056  -5.020  0.00  0.00    +0.008 C 
ATOM      5  C   UNL     1       5.198  -2.722  -6.071  0.00  0.00    +0.130 C 
ATOM      6  C   UNL     1       6.431  -1.708  -6.214  0.00  0.00    +0.221 C 
ATOM      7  O   UNL     1       7.535  -2.154  -7.096  0.00  0.00    -0.481 OA
ATOM      8  C   UNL     1       8.576  -2.502  -6.252  0.00  0.00    +0.166 A 
ATOM      9  C   UNL     1       9.678  -3.250  -6.557  0.00  0.00    +0.159 A 
ATOM     10  C   UNL     1      10.501  -3.697  -5.509  0.00  0.00    +0.049 A 
ATOM     11  C   UNL     1      10.194  -3.394  -4.154  0.00  0.00    +0.008 A 
ATOM     12  C   UNL     1       9.060  -2.641  -3.842  0.00  0.00    -0.038 A 
ATOM     13  C   UNL     1       8.321  -2.219  -4.938  0.00  0.00    +0.012 A 
ATOM     14  C   UNL     1       5.871  -4.058  -5.501  0.00  0.00    +0.061 C 
ATOM     15  C   UNL     1       6.108  -3.858  -3.953  0.00  0.00    +0.023 C 
ATOM     16  C   UNL     1       7.033  -1.506  -4.803  0.00  0.00    +0.051 C 
ATOM     17  C   UNL     1       7.510  -0.065  -4.527  0.00  0.00    +0.031 C 
ATOM     18  C   UNL     1       6.777   0.517  -3.354  0.00  0.00    +0.085 C 
ATOM     19  N   UNL     1       6.849  -0.326  -2.142  0.00  0.00    -0.301 NA
ATOM     20  C   UNL     1       5.706   0.078  -1.306  0.00  0.00    +0.105 C 
ATOM     21  C   UNL     1       8.513  -2.297  -2.455  0.00  0.00    +0.055 C 
ENDROOT
BRANCH   5  22
ATOM     22  O   UNL     1       4.468  -2.772  -7.292  0.00  0.00    -0.368 OA
ATOM     23  C   UNL     1       3.193  -3.416  -7.248  0.00  0.00    +0.195 C 
ENDBRANCH   5  22
BRANCH   9  24
ATOM     24  O   UNL     1       9.918  -3.646  -7.837  0.00  0.00    -0.503 OA
ATOM     25  H   UNL     1       9.147  -3.337  -8.354  0.00  0.00    +0.292 HD
ENDBRANCH   9  24
BRANCH  14  26
ATOM     26  C   UNL     1       5.741  -5.454  -6.202  0.00  0.00    +0.069 C 
ATOM     27  C   UNL     1       4.737  -6.371  -5.520  0.00  0.00    +0.041 C 
BRANCH  26  28
ATOM     28  O   UNL     1       5.333  -5.221  -7.547  0.00  0.00    -0.388 OA
ATOM     29  H   UNL     1       4.856  -5.992  -7.886  0.00  0.00    +0.210 HD
ENDBRANCH  26  28
BRANCH  26  30
ATOM     30  C   UNL     1       7.138  -6.171  -6.366  0.00  0.00    +0.034 C 
BRANCH  30  31
ATOM     31  C   UNL     1       7.138  -7.346  -7.367  0.00  0.00    -0.001 C 
ATOM     32  C   UNL     1       8.526  -7.902  -7.654  0.00  0.00    +0.004 C 
ENDBRANCH  30  31
ENDBRANCH  26  30
ENDBRANCH  14  26
TORSDOF 6
