REMARK  Name = 
REMARK  12 active torsions:
REMARK  status: ('A' for Active; 'I' for Inactive)
REMARK    1  A    between atoms: C_2  and  C_3
REMARK    2  A    between atoms: C_2  and  N_13
REMARK    3  A    between atoms: C_2  and  C_28
REMARK    4  A    between atoms: C_3  and  C_4
REMARK    5  A    between atoms: C_8  and  C_10
REMARK    6  A    between atoms: C_14  and  C_16
REMARK    7  A    between atoms: C_16  and  N_17
REMARK    8  A    between atoms: N_17  and  S_18
REMARK    9  A    between atoms: S_18  and  C_21
REMARK   10  A    between atoms: C_24  and  C_25
REMARK   11  A    between atoms: C_28  and  O_30
REMARK   12  A    between atoms: O_30  and  C_31
REMARK                            x       y       z     vdW  Elec       q    Type
REMARK                         _______ _______ _______ _____ _____    ______ ____
ROOT
ATOM      1  C   UNL     1       2.155  -0.116  -0.111  0.00  0.00    +0.186 C 
ENDROOT
BRANCH   1   2
ATOM      2  N   UNL     1       2.639  -0.811  -1.314  0.00  0.00    -0.301 N 
ATOM      3  H   UNL     1       3.525  -0.499  -1.702  0.00  0.00    +0.150 HD
ATOM      4  C   UNL     1       1.942  -1.835  -1.916  0.00  0.00    +0.229 C 
ATOM      5  O   UNL     1       0.867  -2.251  -1.484  0.00  0.00    -0.274 OA
BRANCH   4   6
ATOM      6  C   UNL     1       2.612  -2.377  -3.176  0.00  0.00    +0.201 C 
BRANCH   6   7
ATOM      7  N   UNL     1       1.804  -3.427  -3.796  0.00  0.00    -0.181 NA
ATOM      8  H   UNL     1       0.788  -3.349  -3.733  0.00  0.00    +0.149 HD
BRANCH   7   9
ATOM      9  S   UNL     1       2.392  -4.196  -5.155  0.00  0.00    +0.059 S 
ATOM     10  O   UNL     1       3.216  -3.248  -5.874  0.00  0.00    -0.153 OA
ATOM     11  O   UNL     1       1.271  -4.865  -5.781  0.00  0.00    -0.153 OA
BRANCH   9  12
ATOM     12  C   UNL     1       3.438  -5.441  -4.448  0.00  0.00    +0.105 A 
ATOM     13  C   UNL     1       4.825  -5.350  -4.580  0.00  0.00    +0.029 A 
ATOM     14  C   UNL     1       5.638  -6.289  -3.944  0.00  0.00    +0.005 A 
ATOM     15  C   UNL     1       5.071  -7.319  -3.179  0.00  0.00    -0.050 A 
ATOM     16  C   UNL     1       5.962  -8.274  -2.439  0.00  0.00    +0.044 C 
ATOM     17  C   UNL     1       3.676  -7.432  -3.104  0.00  0.00    +0.005 A 
ATOM     18  C   UNL     1       2.857  -6.496  -3.738  0.00  0.00    +0.029 A 
ENDBRANCH   9  12
ENDBRANCH   7   9
ENDBRANCH   6   7
ENDBRANCH   4   6
ENDBRANCH   1   2
BRANCH   1  19
ATOM     19  C   UNL     1       2.627   1.332  -0.245  0.00  0.00    +0.328 C 
ATOM     20  O   UNL     1       3.803   1.650  -0.392  0.00  0.00    -0.249 OA
BRANCH  19  21
ATOM     21  O   UNL     1       1.569   2.187  -0.283  0.00  0.00    -0.467 OA
ATOM     22  C   UNL     1       1.916   3.551  -0.533  0.00  0.00    +0.280 C 
ENDBRANCH  19  21
ENDBRANCH   1  19
BRANCH   1  23
ATOM     23  C   UNL     1       2.729  -0.772   1.155  0.00  0.00    +0.069 C 
BRANCH  23  24
ATOM     24  C   UNL     1       2.291  -0.118   2.444  0.00  0.00    -0.044 A 
ATOM     25  C   UNL     1       3.046   0.924   3.007  0.00  0.00    +0.019 A 
ATOM     26  C   UNL     1       2.612   1.569   4.173  0.00  0.00    +0.065 A 
ATOM     27  C   UNL     1       1.442   1.143   4.807  0.00  0.00    +0.016 A 
ATOM     28  C   UNL     1       0.695   0.097   4.262  0.00  0.00    +0.001 A 
ATOM     29  C   UNL     1       1.110  -0.522   3.081  0.00  0.00    +0.004 A 
BRANCH  26  30
ATOM     30  C   UNL     1       3.388   2.724   4.709  0.00  0.00    +0.308 C 
ATOM     31  N   UNL     1       2.834   3.707   5.344  0.00  0.00    -0.099 NA
ATOM     32  H   UNL     1       1.817   3.604   5.382  0.00  0.00    +0.363 HD
ATOM     33  N   UNL     1       4.737   2.797   4.536  0.00  0.00    -0.247 N 
ATOM     34  H   UNL     1       5.129   3.545   5.101  0.00  0.00    +0.288 HD
ATOM     35  H   UNL     1       5.246   1.928   4.640  0.00  0.00    +0.288 HD
ENDBRANCH  26  30
ENDBRANCH  23  24
ENDBRANCH   1  23
TORSDOF 10
