REMARK  Name = 
REMARK  8 active torsions:
REMARK  status: ('A' for Active; 'I' for Inactive)
REMARK    1  A    between atoms: N_6  and  C_9
REMARK    2  A    between atoms: C_12  and  C_14
REMARK    3  A    between atoms: C_14  and  O_15
REMARK    4  A    between atoms: C_16  and  O_18
REMARK    5  A    between atoms: O_18  and  P_19
REMARK    6  A    between atoms: P_19  and  O_20
REMARK    7  A    between atoms: P_19  and  O_21
REMARK    8  A    between atoms: C_23  and  O_25
REMARK                            x       y       z     vdW  Elec       q    Type
REMARK                         _______ _______ _______ _____ _____    ______ ____
ROOT
ATOM      1  C   UNL     1       6.921   0.244   0.261  0.00  0.00    +0.255 C 
ATOM      2  C   UNL     1       7.198  -1.079   1.011  0.00  0.00    +0.196 C 
ATOM      3  C   UNL     1       8.531  -0.869   1.737  0.00  0.00    +0.194 C 
ATOM      4  C   UNL     1       8.821   0.614   1.545  0.00  0.00    +0.178 C 
ATOM      5  O   UNL     1       7.637   1.245   1.008  0.00  0.00    -0.346 OA
ENDROOT
BRANCH   1  12
ATOM      6  N   UNL     1       8.292  -0.181  -5.074  0.00  0.00    -0.343 N 
ATOM      7  H   UNL     1       8.771   0.580  -5.533  0.00  0.00    +0.144 HD
ATOM      8  H   UNL     1       7.551  -0.596  -5.631  0.00  0.00    +0.144 HD
ATOM      9  C   UNL     1       7.949  -0.028  -3.760  0.00  0.00    +0.123 A 
ATOM     10  C   UNL     1       8.748   0.874  -2.912  0.00  0.00    +0.061 A 
ATOM     11  C   UNL     1       8.362   0.976  -1.644  0.00  0.00    +0.096 A 
ATOM     12  N   UNL     1       7.312   0.240  -1.152  0.00  0.00    -0.270 N 
ATOM     13  C   UNL     1       6.548  -0.567  -1.998  0.00  0.00    +0.352 A 
ATOM     14  O   UNL     1       5.561  -1.172  -1.576  0.00  0.00    -0.244 OA
ATOM     15  N   UNL     1       6.917  -0.674  -3.326  0.00  0.00    -0.178 NA
ENDBRANCH   1  12
BRANCH   2  16
ATOM     16  O   UNL     1       6.226  -1.363   2.037  0.00  0.00    -0.385 OA
ATOM     17  H   UNL     1       5.778  -0.537   2.291  0.00  0.00    +0.210 HD
ENDBRANCH   2  16
BRANCH   3  18
ATOM     18  O   UNL     1       9.628  -1.634   1.226  0.00  0.00    -0.278 OA
BRANCH  18  19
ATOM     19  P   UNL     1       9.419  -3.339   1.432  0.00  0.00    +0.473 P 
ATOM     20  O   UNL     1       9.232  -4.865   1.615  0.00  0.00    -0.228 OA
BRANCH  19  21
ATOM     21  O   UNL     1      10.982  -3.448   0.971  0.00  0.00    -0.303 OA
ATOM     22  H   UNL     1      11.367  -2.556   0.923  0.00  0.00    +0.222 HD
ENDBRANCH  19  21
BRANCH  19  23
ATOM     23  O   UNL     1       8.780  -3.344  -0.068  0.00  0.00    -0.303 OA
ATOM     24  H   UNL     1       8.446  -4.252  -0.221  0.00  0.00    +0.222 HD
ENDBRANCH  19  23
ENDBRANCH  18  19
ENDBRANCH   3  18
BRANCH   4  25
ATOM     25  C   UNL     1       9.196   1.338   2.832  0.00  0.00    +0.190 C 
BRANCH  25  26
ATOM     26  O   UNL     1       9.406   2.721   2.550  0.00  0.00    -0.392 OA
ATOM     27  H   UNL     1       8.630   3.014   2.032  0.00  0.00    +0.210 HD
ENDBRANCH  25  26
ENDBRANCH   4  25
TORSDOF 8
