REMARK  Name = 
REMARK  5 active torsions:
REMARK  status: ('A' for Active; 'I' for Inactive)
REMARK    1  A    between atoms: C_2  and  N_3
REMARK    2  A    between atoms: C_2  and  C_4
REMARK    3  A    between atoms: C_2  and  C_10
REMARK    4  A    between atoms: C_4  and  C_5
REMARK    5  A    between atoms: N_12  and  C_13
REMARK                            x       y       z     vdW  Elec       q    Type
REMARK                         _______ _______ _______ _____ _____    ______ ____
ROOT
ATOM      1  C   UNL     1       2.343  -1.288   0.549  0.00  0.00    +0.234 C 
ATOM      2  N   UNL     1       3.672  -1.615   0.780  0.00  0.00    -0.284 N 
ATOM      3  H   UNL     1       4.323  -0.834   0.745  0.00  0.00    +0.155 HD
ATOM      4  O   UNL     1       1.379  -2.036   0.698  0.00  0.00    -0.274 OA
ENDROOT
BRANCH   2   5
ATOM      5  C   UNL     1       4.163  -2.900   1.094  0.00  0.00    +0.034 A 
ATOM      6  C   UNL     1       5.463  -3.033   1.610  0.00  0.00    +0.031 A 
ATOM      7  C   UNL     1       5.972  -4.302   1.980  0.00  0.00    -0.016 A 
ATOM      8  C   UNL     1       5.170  -5.450   1.787  0.00  0.00    -0.018 A 
ATOM      9  C   UNL     1       5.649  -6.716   2.152  0.00  0.00    +0.008 A 
ATOM     10  C   UNL     1       6.915  -6.860   2.714  0.00  0.00    +0.001 A 
ATOM     11  C   UNL     1       7.714  -5.739   2.915  0.00  0.00    +0.001 A 
ATOM     12  C   UNL     1       3.896  -5.310   1.234  0.00  0.00    +0.010 A 
ATOM     13  C   UNL     1       7.249  -4.470   2.551  0.00  0.00    +0.008 A 
ATOM     14  C   UNL     1       3.401  -4.051   0.894  0.00  0.00    +0.024 A 
ENDBRANCH   2   5
BRANCH   1  15
ATOM     15  C   UNL     1       2.106   0.179   0.166  0.00  0.00    +0.144 C 
BRANCH  15  16
ATOM     16  N   UNL     1       3.282   0.733  -0.557  0.00  0.00    -0.320 NA
ATOM     17  H   UNL     1       3.363   0.220  -1.440  0.00  0.00    +0.119 HD
ATOM     18  H   UNL     1       3.031   1.684  -0.845  0.00  0.00    +0.119 HD
ENDBRANCH  15  16
BRANCH  15  19
ATOM     19  C   UNL     1       1.769   0.978   1.437  0.00  0.00    +0.082 C 
BRANCH  19  20
ATOM     20  C   UNL     1       1.354   2.379   1.131  0.00  0.00    +0.037 A 
ATOM     21  N   UNL     1       2.033   3.482   1.585  0.00  0.00    -0.348 N 
ATOM     22  H   UNL     1       2.855   3.484   2.173  0.00  0.00    +0.166 HD
ATOM     23  C   UNL     1       1.405   4.587   1.087  0.00  0.00    +0.196 A 
ATOM     24  N   UNL     1       0.362   4.261   0.360  0.00  0.00    -0.244 NA
ATOM     25  C   UNL     1       0.308   2.893   0.394  0.00  0.00    +0.133 A 
ENDBRANCH  19  20
ENDBRANCH  15  19
ENDBRANCH   1  15
TORSDOF 5
