REMARK  Name = 
REMARK  11 active torsions:
REMARK  status: ('A' for Active; 'I' for Inactive)
REMARK    1  A    between atoms: C_1  and  C_2
REMARK    2  A    between atoms: C_7  and  C_8
REMARK    3  A    between atoms: C_11  and  C_31
REMARK    4  A    between atoms: C_17  and  O_19
REMARK    5  A    between atoms: C_20  and  C_21
REMARK    6  A    between atoms: C_20  and  C_22
REMARK    7  A    between atoms: C_25  and  C_27
REMARK    8  A    between atoms: C_28  and  O_30
REMARK    9  A    between atoms: C_31  and  C_32
REMARK   10  A    between atoms: C_33  and  C_34
REMARK   11  A    between atoms: C_37  and  C_38
REMARK                            x       y       z     vdW  Elec       q    Type
REMARK                         _______ _______ _______ _____ _____    ______ ____
ROOT
ATOM      1  C   UNL     1       4.648  -6.204  -2.502  0.00  0.00    +0.010 C 
ATOM      2  C   UNL     1       6.135  -6.037  -2.806  0.00  0.00    +0.015 C 
ATOM      3  C   UNL     1       7.144  -6.837  -1.881  0.00  0.00    +0.127 C 
ATOM      4  C   UNL     1       6.850  -7.062  -0.335  0.00  0.00    +0.081 C 
ATOM      5  C   UNL     1       5.717  -6.208   0.214  0.00  0.00    +0.018 C 
ATOM      6  C   UNL     1       8.086  -7.029   0.598  0.00  0.00    +0.147 C 
ATOM      7  O   UNL     1       9.177  -6.642   0.159  0.00  0.00    -0.296 OA
ATOM      8  C   UNL     1       8.031  -7.527   2.070  0.00  0.00    +0.050 C 
ATOM      9  C   UNL     1       6.686  -8.086   2.569  0.00  0.00    +0.021 C 
ATOM     10  C   UNL     1       9.009  -8.736   2.103  0.00  0.00    +0.021 C 
ATOM     11  C   UNL     1       8.569  -6.358   2.995  0.00  0.00    +0.138 C 
ATOM     12  C   UNL     1       7.571  -5.187   3.116  0.00  0.00    +0.152 C 
ATOM     13  C   UNL     1       8.131  -3.800   3.359  0.00  0.00    +0.310 C 
ATOM     14  O   UNL     1       9.184  -3.514   3.886  0.00  0.00    -0.251 OA
ATOM     15  O   UNL     1       7.135  -2.888   3.062  0.00  0.00    -0.457 OA
ATOM     16  C   UNL     1       7.171  -2.126   1.808  0.00  0.00    +0.206 C 
ATOM     17  C   UNL     1       5.777  -2.312   1.089  0.00  0.00    +0.076 C 
ATOM     18  C   UNL     1       5.525  -1.479  -0.177  0.00  0.00    -0.024 C 
ATOM     19  C   UNL     1       5.015  -1.992  -1.326  0.00  0.00    -0.076 C 
ATOM     20  C   UNL     1       3.591  -1.636  -1.744  0.00  0.00    +0.039 C 
ATOM     21  C   UNL     1       5.908  -2.158  -2.553  0.00  0.00    +0.030 C 
ATOM     22  C   UNL     1       5.614  -3.454  -3.351  0.00  0.00    +0.005 C 
ATOM     23  C   UNL     1       6.604  -4.568  -2.991  0.00  0.00    +0.006 C 
ENDROOT
BRANCH  16  24
ATOM     24  C   UNL     1       8.447  -2.376   1.013  0.00  0.00    -0.030 C 
ATOM     25  C   UNL     1       9.583  -1.696   1.295  0.00  0.00    +0.031 C 
ATOM     26  C   UNL     1       8.456  -3.461  -0.017  0.00  0.00    +0.043 C 
BRANCH  25  27
ATOM     27  C   UNL     1      10.842  -1.857   0.635  0.00  0.00    +0.071 A 
ATOM     28  N   UNL     1      10.868  -2.063  -0.728  0.00  0.00    -0.245 NA
ATOM     29  C   UNL     1      12.108  -2.226  -1.133  0.00  0.00    +0.076 A 
ATOM     30  C   UNL     1      12.479  -2.498  -2.548  0.00  0.00    +0.073 C 
ATOM     31  S   UNL     1      13.305  -2.090   0.093  0.00  0.00    -0.080 S 
ATOM     32  C   UNL     1      12.070  -1.819   1.255  0.00  0.00    +0.074 A 
ENDBRANCH  25  27
ENDBRANCH  16  24
BRANCH   3  33
ATOM     33  O   UNL     1       8.448  -6.319  -2.185  0.00  0.00    -0.391 OA
ATOM     34  H   UNL     1       9.045  -6.410  -1.414  0.00  0.00    +0.210 HD
ENDBRANCH   3  33
BRANCH  11  35
ATOM     35  O   UNL     1       8.844  -6.874   4.301  0.00  0.00    -0.390 OA
ATOM     36  H   UNL     1       8.023  -7.190   4.713  0.00  0.00    +0.210 HD
ENDBRANCH  11  35
TORSDOF 4
