REMARK  Name = 
REMARK  5 active torsions:
REMARK  status: ('A' for Active; 'I' for Inactive)
REMARK    1  A    between atoms: O_1  and  C_2
REMARK    2  A    between atoms: C_2  and  C_4
REMARK    3  A    between atoms: C_4  and  C_5
REMARK    4  A    between atoms: C_7  and  O_8
REMARK    5  A    between atoms: C_9  and  O_10
REMARK                            x       y       z     vdW  Elec       q    Type
REMARK                         _______ _______ _______ _____ _____    ______ ____
ROOT
ATOM      1  C   UNL     1       4.677   0.877  -0.347  0.00  0.00    -0.033 A 
ATOM      2  C   UNL     1       5.230  -0.415  -0.384  0.00  0.00    +0.008 A 
ATOM      3  C   UNL     1       6.613  -0.591  -0.452  0.00  0.00    +0.049 A 
ATOM      4  C   UNL     1       7.437   0.524  -0.483  0.00  0.00    +0.158 A 
ATOM      5  C   UNL     1       6.903   1.809  -0.443  0.00  0.00    +0.158 A 
ATOM      6  C   UNL     1       5.526   1.996  -0.375  0.00  0.00    +0.053 A 
ENDROOT
BRANCH   4   7
ATOM      7  O   UNL     1       8.788   0.349  -0.559  0.00  0.00    -0.503 OA
ATOM      8  H   UNL     1       9.157   1.255  -0.559  0.00  0.00    +0.292 HD
ENDBRANCH   4   7
BRANCH   5   9
ATOM      9  O   UNL     1       7.775   2.860  -0.486  0.00  0.00    -0.503 OA
ATOM     10  H   UNL     1       7.266   3.688  -0.446  0.00  0.00    +0.292 HD
ENDBRANCH   5   9
BRANCH   1  11
ATOM     11  C   UNL     1       3.176   1.058  -0.342  0.00  0.00    +0.155 C 
BRANCH  11  12
ATOM     12  C   UNL     1       2.507   1.152  -1.698  0.00  0.00    +0.309 C 
ATOM     13  O   UNL     1       1.305   1.360  -1.814  0.00  0.00    -0.251 OA
BRANCH  12  14
ATOM     14  O   UNL     1       3.293   0.992  -2.784  0.00  0.00    -0.480 OA
ATOM     15  H   UNL     1       4.236   0.816  -2.601  0.00  0.00    +0.295 HD
ENDBRANCH  12  14
ENDBRANCH  11  12
ENDBRANCH   1  11
TORSDOF 5
