REMARK  Name = 
REMARK  20 active torsions:
REMARK  status: ('A' for Active; 'I' for Inactive)
REMARK    1  A    between atoms: C_1  and  O_2
REMARK    2  A    between atoms: O_2  and  C_3
REMARK    3  A    between atoms: C_8  and  C_9
REMARK    4  A    between atoms: C_17  and  O_18
REMARK    5  A    between atoms: C_19  and  C_20
REMARK    6  A    between atoms: C_21  and  O_22
REMARK    7  A    between atoms: C_27  and  C_28
REMARK    8  A    between atoms: C_32  and  C_34
REMARK    9  A    between atoms: C_35  and  O_37
REMARK   10  A    between atoms: C_38  and  C_40
REMARK   11  A    between atoms: C_41  and  O_43
REMARK   12  A    between atoms: C_44  and  C_46
REMARK   13  A    between atoms: C_47  and  O_49
REMARK   14  A    between atoms: O_49  and  C_50
REMARK   15  A    between atoms: C_50  and  C_51
REMARK   16  A    between atoms: C_53  and  C_55
REMARK   17  A    between atoms: C_56  and  C_57
REMARK   18  A    between atoms: N_58  and  N_59
REMARK   19  A    between atoms: N_62  and  C_65
REMARK   20  A    between atoms: C_70  and  O_71
REMARK                            x       y       z     vdW  Elec       q    Type
REMARK                         _______ _______ _______ _____ _____    ______ ____
ROOT
ATOM      1  C   UNL     1       6.878 -13.260  22.064  0.00  0.00    +0.150 C 
ATOM      2  C   UNL     1       5.941 -13.293  24.134  0.00  0.00    +0.060 C 
ATOM      3  C   UNL     1       6.448 -15.062  23.468  0.00  0.00    +0.014 C 
ATOM      4  C   UNL     1       4.837 -12.813  26.139  0.00  0.00    +0.187 C 
ATOM      5  C   UNL     1       4.161 -11.604  27.961  0.00  0.00    +0.056 C 
ATOM      6  C   UNL     1       4.148 -11.458  29.982  0.00  0.00    +0.014 C 
ATOM      7  C   UNL     1       2.672 -10.557  29.145  0.00  0.00    +0.126 C 
ATOM      8  C   UNL     1       2.750  -8.973  30.447  0.00  0.00    +0.044 C 
ATOM      9  C   UNL     1       2.976  -7.026  30.843  0.00  0.00    +0.013 C 
ATOM     10  C   UNL     1       2.076  -8.129  29.509  0.00  0.00    +0.126 C 
ATOM     11  C   UNL     1       3.928  -8.311  29.374  0.00  0.00    +0.037 C 
ATOM     12  C   UNL     1       5.052  -8.589  30.870  0.00  0.00    +0.014 C 
ATOM     13  C   UNL     1       4.008  -8.991  28.094  0.00  0.00    -0.021 C 
ATOM     14  C   UNL     1       4.851  -8.627  27.201  0.00  0.00    -0.003 C 
ATOM     15  C   UNL     1       4.670  -9.202  25.927  0.00  0.00    +0.008 C 
ATOM     16  C   UNL     1       5.650  -8.914  25.086  0.00  0.00    +0.012 C 
ATOM     17  C   UNL     1       6.688  -7.934  25.490  0.00  0.00    +0.049 C 
ATOM     18  C   UNL     1       5.726  -9.799  23.945  0.00  0.00    +0.244 C 
ATOM     19  O   UNL     1       5.289 -10.940  24.035  0.00  0.00    -0.270 OA
ATOM     20  N   UNL     1       6.394  -9.276  22.888  0.00  0.00    -0.278 N 
ATOM     21  H   UNL     1       6.986  -8.488  23.068  0.00  0.00    +0.155 HD
ATOM     22  C   UNL     1       6.367  -9.806  21.590  0.00  0.00    +0.089 A 
ATOM     23  C   UNL     1       7.368  -9.444  20.669  0.00  0.00    +0.061 A 
ATOM     24  C   UNL     1       7.272  -9.911  19.372  0.00  0.00    +0.136 A 
ATOM     25  C   UNL     1       6.181 -10.718  18.994  0.00  0.00    +0.046 A 
ATOM     26  C   UNL     1       5.184 -11.164  19.906  0.00  0.00    +0.071 A 
ATOM     27  C   UNL     1       4.198 -12.154  19.515  0.00  0.00    +0.135 A 
ATOM     28  C   UNL     1       4.119 -12.646  18.234  0.00  0.00    +0.034 A 
ATOM     29  C   UNL     1       3.192 -13.746  17.826  0.00  0.00    +0.051 C 
ATOM     30  C   UNL     1       5.002 -12.082  17.358  0.00  0.00    +0.144 A 
ATOM     31  O   UNL     1       5.056 -12.579  16.093  0.00  0.00    -0.444 OA
ATOM     32  C   UNL     1       6.409 -12.326  15.858  0.00  0.00    +0.314 C 
ATOM     33  C   UNL     1       6.376 -11.519  14.457  0.00  0.00    +0.114 C 
ATOM     34  C   UNL     1       7.061 -11.318  16.684  0.00  0.00    +0.250 C 
ATOM     35  O   UNL     1       8.249 -11.050  16.576  0.00  0.00    -0.284 OA
ATOM     36  O   UNL     1       7.149 -13.387  16.758  0.00  0.00    -0.453 OA
ATOM     37  C   UNL     1       7.487 -13.286  18.450  0.00  0.00    +0.190 C 
ATOM     38  C   UNL     1       6.034 -11.175  17.715  0.00  0.00    +0.079 A 
ATOM     39  C   UNL     1       5.279 -10.624  21.180  0.00  0.00    +0.150 A 
ATOM     40  C   UNL     1       6.884 -13.304  20.037  0.00  0.00    +0.042 C 
ENDROOT
BRANCH   1  42
ATOM     41  C   UNL     1       9.356 -14.749  19.777  0.00  0.00    +0.194 C 
ATOM     42  O   UNL     1       8.448 -14.290  21.425  0.00  0.00    -0.375 OA
ENDBRANCH   1  42
BRANCH   7  43
ATOM     43  O   UNL     1       1.571 -11.128  30.289  0.00  0.00    -0.391 OA
ATOM     44  H   UNL     1       1.478 -10.579  31.140  0.00  0.00    +0.210 HD
ENDBRANCH   7  43
BRANCH  10  45
ATOM     45  O   UNL     1       1.594  -8.169  28.202  0.00  0.00    -0.391 OA
ATOM     46  H   UNL     1       2.197  -7.587  27.722  0.00  0.00    +0.210 HD
ENDBRANCH  10  45
BRANCH  23  47
ATOM     47  C   UNL     1       8.464  -8.496  20.987  0.00  0.00    +0.143 C 
ATOM     48  N   UNL     1       9.368  -8.165  20.111  0.00  0.00    -0.192 NA
BRANCH  48  49
ATOM     49  N   UNL     1      10.283  -7.272  20.515  0.00  0.00    -0.253 N 
ATOM     50  C   UNL     1       9.972  -6.044  21.253  0.00  0.00    +0.141 C 
ATOM     51  C   UNL     1      10.449  -4.769  20.539  0.00  0.00    +0.105 C 
ATOM     52  N   UNL     1      11.885  -4.800  20.184  0.00  0.00    -0.296 NA
ATOM     53  C   UNL     1      12.100  -5.989  19.331  0.00  0.00    +0.105 C 
ATOM     54  C   UNL     1      11.648  -7.317  19.974  0.00  0.00    +0.141 C 
BRANCH  52  55
ATOM     55  C   UNL     1      12.760  -4.799  21.372  0.00  0.00    +0.057 C 
ATOM     56  C   UNL     1      12.588  -3.527  22.214  0.00  0.00    +0.019 C 
ATOM     57  C   UNL     1      13.965  -3.183  22.779  0.00  0.00    +0.002 C 
ATOM     58  C   UNL     1      14.920  -4.263  22.295  0.00  0.00    +0.002 C 
ATOM     59  C   UNL     1      14.254  -4.784  21.036  0.00  0.00    +0.019 C 
ENDBRANCH  52  55
ENDBRANCH  48  49
ENDBRANCH  23  47
BRANCH  24  60
ATOM     60  O   UNL     1       8.165  -9.531  18.412  0.00  0.00    -0.505 OA
ATOM     61  H   UNL     1       8.938  -9.056  18.786  0.00  0.00    +0.292 HD
ENDBRANCH  24  60
BRANCH  27  62
ATOM     62  O   UNL     1       3.319 -12.778  20.363  0.00  0.00    -0.506 OA
ATOM     63  H   UNL     1       3.125 -12.236  21.133  0.00  0.00    +0.292 HD
ENDBRANCH  27  62
BRANCH  39  64
ATOM     64  O   UNL     1       4.127 -10.718  21.932  0.00  0.00    -0.504 OA
ATOM     65  H   UNL     1       4.165 -11.565  22.416  0.00  0.00    +0.292 HD
ENDBRANCH  39  64
BRANCH   4  66
ATOM     66  O   UNL     1       3.683 -13.480  27.660  0.00  0.00    -0.461 OA
BRANCH  66  67
ATOM     67  C   UNL     1       3.293 -13.828  29.515  0.00  0.00    +0.304 C 
ATOM     68  O   UNL     1       3.957 -14.598  29.999  0.00  0.00    -0.251 OA
ATOM     69  C   UNL     1       2.024 -13.295  30.956  0.00  0.00    +0.136 C 
ENDBRANCH  66  67
ENDBRANCH   4  66
TORSDOF 11
