REMARK  Name = 
REMARK  28 active torsions:
REMARK  status: ('A' for Active; 'I' for Inactive)
REMARK    1  A    between atoms: C_1  and  O_2
REMARK    2  A    between atoms: O_2  and  C_3
REMARK    3  A    between atoms: C_5  and  O_7
REMARK    4  A    between atoms: O_7  and  C_8
REMARK    5  A    between atoms: C_8  and  C_10
REMARK    6  A    between atoms: C_15  and  C_17
REMARK    7  A    between atoms: C_23  and  O_25
REMARK    8  A    between atoms: C_26  and  C_28
REMARK    9  A    between atoms: C_30  and  C_32
REMARK   10  A    between atoms: C_32  and  C_33
REMARK   11  A    between atoms: C_35  and  O_37
REMARK   12  A    between atoms: O_37  and  C_38
REMARK   13  A    between atoms: C_41  and  C_43
REMARK   14  A    between atoms: C_44  and  O_46
REMARK   15  A    between atoms: O_46  and  C_47
REMARK   16  A    between atoms: C_50  and  C_52
REMARK   17  A    between atoms: C_53  and  O_55
REMARK   18  A    between atoms: O_55  and  C_56
REMARK   19  A    between atoms: C_56  and  C_58
REMARK   20  A    between atoms: C_58  and  C_59
REMARK   21  A    between atoms: C_59  and  C_60
REMARK   22  A    between atoms: C_59  and  C_61
REMARK   23  A    between atoms: C_62  and  C_63
REMARK   24  A    between atoms: C_62  and  O_64
REMARK   25  A    between atoms: C_66  and  N_68
REMARK   26  A    between atoms: N_68  and  C_69
REMARK   27  A    between atoms: N_68  and  C_70
REMARK   28  A    between atoms: C_71  and  O_73
REMARK                            x       y       z     vdW  Elec       q    Type
REMARK                         _______ _______ _______ _____ _____    ______ ____
ROOT
ATOM      1  O   UNL     1       4.196   6.213  -2.438  0.00  0.00    -0.343 OA
ENDROOT
BRANCH   1   3
ATOM      2  C   UNL     1       5.915   7.395  -3.581  0.00  0.00    +0.188 C 
ATOM      3  C   UNL     1       4.457   7.673  -2.333  0.00  0.00    +0.157 C 
ATOM      4  C   UNL     1       2.923   9.000  -2.124  0.00  0.00    +0.028 C 
ATOM      5  C   UNL     1       2.479  10.288  -0.756  0.00  0.00    +0.012 C 
ATOM      6  C   UNL     1       1.274  11.705  -0.324  0.00  0.00    +0.019 C 
ATOM      7  C   UNL     1       0.199  12.667  -1.096  0.00  0.00    +0.010 C 
ATOM      8  C   UNL     1       1.825  12.838   0.684  0.00  0.00    +0.140 C 
ATOM      9  C   UNL     1       2.881  13.599  -0.071  0.00  0.00    +0.004 C 
ATOM     10  C   UNL     1       4.140  13.218   0.122  0.00  0.00    -0.002 C 
ATOM     11  C   UNL     1       4.773  12.543  -0.987  0.00  0.00    -0.004 C 
ATOM     12  C   UNL     1       5.582  11.546  -0.616  0.00  0.00    -0.023 C 
ATOM     13  C   UNL     1       5.825  10.357  -1.434  0.00  0.00    +0.071 C 
ATOM     14  C   UNL     1       7.254   9.882  -1.304  0.00  0.00    +0.177 C 
ATOM     15  C   UNL     1       7.371   8.669  -0.367  0.00  0.00    +0.052 C 
ATOM     16  O   UNL     1       7.498   9.525  -2.647  0.00  0.00    -0.461 OA
ATOM     17  C   UNL     1       8.743   9.216  -3.031  0.00  0.00    +0.311 C 
ATOM     18  O   UNL     1       9.793   9.582  -2.531  0.00  0.00    -0.251 OA
ATOM     19  C   UNL     1       8.539   8.199  -4.075  0.00  0.00    +0.167 C 
ATOM     20  C   UNL     1       7.701   7.075  -3.367  0.00  0.00    +0.218 C 
BRANCH   8  21
ATOM     21  O   UNL     1       2.215  12.295   1.932  0.00  0.00    -0.387 OA
ATOM     22  H   UNL     1       1.411  12.332   2.488  0.00  0.00    +0.210 HD
ENDBRANCH   8  21
BRANCH   2  24
ATOM     23  C   UNL     1       6.596   5.608  -5.473  0.00  0.00    +0.194 C 
ATOM     24  O   UNL     1       5.575   6.203  -4.582  0.00  0.00    -0.374 OA
ENDBRANCH   2  24
BRANCH   4  25
ATOM     25  C   UNL     1       1.299   8.603  -2.365  0.00  0.00    +0.076 C 
BRANCH  25  26
ATOM     26  C   UNL     1       0.049   9.428  -1.763  0.00  0.00    +0.223 C 
ATOM     27  O   UNL     1      -0.433   9.286  -0.643  0.00  0.00    -0.301 OA
ENDBRANCH  25  26
ENDBRANCH   4  25
BRANCH  20  28
ATOM     28  O   UNL     1       8.442   6.404  -2.229  0.00  0.00    -0.458 OA
BRANCH  28  29
ATOM     29  C   UNL     1       9.285   5.305  -2.504  0.00  0.00    +0.304 C 
ATOM     30  C   UNL     1      10.277   4.881  -1.409  0.00  0.00    +0.136 C 
ATOM     31  O   UNL     1       9.291   4.691  -3.572  0.00  0.00    -0.251 OA
ENDBRANCH  28  29
ENDBRANCH  20  28
ENDBRANCH   1   3
BRANCH   1  32
ATOM     32  C   UNL     1       4.738   5.142  -1.572  0.00  0.00    +0.281 C 
ATOM     33  C   UNL     1       5.187   3.512  -1.822  0.00  0.00    +0.190 C 
ATOM     34  C   UNL     1       4.457   2.681  -2.969  0.00  0.00    +0.121 C 
ATOM     35  C   UNL     1       2.901   3.108  -2.941  0.00  0.00    +0.169 C 
ATOM     36  C   UNL     1       2.624   4.446  -2.101  0.00  0.00    +0.149 C 
ATOM     37  C   UNL     1       1.323   5.055  -1.623  0.00  0.00    +0.041 C 
ATOM     38  O   UNL     1       3.499   4.749  -0.980  0.00  0.00    -0.343 OA
BRANCH  34  39
ATOM     39  N   UNL     1       4.867   1.143  -3.076  0.00  0.00    -0.301 NA
ATOM     40  C   UNL     1       4.879   0.565  -4.434  0.00  0.00    +0.105 C 
ATOM     41  C   UNL     1       4.177   0.115  -2.281  0.00  0.00    +0.105 C 
ENDBRANCH  34  39
BRANCH  33  42
ATOM     42  O   UNL     1       6.598   3.248  -1.725  0.00  0.00    -0.385 OA
ATOM     43  H   UNL     1       6.665   2.333  -1.374  0.00  0.00    +0.210 HD
ENDBRANCH  33  42
BRANCH  35  44
ATOM     44  O   UNL     1       2.360   3.443  -4.259  0.00  0.00    -0.344 OA
BRANCH  44  45
ATOM     45  C   UNL     1       2.762   2.746  -5.435  0.00  0.00    +0.254 C 
ATOM     46  C   UNL     1       1.717   1.680  -5.742  0.00  0.00    +0.099 C 
ATOM     47  C   UNL     1       1.892   0.932  -7.094  0.00  0.00    +0.107 C 
ATOM     48  C   UNL     1       2.987  -0.145  -7.150  0.00  0.00    +0.045 C 
ATOM     49  C   UNL     1       2.157   1.993  -8.172  0.00  0.00    +0.236 C 
ATOM     50  C   UNL     1       3.237   3.035  -7.797  0.00  0.00    +0.162 C 
ATOM     51  C   UNL     1       4.671   2.511  -7.880  0.00  0.00    +0.042 C 
ATOM     52  O   UNL     1       2.915   3.654  -6.536  0.00  0.00    -0.345 OA
BRANCH  47  53
ATOM     53  O   UNL     1       0.683   0.231  -7.312  0.00  0.00    -0.385 OA
ATOM     54  H   UNL     1       0.689  -0.102  -8.224  0.00  0.00    +0.210 HD
ENDBRANCH  47  53
BRANCH  49  55
ATOM     55  O   UNL     1       0.936   2.708  -8.427  0.00  0.00    -0.456 OA
BRANCH  55  56
ATOM     56  C   UNL     1       0.834   3.366  -9.567  0.00  0.00    +0.308 C 
ATOM     57  O   UNL     1       1.628   3.296 -10.539  0.00  0.00    -0.251 OA
BRANCH  56  58
ATOM     58  C   UNL     1      -0.381   4.249  -9.648  0.00  0.00    +0.123 C 
BRANCH  58  59
ATOM     59  C   UNL     1      -0.359   5.364  -8.588  0.00  0.00    -0.007 C 
ATOM     60  C   UNL     1      -1.680   6.113  -8.713  0.00  0.00    +0.008 C 
ATOM     61  C   UNL     1       0.841   6.298  -8.776  0.00  0.00    +0.008 C 
ENDBRANCH  58  59
ENDBRANCH  56  58
ENDBRANCH  55  56
ENDBRANCH  49  55
ENDBRANCH  44  45
ENDBRANCH  35  44
ENDBRANCH   1  32
TORSDOF 17
