REMARK  Name = 
REMARK  8 active torsions:
REMARK  status: ('A' for Active; 'I' for Inactive)
REMARK    1  A    between atoms: C_1  and  C_2
REMARK    2  A    between atoms: C_2  and  N_4
REMARK    3  A    between atoms: C_2  and  C_33
REMARK    4  A    between atoms: C_9  and  C_11
REMARK    5  A    between atoms: C_12  and  C_23
REMARK    6  A    between atoms: C_14  and  C_15
REMARK    7  A    between atoms: N_21  and  C_22
REMARK    8  A    between atoms: C_25  and  C_29
REMARK                            x       y       z     vdW  Elec       q    Type
REMARK                         _______ _______ _______ _____ _____    ______ ____
ROOT
ATOM      1  C   UNL     1       4.328   5.723   0.664  0.00  0.00    +0.095 A 
ATOM      2  N   UNL     1       5.684   5.376   0.626  0.00  0.00    -0.329 N 
ATOM      3  C   UNL     1       6.224   4.064   0.928  0.00  0.00    +0.150 C 
ATOM      4  C   UNL     1       6.430   6.476   0.265  0.00  0.00    +0.114 A 
ATOM      5  N   UNL     1       5.657   7.539   0.228  0.00  0.00    -0.231 NA
ATOM      6  C   UNL     1       4.359   7.109   0.440  0.00  0.00    +0.099 A 
ENDROOT
BRANCH   1  11
ATOM      7  N   UNL     1       3.111   1.338  -0.152  0.00  0.00    -0.307 N 
ATOM      8  H   UNL     1       3.613   0.965   0.642  0.00  0.00    +0.149 HD
ATOM      9  C   UNL     1       2.636   2.575   0.226  0.00  0.00    +0.216 A 
ATOM     10  N   UNL     1       3.576   3.519   0.324  0.00  0.00    -0.213 NA
ATOM     11  C   UNL     1       3.254   4.724   0.827  0.00  0.00    +0.094 A 
ATOM     12  C   UNL     1       2.014   4.953   1.363  0.00  0.00    +0.050 A 
ATOM     13  C   UNL     1       1.085   3.956   1.155  0.00  0.00    +0.116 A 
ATOM     14  N   UNL     1       1.366   2.774   0.573  0.00  0.00    -0.223 NA
BRANCH   7  16
ATOM     15  C   UNL     1       3.148  -0.548  -1.620  0.00  0.00    +0.033 C 
ATOM     16  C   UNL     1       2.235   0.379  -0.798  0.00  0.00    +0.100 C 
BRANCH  16  17
ATOM     17  C   UNL     1       1.400  -0.431   0.180  0.00  0.00    -0.027 A 
ATOM     18  C   UNL     1       1.980  -1.224   1.183  0.00  0.00    +0.005 A 
ATOM     19  C   UNL     1       1.182  -1.971   2.053  0.00  0.00    +0.000 A 
ATOM     20  C   UNL     1      -0.206  -1.941   1.930  0.00  0.00    +0.000 A 
ATOM     21  C   UNL     1      -0.797  -1.170   0.934  0.00  0.00    +0.000 A 
ATOM     22  C   UNL     1      -0.000  -0.420   0.065  0.00  0.00    +0.005 A 
ENDBRANCH  16  17
ENDBRANCH   7  16
ENDBRANCH   1  11
BRANCH   4  23
ATOM     23  C   UNL     1       7.913   6.438  -0.057  0.00  0.00    +0.058 C 
ATOM     24  C   UNL     1       8.789   6.592   1.192  0.00  0.00    +0.026 C 
ATOM     25  C   UNL     1       8.814   8.029   1.701  0.00  0.00    +0.081 C 
ATOM     26  N   UNL     1       9.276   8.956   0.665  0.00  0.00    -0.316 NA
ATOM     27  H   UNL     1       9.250   9.904   1.040  0.00  0.00    +0.122 HD
ATOM     28  C   UNL     1       8.409   8.901  -0.515  0.00  0.00    +0.081 C 
ATOM     29  C   UNL     1       8.332   7.490  -1.097  0.00  0.00    +0.026 C 
ENDBRANCH   4  23
BRANCH   6  30
ATOM     30  C   UNL     1       3.269   8.089   0.420  0.00  0.00    +0.003 A 
ATOM     31  C   UNL     1       3.537   9.414   0.803  0.00  0.00    +0.010 A 
ATOM     32  C   UNL     1       2.517  10.367   0.885  0.00  0.00    +0.001 A 
ATOM     33  C   UNL     1       1.199   9.997   0.631  0.00  0.00    +0.012 A 
ATOM     34  C   UNL     1       0.903   8.689   0.228  0.00  0.00    +0.055 A 
ATOM     35  C   UNL     1       1.959   7.775   0.049  0.00  0.00    +0.022 A 
BRANCH  34  36
ATOM     36  C   UNL     1      -0.530   8.251   0.058  0.00  0.00    +0.417 C 
ATOM     37  F   UNL     1      -1.189   8.931  -0.917  0.00  0.00    -0.166 F 
ATOM     38  F   UNL     1      -1.257   8.428   1.199  0.00  0.00    -0.166 F 
ATOM     39  F   UNL     1      -0.660   6.928  -0.246  0.00  0.00    -0.166 F 
ENDBRANCH  34  36
ENDBRANCH   6  30
TORSDOF 6
