REMARK  Name = 
REMARK  10 active torsions:
REMARK  status: ('A' for Active; 'I' for Inactive)
REMARK    1  A    between atoms: N_1  and  CA_2
REMARK    2  A    between atoms: CA_2  and  C_4
REMARK    3  A    between atoms: CA_2  and  C_18
REMARK    4  A    between atoms: C_4  and  C_5
REMARK    5  A    between atoms: C_8  and  N_11
REMARK    6  A    between atoms: N_11  and  C_12
REMARK    7  A    between atoms: N_11  and  C_15
REMARK    8  A    between atoms: C_12  and  C_13
REMARK    9  A    between atoms: C_15  and  C_16
REMARK   10  A    between atoms: C_18  and  O_19
REMARK                            x       y       z     vdW  Elec       q    Type
REMARK                         _______ _______ _______ _____ _____    ______ ____
ROOT
ATOM      1  C   UNL     1       2.549   0.610   2.359  0.00  0.00    -0.045 A 
ATOM      2  C   UNL     1       2.926   1.947   2.256  0.00  0.00    +0.005 A 
ATOM      3  C   UNL     1       2.453   2.889   3.179  0.00  0.00    +0.023 A 
ATOM      4  C   UNL     1       1.576   2.549   4.221  0.00  0.00    +0.030 A 
ATOM      5  C   UNL     1       1.251   1.191   4.337  0.00  0.00    +0.023 A 
ATOM      6  C   UNL     1       1.726   0.237   3.423  0.00  0.00    +0.005 A 
ENDROOT
BRANCH   1   7
ATOM      7  C   UNL     1       3.002  -0.397   1.328  0.00  0.00    +0.065 C 
BRANCH   7   8
ATOM      8  CA  UNL     1       2.069  -0.474   0.106  0.00  0.00    +0.165 C 
BRANCH   8   9
ATOM      9  N   UNL     1       0.664  -0.881   0.455  0.00  0.00    -0.318 NA
ATOM     10  H1  UNL     1       0.714  -1.518   1.257  0.00  0.00    +0.119 HD
ATOM     11  H2  UNL     1       0.212  -0.047   0.849  0.00  0.00    +0.119 HD
ENDBRANCH   8   9
BRANCH   8  12
ATOM     12  C   UNL     1       2.626  -1.498  -0.897  0.00  0.00    +0.322 C 
ATOM     13  OXT UNL     1       3.775  -1.535  -1.308  0.00  0.00    -0.249 OA
BRANCH  12  14
ATOM     14  O   UNL     1       1.666  -2.379  -1.287  0.00  0.00    -0.480 OA
ATOM     15  H   UNL     1       0.838  -2.087  -0.827  0.00  0.00    +0.295 HD
ENDBRANCH  12  14
ENDBRANCH   8  12
ENDBRANCH   7   8
ENDBRANCH   1   7
BRANCH   4  16
ATOM     16  N   UNL     1       1.070   3.526   5.075  0.00  0.00    -0.328 N 
BRANCH  16  17
ATOM     17  C   UNL     1       0.657   4.823   4.490  0.00  0.00    +0.121 C 
BRANCH  17  18
ATOM     18  C   UNL     1      -0.444   4.707   3.427  0.00  0.00    +0.127 C 
ATOM     19 CL   UNL     1      -1.969   4.061   4.091  0.00  0.00    -0.124 Cl
ENDBRANCH  17  18
ENDBRANCH  16  17
BRANCH  16  20
ATOM     20  C   UNL     1       0.506   3.202   6.397  0.00  0.00    +0.121 C 
BRANCH  20  21
ATOM     21  C   UNL     1       1.564   2.761   7.415  0.00  0.00    +0.127 C 
ATOM     22 CL   UNL     1       2.810   4.011   7.685  0.00  0.00    -0.124 Cl
ENDBRANCH  20  21
ENDBRANCH  16  20
ENDBRANCH   4  16
TORSDOF 10
