REMARK  Name = 
REMARK  1 active torsions:
REMARK  status: ('A' for Active; 'I' for Inactive)
REMARK    1  A    between atoms: O_1  and  C_2
REMARK                            x       y       z     vdW  Elec       q    Type
REMARK                         _______ _______ _______ _____ _____    ______ ____
ROOT
ATOM      1  C   UNL     1       2.391  -0.021   0.074  0.00  0.00    +0.161 A 
ATOM      2  C   UNL     1       3.107   1.183   0.062  0.00  0.00    +0.115 A 
ATOM      3  N   UNL     1       2.451   2.366   0.039  0.00  0.00    -0.251 NA
ATOM      4  C   UNL     1       3.158   3.513   0.023  0.00  0.00    +0.111 A 
ATOM      5  C   UNL     1       4.533   3.558   0.029  0.00  0.00    +0.020 A 
ATOM      6  C   UNL     1       5.218   2.350   0.055  0.00  0.00    +0.013 A 
ATOM      7  C   UNL     1       4.521   1.121   0.072  0.00  0.00    +0.022 A 
ATOM      8  C   UNL     1       5.157  -0.147   0.096  0.00  0.00    +0.052 A 
ATOM      9 CL   UNL     1       6.883  -0.308   0.115  0.00  0.00    -0.083 Cl
ATOM     10  C   UNL     1       4.419  -1.330   0.104  0.00  0.00    +0.044 A 
ATOM     11  C   UNL     1       3.036  -1.262   0.092  0.00  0.00    +0.086 A 
ATOM     12 CL   UNL     1       2.123  -2.727   0.097  0.00  0.00    -0.080 Cl
ENDROOT
BRANCH   1  13
ATOM     13  O   UNL     1       1.011   0.027   0.066  0.00  0.00    -0.503 OA
ATOM     14  H   UNL     1       0.675  -0.886   0.078  0.00  0.00    +0.292 HD
ENDBRANCH   1  13
TORSDOF 1
