REMARK  Name = 
REMARK  7 active torsions:
REMARK  status: ('A' for Active; 'I' for Inactive)
REMARK    1  A    between atoms: C_1  and  O_2
REMARK    2  A    between atoms: O_2  and  C_3
REMARK    3  A    between atoms: N_5  and  C_25
REMARK    4  A    between atoms: C_7  and  C_8
REMARK    5  A    between atoms: C_8  and  O_9
REMARK    6  A    between atoms: C_17  and  N_18
REMARK    7  A    between atoms: C_22  and  C_23
REMARK                            x       y       z     vdW  Elec       q    Type
REMARK                         _______ _______ _______ _____ _____    ______ ____
ROOT
ATOM      1  C   UNL     1       2.970   0.879  -0.831  0.00  0.00    +0.168 A 
ATOM      2  C   UNL     1       2.791   2.275  -0.528  0.00  0.00    +0.110 A 
ATOM      3  C   UNL     1       3.377   3.169  -1.456  0.00  0.00    +0.149 A 
ATOM      4  F   UNL     1       3.243   4.500  -1.323  0.00  0.00    -0.203 F 
ATOM      5  C   UNL     1       4.169   2.751  -2.521  0.00  0.00    +0.054 A 
ATOM      6  C   UNL     1       4.457   1.402  -2.684  0.00  0.00    +0.052 A 
ATOM      7  C   UNL     1       5.407   1.015  -3.759  0.00  0.00    +0.204 A 
ATOM      8  O   UNL     1       5.869   1.845  -4.545  0.00  0.00    -0.286 OA
ATOM      9  C   UNL     1       5.838  -0.385  -3.849  0.00  0.00    +0.122 A 
ATOM     10  C   UNL     1       5.257  -1.236  -2.988  0.00  0.00    +0.105 A 
ATOM     11  N   UNL     1       4.279  -0.940  -2.054  0.00  0.00    -0.340 N 
ATOM     12  C   UNL     1       3.883   0.425  -1.839  0.00  0.00    +0.097 A 
ENDROOT
BRANCH   2  13
ATOM     13  N   UNL     1       2.072   2.723   0.590  0.00  0.00    -0.322 N 
ATOM     14  C   UNL     1       1.628   4.125   0.755  0.00  0.00    +0.123 C 
ATOM     15  C   UNL     1       2.584   4.881   1.716  0.00  0.00    +0.068 C 
ATOM     16  C   UNL     1       2.166   6.340   1.865  0.00  0.00    +0.025 C 
ATOM     17  N   UNL     1       2.596   4.251   3.058  0.00  0.00    -0.311 NA
ATOM     18  H   UNL     1       3.265   4.734   3.655  0.00  0.00    +0.122 HD
ATOM     19  C   UNL     1       2.996   2.839   2.930  0.00  0.00    +0.100 C 
ATOM     20  C   UNL     1       2.174   2.032   1.902  0.00  0.00    +0.120 C 
ENDBRANCH   2  13
BRANCH  11  21
ATOM     21  C   UNL     1       3.824  -2.047  -1.180  0.00  0.00    +0.088 C 
ATOM     22  C   UNL     1       3.859  -3.519  -1.533  0.00  0.00    +0.027 C 
ATOM     23  C   UNL     1       2.556  -2.792  -1.527  0.00  0.00    +0.027 C 
ENDBRANCH  11  21
BRANCH   1  25
ATOM     24  C   UNL     1       0.883   0.020  -0.118  0.00  0.00    +0.277 C 
ATOM     25  O   UNL     1       2.311  -0.081  -0.090  0.00  0.00    -0.491 OA
ENDBRANCH   1  25
BRANCH   9  26
ATOM     26  C   UNL     1       6.842  -0.898  -4.802  0.00  0.00    +0.342 C 
ATOM     27  O   UNL     1       7.186  -2.074  -4.845  0.00  0.00    -0.245 OA
BRANCH  26  28
ATOM     28  O   UNL     1       7.355   0.030  -5.627  0.00  0.00    -0.477 OA
ATOM     29  H   UNL     1       6.986   0.935  -5.495  0.00  0.00    +0.295 HD
ENDBRANCH  26  28
ENDBRANCH   9  26
TORSDOF 5
