REMARK  Name = 
REMARK  9 active torsions:
REMARK  status: ('A' for Active; 'I' for Inactive)
REMARK    1  A    between atoms: C_2  and  C_4
REMARK    2  A    between atoms: N_6  and  C_9
REMARK    3  A    between atoms: C_12  and  C_14
REMARK    4  A    between atoms: C_14  and  O_15
REMARK    5  A    between atoms: O_15  and  P_16
REMARK    6  A    between atoms: P_16  and  O_17
REMARK    7  A    between atoms: P_16  and  O_18
REMARK    8  A    between atoms: C_20  and  O_22
REMARK    9  A    between atoms: C_23  and  O_25
REMARK                            x       y       z     vdW  Elec       q    Type
REMARK                         _______ _______ _______ _____ _____    ______ ____
ROOT
ATOM      1  C   UNL     1       3.710   4.253  -2.384  0.00  0.00    +0.270 C 
ATOM      2  C   UNL     1       4.992   4.860  -1.802  0.00  0.00    +0.196 C 
ATOM      3  C   UNL     1       4.588   6.273  -1.366  0.00  0.00    +0.178 C 
ATOM      4  C   UNL     1       3.101   6.368  -1.740  0.00  0.00    +0.178 C 
ATOM      5  O   UNL     1       2.621   5.019  -1.819  0.00  0.00    -0.344 OA
ENDROOT
BRANCH   1   9
ATOM      6  C   UNL     1       3.818   4.933  -5.824  0.00  0.00    +0.236 A 
ATOM      7  N   UNL     1       2.977   3.838  -5.874  0.00  0.00    -0.211 NA
ATOM      8  C   UNL     1       2.865   3.471  -4.621  0.00  0.00    +0.223 A 
ATOM      9  N   UNL     1       3.608   4.295  -3.835  0.00  0.00    -0.220 N 
ATOM     10  N   UNL     1       4.224   5.239  -4.573  0.00  0.00    -0.142 NA
BRANCH   6  14
ATOM     11  N   UNL     1       5.127   6.725  -6.729  0.00  0.00    -0.323 N 
ATOM     12  H   UNL     1       5.456   6.844  -5.777  0.00  0.00    +0.145 HD
ATOM     13  H   UNL     1       5.501   7.273  -7.483  0.00  0.00    +0.145 HD
ATOM     14  C   UNL     1       4.237   5.713  -7.007  0.00  0.00    +0.281 C 
ATOM     15  O   UNL     1       3.868   5.505  -8.157  0.00  0.00    -0.267 OA
ENDBRANCH   6  14
ENDBRANCH   1   9
BRANCH   2  16
ATOM     16  O   UNL     1       5.419   4.096  -0.654  0.00  0.00    -0.385 OA
ATOM     17  H   UNL     1       4.721   4.126   0.023  0.00  0.00    +0.210 HD
ENDBRANCH   2  16
BRANCH   3  18
ATOM     18  O   UNL     1       5.371   7.257  -2.035  0.00  0.00    -0.386 OA
ATOM     19  H   UNL     1       5.123   8.127  -1.671  0.00  0.00    +0.210 HD
ENDBRANCH   3  18
BRANCH   4  20
ATOM     20  C   UNL     1       2.280   7.164  -0.734  0.00  0.00    +0.206 C 
BRANCH  20  21
ATOM     21  O   UNL     1       2.697   8.512  -0.799  0.00  0.00    -0.284 OA
BRANCH  21  22
ATOM     22  P   UNL     1       2.263   9.482   0.390  0.00  0.00    +0.472 P 
ATOM     23  O   UNL     1       0.805   9.585   0.667  0.00  0.00    -0.228 OA
BRANCH  22  24
ATOM     24  O   UNL     1       2.986  10.853   0.023  0.00  0.00    -0.303 OA
ATOM     25  H   UNL     1       2.605  11.249  -0.784  0.00  0.00    +0.222 HD
ENDBRANCH  22  24
BRANCH  22  26
ATOM     26  O   UNL     1       3.109   8.928   1.624  0.00  0.00    -0.303 OA
ATOM     27  H   UNL     1       2.567   8.924   2.435  0.00  0.00    +0.222 HD
ENDBRANCH  22  26
ENDBRANCH  21  22
ENDBRANCH  20  21
ENDBRANCH   4  20
TORSDOF 9
