REMARK  Name = 
REMARK  10 active torsions:
REMARK  status: ('A' for Active; 'I' for Inactive)
REMARK    1  A    between atoms: C_1  and  C_2
REMARK    2  A    between atoms: C_5  and  O_14
REMARK    3  A    between atoms: C_8  and  N_10
REMARK    4  A    between atoms: C_11  and  O_13
REMARK    5  A    between atoms: O_14  and  C_15
REMARK    6  A    between atoms: C_18  and  O_19
REMARK    7  A    between atoms: C_18  and  C_39
REMARK    8  A    between atoms: C_23  and  O_24
REMARK    9  A    between atoms: C_37  and  O_38
REMARK   10  A    between atoms: C_39  and  C_40
REMARK                            x       y       z     vdW  Elec       q    Type
REMARK                         _______ _______ _______ _____ _____    ______ ____
ROOT
ATOM      1  C   UNL     1       0.469  -1.965  -3.133  0.00  0.00    +0.158 C 
ATOM      2  C   UNL     1      -1.057  -2.023  -3.060  0.00  0.00    +0.030 A 
ATOM      3  C   UNL     1      -1.708  -2.605  -1.949  0.00  0.00    +0.134 A 
ATOM      4  C   UNL     1      -3.110  -2.544  -1.793  0.00  0.00    +0.078 A 
ATOM      5  C   UNL     1      -3.876  -1.876  -2.748  0.00  0.00    +0.078 A 
ATOM      6  C   UNL     1      -3.250  -1.286  -3.857  0.00  0.00    +0.132 A 
ATOM      7  C   UNL     1      -5.343  -1.743  -2.585  0.00  0.00    +0.198 C 
ATOM      8  O   UNL     1      -5.987  -1.057  -3.379  0.00  0.00    -0.286 OA
ATOM      9  C   UNL     1      -6.018  -2.431  -1.487  0.00  0.00    +0.033 A 
ATOM     10  C   UNL     1      -5.273  -3.123  -0.536  0.00  0.00    +0.033 A 
ATOM     11  C   UNL     1      -5.928  -3.776   0.516  0.00  0.00    +0.012 A 
ATOM     12  C   UNL     1      -7.316  -3.743   0.607  0.00  0.00    +0.001 A 
ATOM     13  C   UNL     1      -8.061  -3.056  -0.344  0.00  0.00    +0.001 A 
ATOM     14  C   UNL     1      -7.420  -2.395  -1.388  0.00  0.00    +0.012 A 
ATOM     15  C   UNL     1      -3.800  -3.170  -0.626  0.00  0.00    +0.198 C 
ATOM     16  O   UNL     1      -3.200  -3.742   0.273  0.00  0.00    -0.286 OA
ATOM     17  C   UNL     1      -1.858  -1.374  -4.040  0.00  0.00    +0.007 A 
ATOM     18  C   UNL     1      -1.265  -0.651  -5.248  0.00  0.00    +0.082 C 
ATOM     19  C   UNL     1       0.243  -0.837  -5.392  0.00  0.00    +0.130 C 
ATOM     20  C   UNL     1       0.872  -0.748  -3.985  0.00  0.00    +0.079 C 
ENDROOT
BRANCH  19  21
ATOM     21  C   UNL     1       0.840   0.221  -6.337  0.00  0.00    +0.162 C 
ATOM     22  O   UNL     1       1.511   1.169  -5.924  0.00  0.00    -0.295 OA
ATOM     23  C   UNL     1       0.555   0.066  -7.817  0.00  0.00    +0.089 C 
ENDBRANCH  19  21
BRANCH   6  24
ATOM     24  O   UNL     1      -3.951  -0.566  -4.795  0.00  0.00    -0.506 OA
ATOM     25  H   UNL     1      -4.892  -0.500  -4.511  0.00  0.00    +0.292 HD
ENDBRANCH   6  24
BRANCH   3  26
ATOM     26  O   UNL     1      -0.982  -3.191  -0.944  0.00  0.00    -0.506 OA
ATOM     27  H   UNL     1      -0.074  -3.456  -1.179  0.00  0.00    +0.292 HD
ENDBRANCH   3  26
BRANCH  19  28
ATOM     28  O   UNL     1       0.494  -2.095  -6.037  0.00  0.00    -0.381 OA
ATOM     29  H   UNL     1       0.572  -2.778  -5.344  0.00  0.00    +0.211 HD
ENDBRANCH  19  28
BRANCH   1  30
ATOM     30  O   UNL     1       1.111  -3.098  -3.756  0.00  0.00    -0.343 OA
BRANCH  30  36
ATOM     31  C   UNL     1       3.335  -4.379  -0.176  0.00  0.00    +0.041 C 
ATOM     32  C   UNL     1       2.985  -4.164  -1.651  0.00  0.00    +0.148 C 
ATOM     33  C   UNL     1       3.834  -5.090  -2.553  0.00  0.00    +0.160 C 
ATOM     34  C   UNL     1       3.263  -5.223  -3.975  0.00  0.00    +0.087 C 
ATOM     35  C   UNL     1       1.750  -5.435  -3.929  0.00  0.00    +0.082 C 
ATOM     36  C   UNL     1       1.052  -4.359  -3.093  0.00  0.00    +0.253 C 
ATOM     37  O   UNL     1       1.558  -4.329  -1.766  0.00  0.00    -0.346 OA
BRANCH  34  38
ATOM     38  N   UNL     1       3.921  -6.371  -4.648  0.00  0.00    -0.325 NA
ATOM     39  H   UNL     1       3.346  -6.706  -5.422  0.00  0.00    +0.119 HD
ATOM     40  H   UNL     1       4.801  -6.061  -5.065  0.00  0.00    +0.119 HD
ENDBRANCH  34  38
BRANCH  33  41
ATOM     41  O   UNL     1       3.951  -6.410  -1.994  0.00  0.00    -0.388 OA
ATOM     42  H   UNL     1       4.241  -6.963  -2.752  0.00  0.00    +0.210 HD
ENDBRANCH  33  41
ENDBRANCH  30  36
ENDBRANCH   1  30
TORSDOF 8
