REMARK  Name = 
REMARK  6 active torsions:
REMARK  status: ('A' for Active; 'I' for Inactive)
REMARK    1  A    between atoms: C_1  and  C_2
REMARK    2  A    between atoms: C_2  and  C_4
REMARK    3  A    between atoms: C_2  and  C_6
REMARK    4  A    between atoms: C_4  and  S_5
REMARK    5  A    between atoms: C_12  and  C_14
REMARK    6  A    between atoms: C_14  and  O_15
REMARK                            x       y       z     vdW  Elec       q    Type
REMARK                         _______ _______ _______ _____ _____    ______ ____
ROOT
ATOM      1  C   UNL     1       3.302  -1.163   1.037  0.00  0.00    +0.220 C 
ATOM      2  N   UNL     1       4.658  -1.352   1.094  0.00  0.00    -0.288 N 
ATOM      3  C   UNL     1       5.264  -2.703   1.115  0.00  0.00    +0.184 C 
ATOM      4  C   UNL     1       6.737  -2.465   0.747  0.00  0.00    +0.035 C 
ATOM      5  C   UNL     1       6.852  -0.981   0.406  0.00  0.00    +0.021 C 
ATOM      6  C   UNL     1       5.692  -0.335   1.136  0.00  0.00    +0.109 C 
ATOM      7  O   UNL     1       2.569  -2.148   1.163  0.00  0.00    -0.275 OA
ENDROOT
BRANCH   1   9
ATOM      8  C   UNL     1       1.331   0.282   1.488  0.00  0.00    +0.018 C 
ATOM      9  C   UNL     1       2.732   0.242   0.863  0.00  0.00    +0.082 C 
BRANCH   9  10
ATOM     10  C   UNL     1       2.728   0.594  -0.631  0.00  0.00    +0.078 C 
BRANCH  10  11
ATOM     11  S   UNL     1       2.105   2.273  -0.986  0.00  0.00    -0.178 S 
ATOM     12  H   UNL     1       0.808   2.019  -0.749  0.00  0.00    +0.102 HD
ENDBRANCH  10  11
ENDBRANCH   9  10
ENDBRANCH   1   9
BRANCH   3  13
ATOM     13  C   UNL     1       5.157  -3.458   2.460  0.00  0.00    +0.325 C 
ATOM     14  O   UNL     1       5.973  -4.290   2.841  0.00  0.00    -0.249 OA
BRANCH  13  15
ATOM     15  O   UNL     1       4.031  -3.209   3.164  0.00  0.00    -0.479 OA
ATOM     16  H   UNL     1       3.355  -2.754   2.614  0.00  0.00    +0.295 HD
ENDBRANCH  13  15
ENDBRANCH   3  13
TORSDOF 5
