REMARK  Name = 
REMARK  15 active torsions:
REMARK  status: ('A' for Active; 'I' for Inactive)
REMARK    1  A    between atoms: C_4  and  C_5
REMARK    2  A    between atoms: C_4  and  C_6
REMARK    3  A    between atoms: C_7  and  C_26
REMARK    4  A    between atoms: C_12  and  N_14
REMARK    5  A    between atoms: C_15  and  C_17
REMARK    6  A    between atoms: C_17  and  N_19
REMARK    7  A    between atoms: C_17  and  C_20
REMARK    8  A    between atoms: C_26  and  O_28
REMARK    9  A    between atoms: O_28  and  C_29
REMARK   10  A    between atoms: C_29  and  C_30
REMARK   11  A    between atoms: C_29  and  O_31
REMARK   12  A    between atoms: O_31  and  C_32
REMARK   13  A    between atoms: C_32  and  O_34
REMARK   14  A    between atoms: O_34  and  C_35
REMARK   15  A    between atoms: C_35  and  C_36
REMARK                            x       y       z     vdW  Elec       q    Type
REMARK                         _______ _______ _______ _____ _____    ______ ____
ROOT
ATOM      1  C   UNL     1       8.082  -2.368   2.371  0.00  0.00    +0.165 C 
ATOM      2  C   UNL     1       7.561  -1.287   3.356  0.00  0.00    +0.190 C 
ATOM      3  C   UNL     1       8.222  -0.289   2.380  0.00  0.00    +0.240 C 
ATOM      4  O   UNL     1       8.148   0.896   2.136  0.00  0.00    -0.273 OA
ATOM      5  N   UNL     1       8.806  -1.297   1.667  0.00  0.00    -0.271 N 
ATOM      6  C   UNL     1       8.774  -1.332   0.207  0.00  0.00    +0.201 C 
ATOM      7  C   UNL     1       7.363  -1.820  -0.193  0.00  0.00    +0.042 C 
ATOM      8  C   UNL     1       6.318  -0.682  -0.143  0.00  0.00    +0.025 C 
ATOM      9  C   UNL     1       7.254  -2.454  -1.582  0.00  0.00    +0.025 C 
ATOM     10  S   UNL     1       6.896  -3.042   1.118  0.00  0.00    -0.127 S 
ENDROOT
BRANCH   2  11
ATOM     11  N   UNL     1       6.095  -1.200   3.528  0.00  0.00    -0.300 N 
ATOM     12  H   UNL     1       5.500  -0.663   2.898  0.00  0.00    +0.150 HD
ATOM     13  C   UNL     1       5.416  -2.078   4.348  0.00  0.00    +0.235 C 
ATOM     14  O   UNL     1       5.997  -2.901   5.053  0.00  0.00    -0.274 OA
BRANCH  13  15
ATOM     15  C   UNL     1       3.879  -1.923   4.307  0.00  0.00    +0.168 C 
BRANCH  15  16
ATOM     16  C   UNL     1       3.378  -0.980   5.382  0.00  0.00    -0.022 A 
ATOM     17  C   UNL     1       3.706   0.387   5.368  0.00  0.00    +0.005 A 
ATOM     18  C   UNL     1       3.232   1.246   6.360  0.00  0.00    +0.000 A 
ATOM     19  C   UNL     1       2.421   0.753   7.379  0.00  0.00    +0.000 A 
ATOM     20  C   UNL     1       2.087  -0.599   7.408  0.00  0.00    +0.000 A 
ATOM     21  C   UNL     1       2.564  -1.463   6.418  0.00  0.00    +0.005 A 
ENDBRANCH  15  16
BRANCH  15  22
ATOM     22  N   UNL     1       3.454  -1.461   2.959  0.00  0.00    -0.316 NA
ATOM     23  H   UNL     1       3.629  -2.224   2.302  0.00  0.00    +0.119 HD
ATOM     24  H   UNL     1       2.437  -1.360   2.987  0.00  0.00    +0.119 HD
ENDBRANCH  15  22
ENDBRANCH  13  15
ENDBRANCH   2  11
BRANCH   6  25
ATOM     25  C   UNL     1       9.962  -2.169  -0.315  0.00  0.00    +0.332 C 
ATOM     26  O   UNL     1      10.227  -2.304  -1.504  0.00  0.00    -0.249 OA
BRANCH  25  27
ATOM     27  O   UNL     1      10.778  -2.593   0.694  0.00  0.00    -0.424 OA
BRANCH  27  28
ATOM     28  C   UNL     1      12.162  -2.284   0.481  0.00  0.00    +0.370 C 
ATOM     29  C   UNL     1      12.365  -0.859   0.992  0.00  0.00    +0.101 C 
BRANCH  28  30
ATOM     30  O   UNL     1      13.020  -3.098   1.284  0.00  0.00    -0.394 OA
BRANCH  30  31
ATOM     31  C   UNL     1      13.259  -4.328   0.782  0.00  0.00    +0.513 C 
ATOM     32  O   UNL     1      12.810  -4.782  -0.256  0.00  0.00    -0.203 OA
BRANCH  31  33
ATOM     33  O   UNL     1      14.052  -4.987   1.664  0.00  0.00    -0.434 OA
BRANCH  33  34
ATOM     34  C   UNL     1      14.126  -6.406   1.477  0.00  0.00    +0.232 C 
ATOM     35  C   UNL     1      12.984  -7.039   2.250  0.00  0.00    +0.048 C 
ENDBRANCH  33  34
ENDBRANCH  31  33
ENDBRANCH  30  31
ENDBRANCH  28  30
ENDBRANCH  27  28
ENDBRANCH  25  27
ENDBRANCH   6  25
TORSDOF 11
