REMARK  Name = 
REMARK  6 active torsions:
REMARK  status: ('A' for Active; 'I' for Inactive)
REMARK    1  A    between atoms: C_1  and  C_2
REMARK    2  A    between atoms: C_3  and  N_4
REMARK    3  A    between atoms: C_3  and  C_5
REMARK    4  A    between atoms: C_5  and  C_6
REMARK    5  A    between atoms: C_6  and  C_7
REMARK    6  A    between atoms: C_7  and  O_8
REMARK                            x       y       z     vdW  Elec       q    Type
REMARK                         _______ _______ _______ _____ _____    ______ ____
ROOT
ATOM      1  C   UNL     1       1.059  -0.009   0.098  0.00  0.00    +0.037 C 
ATOM      2  C   UNL     1       2.542   0.191   0.077  0.00  0.00    -0.012 C 
ATOM      3  C   UNL     1       3.217   0.895  -0.846  0.00  0.00    -0.002 C 
ENDROOT
BRANCH   3   4
ATOM      4  N   UNL     1       2.607   1.553  -1.897  0.00  0.00    -0.361 N 
ATOM      5  H   UNL     1       3.095   2.416  -2.153  0.00  0.00    +0.142 HD
ATOM      6  H   UNL     1       1.630   1.783  -1.697  0.00  0.00    +0.142 HD
ENDBRANCH   3   4
BRANCH   3   7
ATOM      7  C   UNL     1       4.735   0.908  -0.864  0.00  0.00    +0.061 C 
BRANCH   7   8
ATOM      8  C   UNL     1       5.334  -0.436  -1.266  0.00  0.00    +0.126 C 
BRANCH   8   9
ATOM      9  C   UNL     1       5.170  -0.863  -2.709  0.00  0.00    +0.305 C 
ATOM     10  O   UNL     1       6.025  -1.530  -3.281  0.00  0.00    -0.251 OA
BRANCH   9  11
ATOM     11  O   UNL     1       4.010  -0.560  -3.320  0.00  0.00    -0.481 OA
ATOM     12  H   UNL     1       3.371  -0.012  -2.811  0.00  0.00    +0.295 HD
ENDBRANCH   9  11
ENDBRANCH   8   9
ENDBRANCH   7   8
ENDBRANCH   3   7
TORSDOF 5
