REMARK  Name = 
REMARK  16 active torsions:
REMARK  status: ('A' for Active; 'I' for Inactive)
REMARK    1  A    between atoms: O_1  and  C_2
REMARK    2  A    between atoms: C_4  and  O_6
REMARK    3  A    between atoms: C_7  and  N_26
REMARK    4  A    between atoms: C_10  and  C_12
REMARK    5  A    between atoms: C_12  and  O_13
REMARK    6  A    between atoms: O_13  and  P_14
REMARK    7  A    between atoms: P_14  and  O_17
REMARK    8  A    between atoms: O_17  and  P_18
REMARK    9  A    between atoms: P_18  and  O_21
REMARK   10  A    between atoms: O_21  and  P_22
REMARK   11  A    between atoms: N_33  and  C_34
REMARK   12  A    between atoms: C_37  and  C_39
REMARK   13  A    between atoms: C_39  and  O_40
REMARK   14  A    between atoms: O_40  and  P_41
REMARK   15  A    between atoms: C_45  and  O_47
REMARK   16  A    between atoms: C_48  and  O_50
REMARK                            x       y       z     vdW  Elec       q    Type
REMARK                         _______ _______ _______ _____ _____    ______ ____
ROOT
ATOM      1  N   UNL     1     -12.665   3.141  -2.914  0.00  0.00    -0.286 N 
ATOM      2  C   UNL     1     -11.570   2.615  -2.298  0.00  0.00    +0.168 A 
ATOM      3  N   UNL     1     -11.371   1.300  -2.056  0.00  0.00    -0.218 NA
ATOM      4  C   UNL     1     -10.193   1.109  -1.539  0.00  0.00    +0.205 A 
ATOM      5  N   UNL     1      -9.259   2.086  -1.151  0.00  0.00    -0.286 N 
ATOM      6  C   UNL     1      -9.414   3.441  -1.486  0.00  0.00    +0.159 A 
ATOM      7  N   UNL     1      -8.592   4.427  -1.320  0.00  0.00    -0.281 NA
ATOM      8  H   UNL     1      -7.698   4.113  -0.954  0.00  0.00    +0.188 HD
ATOM      9  C   UNL     1     -10.721   3.681  -2.076  0.00  0.00    +0.150 A 
ATOM     10  N   UNL     1     -11.278   4.852  -2.512  0.00  0.00    -0.230 NA
ATOM     11  C   UNL     1     -12.346   4.450  -3.182  0.00  0.00    +0.203 A 
ENDROOT
BRANCH   1  15
ATOM     12  C   UNL     1     -15.810   3.783  -2.876  0.00  0.00    +0.178 C 
ATOM     13  C   UNL     1     -15.614   3.457  -4.376  0.00  0.00    +0.178 C 
ATOM     14  O   UNL     1     -14.366   2.777  -4.504  0.00  0.00    -0.346 OA
ATOM     15  C   UNL     1     -13.886   2.406  -3.212  0.00  0.00    +0.253 C 
ATOM     16  C   UNL     1     -15.035   2.666  -2.199  0.00  0.00    +0.195 C 
BRANCH  12  17
ATOM     17  O   UNL     1     -15.355   5.040  -2.369  0.00  0.00    -0.386 OA
ATOM     18  H   UNL     1     -14.926   5.541  -3.091  0.00  0.00    +0.210 HD
ENDBRANCH  12  17
BRANCH  16  19
ATOM     19  O   UNL     1     -15.902   1.516  -2.068  0.00  0.00    -0.385 OA
ATOM     20  H   UNL     1     -16.752   1.840  -1.733  0.00  0.00    +0.210 HD
ENDBRANCH  16  19
BRANCH  13  21
ATOM     21  C   UNL     1     -15.670   4.678  -5.254  0.00  0.00    +0.202 C 
BRANCH  21  22
ATOM     22  O   UNL     1     -15.734   4.442  -6.656  0.00  0.00    -0.325 OA
BRANCH  22  23
ATOM     23  P   UNL     1     -15.736   5.880  -7.566  0.00  0.00    +0.218 P 
ATOM     24  O   UNL     1     -16.467   6.747  -6.260  0.00  0.00    -0.437 OA
ATOM     25  O   UNL     1     -17.110   5.784  -8.332  0.00  0.00    -0.517 OA
BRANCH  23  26
ATOM     26  O   UNL     1     -15.004   5.013  -8.872  0.00  0.00    -0.270 OA
BRANCH  26  27
ATOM     27  P   UNL     1     -13.406   5.673  -8.934  0.00  0.00    +0.221 P 
ATOM     28  O   UNL     1     -14.067   7.251  -9.190  0.00  0.00    -0.437 OA
ATOM     29  O   UNL     1     -13.043   5.525 -10.465  0.00  0.00    -0.517 OA
BRANCH  27  30
ATOM     30  O   UNL     1     -12.745   4.095  -8.677  0.00  0.00    -0.314 OA
BRANCH  30  31
ATOM     31  P   UNL     1     -11.506   4.241  -7.587  0.00  0.00    -0.007 P 
ATOM     32  O   UNL     1     -12.170   4.906  -6.388  0.00  0.00    -0.637 OA
ATOM     33  O   UNL     1     -10.447   5.132  -8.242  0.00  0.00    -0.577 OA
ATOM     34  O   UNL     1     -10.999   2.821  -7.351  0.00  0.00    -0.577 OA
ENDBRANCH  30  31
ENDBRANCH  27  30
ENDBRANCH  26  27
ENDBRANCH  23  26
ENDBRANCH  22  23
ENDBRANCH  21  22
ENDBRANCH  13  21
ENDBRANCH   1  15
BRANCH   5  35
ATOM     35  C   UNL     1      -8.143   1.700  -0.285  0.00  0.00    +0.253 C 
ATOM     36  C   UNL     1      -8.049   2.549   1.013  0.00  0.00    +0.195 C 
ATOM     37  C   UNL     1      -8.218   1.554   2.159  0.00  0.00    +0.178 C 
ATOM     38  C   UNL     1      -8.812   0.331   1.486  0.00  0.00    +0.178 C 
ATOM     39  O   UNL     1      -8.219   0.337   0.166  0.00  0.00    -0.346 OA
BRANCH  36  40
ATOM     40  O   UNL     1      -6.764   3.202   1.126  0.00  0.00    -0.385 OA
ATOM     41  H   UNL     1      -6.254   2.593   1.707  0.00  0.00    +0.210 HD
ENDBRANCH  36  40
BRANCH  37  42
ATOM     42  O   UNL     1      -6.903   1.258   2.702  0.00  0.00    -0.386 OA
ATOM     43  H   UNL     1      -6.989   0.368   3.099  0.00  0.00    +0.210 HD
ENDBRANCH  37  42
BRANCH  38  44
ATOM     44  C   UNL     1     -10.346   0.376   1.449  0.00  0.00    +0.198 C 
BRANCH  44  45
ATOM     45  O   UNL     1     -10.857  -0.806   0.844  0.00  0.00    -0.365 OA
BRANCH  45  46
ATOM     46  P   UNL     1     -10.362  -2.269   1.623  0.00  0.00    -0.015 P 
ATOM     47  O   UNL     1      -9.919  -3.579   2.320  0.00  0.00    -0.638 OA
ATOM     48  O   UNL     1     -11.374  -2.969   0.700  0.00  0.00    -0.577 OA
ATOM     49  O   UNL     1     -10.799  -1.623   2.963  0.00  0.00    -0.577 OA
ENDBRANCH  45  46
ENDBRANCH  44  45
ENDBRANCH  38  44
ENDBRANCH   5  35
TORSDOF 16
