REMARK  Name = 
REMARK  14 active torsions:
REMARK  status: ('A' for Active; 'I' for Inactive)
REMARK    1  A    between atoms: C_2  and  C_3
REMARK    2  A    between atoms: C_4  and  C_5
REMARK    3  A    between atoms: C_5  and  C_6
REMARK    4  A    between atoms: C_6  and  C_7
REMARK    5  A    between atoms: C_7  and  O_8
REMARK    6  A    between atoms: C_17  and  C_18
REMARK    7  A    between atoms: C_20  and  C_21
REMARK    8  A    between atoms: C_31  and  C_32
REMARK    9  A    between atoms: C_33  and  C_34
REMARK   10  A    between atoms: C_36  and  C_37
REMARK   11  A    between atoms: C_38  and  C_39
REMARK   12  A    between atoms: C_39  and  C_40
REMARK   13  A    between atoms: C_40  and  C_41
REMARK   14  A    between atoms: C_41  and  O_42
REMARK                            x       y       z     vdW  Elec       q    Type
REMARK                         _______ _______ _______ _____ _____    ______ ____
ROOT
ATOM      1 FE   UNL     1       1.652   0.176   0.206  0.00  0.00    +0.000 Fe
ENDROOT
TORSDOF 0
REMARK  Name = 
REMARK  14 active torsions:
REMARK  status: ('A' for Active; 'I' for Inactive)
REMARK    1  A    between atoms: C_2  and  C_3
REMARK    2  A    between atoms: C_4  and  C_5
REMARK    3  A    between atoms: C_5  and  C_6
REMARK    4  A    between atoms: C_6  and  C_7
REMARK    5  A    between atoms: C_7  and  O_8
REMARK    6  A    between atoms: C_17  and  C_18
REMARK    7  A    between atoms: C_20  and  C_21
REMARK    8  A    between atoms: C_31  and  C_32
REMARK    9  A    between atoms: C_33  and  C_34
REMARK   10  A    between atoms: C_36  and  C_37
REMARK   11  A    between atoms: C_38  and  C_39
REMARK   12  A    between atoms: C_39  and  C_40
REMARK   13  A    between atoms: C_40  and  C_41
REMARK   14  A    between atoms: C_41  and  O_42
REMARK                            x       y       z     vdW  Elec       q    Type
REMARK                         _______ _______ _______ _____ _____    ______ ____
ROOT
ATOM      1  C   UNL     1       8.190   2.650   0.945  0.00  0.00    +0.000 C 
ATOM      2  C   UNL     1       9.637   2.519   1.309  0.00  0.00    +0.000 A 
ATOM      3  C   UNL     1      10.571   1.231   1.586  0.00  0.00    +0.000 A 
ATOM      4  N   UNL     1      11.786   1.826   1.752  0.00  0.00    -1.000 NA
ATOM      5  C   UNL     1      11.775   3.098   1.241  0.00  0.00    +0.000 A 
ATOM      6  C   UNL     1      12.744   3.747   0.548  0.00  0.00    +0.000 C 
ATOM      7  C   UNL     1      13.740   2.842  -0.009  0.00  0.00    +0.000 C 
ATOM      8  C   UNL     1      15.166   2.938   0.163  0.00  0.00    +0.000 C 
ATOM      9  C   UNL     1      15.516   1.673  -0.190  0.00  0.00    +0.000 C 
ATOM     10  C   UNL     1      16.902   1.144  -0.149  0.00  0.00    +0.000 C 
ATOM     11  C   UNL     1      14.362   0.974  -0.772  0.00  0.00    +0.000 C 
ATOM     12  C   UNL     1      14.080  -0.235  -1.274  0.00  0.00    +0.000 C 
ATOM     13  C   UNL     1      12.693  -0.736  -1.816  0.00  0.00    +0.000 A 
ATOM     14  N   UNL     1      12.604  -2.014  -2.259  0.00  0.00    -1.000 NA
ATOM     15  C   UNL     1      11.335  -2.380  -2.047  0.00  0.00    +0.000 A 
ATOM     16  C   UNL     1      10.922  -3.597  -1.221  0.00  0.00    +0.000 C 
ATOM     17  C   UNL     1      11.196  -3.339   0.079  0.00  0.00    +0.000 C 
ATOM     18  C   UNL     1      12.527  -2.870   0.496  0.00  0.00    +0.000 C 
ATOM     19  C   UNL     1      12.391  -2.437   1.765  0.00  0.00    +0.000 C 
ATOM     20  C   UNL     1      12.582  -3.815   2.568  0.00  0.00    +0.000 C 
ATOM     21  C   UNL     1      10.966  -1.783   1.548  0.00  0.00    +0.000 C 
ATOM     22  N   UNL     1      10.242  -2.677   0.869  0.00  0.00    +0.000 NA
ATOM     23  C   UNL     1      10.494  -1.274  -2.014  0.00  0.00    +0.000 A 
ATOM     24  C   UNL     1       9.028  -1.317  -1.663  0.00  0.00    +0.000 C 
ATOM     25  C   UNL     1      11.392  -0.172  -1.974  0.00  0.00    +0.000 A 
ATOM     26  N   UNL     1      13.356   1.849  -0.724  0.00  0.00    +0.000 NA
ATOM     27  C   UNL     1      10.306  -0.156   1.563  0.00  0.00    +0.000 C 
ATOM     28  C   UNL     1      10.413   3.640   1.202  0.00  0.00    +0.000 A 
ENDROOT
BRANCH  18  29
ATOM     29  C   UNL     1      13.753  -3.564  -0.064  0.00  0.00    +0.000 C 
ATOM     30  O   UNL     1      14.870  -3.502   0.440  0.00  0.00    +0.000 OA
ENDBRANCH  18  29
BRANCH  25  31
ATOM     31  C   UNL     1      10.887   1.225  -1.881  0.00  0.00    +0.000 C 
ATOM     32  C   UNL     1       9.747   1.707  -2.377  0.00  0.00    +0.000 C 
ENDBRANCH  25  31
BRANCH   8  33
ATOM     33  C   UNL     1      15.965   4.190   0.306  0.00  0.00    +0.000 C 
BRANCH  33  34
ATOM     34  C   UNL     1      15.346   5.388   1.058  0.00  0.00    +0.000 C 
BRANCH  34  35
ATOM     35  C   UNL     1      15.384   5.269   2.563  0.00  0.00    +0.000 C 
ATOM     36  O   UNL     1      16.377   5.668   3.174  0.00  0.00    +0.000 OA
BRANCH  35  37
ATOM     37  O   UNL     1      14.343   4.675   3.133  0.00  0.00    +0.000 OA
ATOM     38  H   UNL     1      13.665   4.254   2.563  0.00  0.00    +0.000 HD
ENDBRANCH  35  37
ENDBRANCH  34  35
ENDBRANCH  33  34
ENDBRANCH   8  33
BRANCH  28  39
ATOM     39  C   UNL     1      10.282   5.162   0.814  0.00  0.00    +0.000 C 
BRANCH  39  40
ATOM     40  C   UNL     1       9.149   6.207   0.606  0.00  0.00    +0.000 C 
BRANCH  40  41
ATOM     41  C   UNL     1       8.456   6.955   1.724  0.00  0.00    +0.000 C 
ATOM     42  O   UNL     1       7.616   7.805   1.498  0.00  0.00    +0.000 OA
BRANCH  41  43
ATOM     43  O   UNL     1       8.807   6.633   2.977  0.00  0.00    +0.000 OA
ATOM     44  H   UNL     1       9.500   5.954   3.052  0.00  0.00    +0.000 HD
ENDBRANCH  41  43
ENDBRANCH  40  41
ENDBRANCH  39  40
ENDBRANCH  28  39
TORSDOF 10
