REMARK  Name = 
REMARK  1 active torsions:
REMARK  status: ('A' for Active; 'I' for Inactive)
REMARK    1  A    between atoms: C_2  and  C_3
REMARK                            x       y       z     vdW  Elec       q    Type
REMARK                         _______ _______ _______ _____ _____    ______ ____
ROOT
ATOM      1  O   UNL     1       1.916  -1.583  -0.405  0.00  0.00    -0.275 OA
ATOM      2  C   UNL     1       2.529  -0.519  -0.335  0.00  0.00    +0.219 C 
ATOM      3  N   UNL     1       3.203  -0.017  -1.437  0.00  0.00    -0.290 N 
ATOM      4  C   UNL     1       3.289  -0.831  -2.674  0.00  0.00    +0.203 C 
ATOM      5  C   UNL     1       4.761  -0.977  -3.138  0.00  0.00    +0.233 C 
ATOM      6  O   UNL     1       5.238  -2.045  -3.508  0.00  0.00    -0.274 OA
ATOM      7  N   UNL     1       5.494   0.232  -3.139  0.00  0.00    -0.291 N 
ATOM      8  C   UNL     1       6.894   0.121  -2.752  0.00  0.00    +0.113 C 
ATOM      9  C   UNL     1       7.712   1.413  -2.859  0.00  0.00    +0.054 C 
ATOM     10  C   UNL     1       6.942   2.684  -2.615  0.00  0.00    -0.041 A 
ATOM     11  C   UNL     1       5.544   2.692  -2.660  0.00  0.00    -0.022 A 
ATOM     12  C   UNL     1       4.843   3.909  -2.579  0.00  0.00    +0.006 A 
ATOM     13  C   UNL     1       5.521   5.106  -2.395  0.00  0.00    +0.000 A 
ATOM     14  C   UNL     1       6.910   5.099  -2.301  0.00  0.00    +0.000 A 
ATOM     15  C   UNL     1       7.617   3.898  -2.427  0.00  0.00    +0.004 A 
ATOM     16  C   UNL     1       4.752   1.418  -2.723  0.00  0.00    +0.124 C 
ATOM     17  C   UNL     1       4.098   1.135  -1.362  0.00  0.00    +0.135 C 
ENDROOT
BRANCH   2  18
ATOM     18  C   UNL     1       2.507   0.338   0.951  0.00  0.00    +0.075 C 
ATOM     19  C   UNL     1       2.324  -0.510   2.217  0.00  0.00    +0.013 C 
ATOM     20  C   UNL     1       0.918  -1.084   2.380  0.00  0.00    +0.001 C 
ATOM     21  C   UNL     1      -0.178  -0.040   2.190  0.00  0.00    +0.000 C 
ATOM     22  C   UNL     1       0.020   0.830   0.952  0.00  0.00    +0.001 C 
ATOM     23  C   UNL     1       1.425   1.422   0.882  0.00  0.00    +0.013 C 
ENDBRANCH   2  18
TORSDOF 1
