REMARK  Name = 
REMARK  4 active torsions:
REMARK  status: ('A' for Active; 'I' for Inactive)
REMARK    1  A    between atoms: C_1  and  C_2
REMARK    2  A    between atoms: C_2  and  C_3
REMARK    3  A    between atoms: C_9  and  S_15
REMARK    4  A    between atoms: S_15  and  N_16
REMARK                            x       y       z     vdW  Elec       q    Type
REMARK                         _______ _______ _______ _____ _____    ______ ____
ROOT
ATOM      1  C   UNL     1       2.989   1.061  -1.099  0.00  0.00    +0.158 C 
ATOM      2  N   UNL     1       2.699   2.439  -0.753  0.00  0.00    -0.325 N 
ATOM      3  H   UNL     1       2.704   2.657   0.238  0.00  0.00    +0.148 HD
ATOM      4  C   UNL     1       3.274   3.427  -1.550  0.00  0.00    +0.042 A 
ATOM      5  C   UNL     1       4.288   3.135  -2.468  0.00  0.00    +0.059 A 
ATOM      6  C   UNL     1       4.757   4.100  -3.361  0.00  0.00    +0.045 A 
ATOM      7  C   UNL     1       4.212   5.391  -3.320  0.00  0.00    +0.124 A 
ATOM      8  C   UNL     1       3.256   5.722  -2.354  0.00  0.00    +0.069 A 
ATOM      9 CL   UNL     1       2.564   7.296  -2.170  0.00  0.00    -0.081 Cl
ATOM     10  C   UNL     1       4.900   1.790  -2.392  0.00  0.00    +0.247 C 
ATOM     11  O   UNL     1       5.847   1.464  -3.095  0.00  0.00    -0.270 OA
ATOM     12  C   UNL     1       2.792   4.735  -1.477  0.00  0.00    +0.045 A 
ATOM     13  N   UNL     1       4.376   0.948  -1.441  0.00  0.00    -0.293 N 
ATOM     14  H   UNL     1       4.771   0.019  -1.505  0.00  0.00    +0.151 HD
ENDROOT
BRANCH   7  15
ATOM     15  S   UNL     1       4.722   6.559  -4.536  0.00  0.00    +0.057 S 
ATOM     16  O   UNL     1       5.480   5.873  -5.558  0.00  0.00    -0.153 OA
ATOM     17  O   UNL     1       5.219   7.746  -3.884  0.00  0.00    -0.153 OA
BRANCH  15  18
ATOM     18  N   UNL     1       3.274   6.960  -5.287  0.00  0.00    -0.203 NA
ATOM     19  H   UNL     1       3.307   6.714  -6.276  0.00  0.00    +0.144 HD
ATOM     20  H   UNL     1       3.038   7.935  -5.100  0.00  0.00    +0.144 HD
ENDBRANCH  15  18
ENDBRANCH   7  15
BRANCH   1  22
ATOM     21  C   UNL     1       1.110   0.196   0.366  0.00  0.00    +0.007 C 
ATOM     22  C   UNL     1       2.602   0.132   0.056  0.00  0.00    +0.038 C 
ENDBRANCH   1  22
TORSDOF 3
