REMARK  Name = 
REMARK  9 active torsions:
REMARK  status: ('A' for Active; 'I' for Inactive)
REMARK    1  A    between atoms: N_1  and  CA_2
REMARK    2  A    between atoms: CA_2  and  C_4
REMARK    3  A    between atoms: CA_2  and  C_12
REMARK    4  A    between atoms: C_4  and  C_5
REMARK    5  A    between atoms: C_5  and  O_7
REMARK    6  A    between atoms: O_7  and  P_8
REMARK    7  A    between atoms: P_8  and  O_9
REMARK    8  A    between atoms: P_8  and  O_10
REMARK    9  A    between atoms: C_12  and  O_13
REMARK                            x       y       z     vdW  Elec       q    Type
REMARK                         _______ _______ _______ _____ _____    ______ ____
ROOT
ATOM      1  C   UNL     1       2.875  -0.511  -1.453  0.00  0.00    +0.150 C 
ENDROOT
BRANCH   1   2
ATOM      2  C   UNL     1       2.431  -1.928  -1.686  0.00  0.00    +0.317 C 
ATOM      3  O   UNL     1       2.767  -2.868  -0.974  0.00  0.00    -0.250 OA
BRANCH   2   4
ATOM      4  O   UNL     1       1.579  -2.015  -2.713  0.00  0.00    -0.371 OA
BRANCH   4   5
ATOM      5  P   UNL     1       0.702  -3.329  -2.932  0.00  0.00    +0.530 P 
ATOM      6  O   UNL     1      -0.354  -3.604  -1.923  0.00  0.00    -0.216 OA
BRANCH   5   7
ATOM      7  O   UNL     1       1.763  -4.511  -3.116  0.00  0.00    -0.293 OA
ATOM      8  H   UNL     1       2.089  -4.813  -2.246  0.00  0.00    +0.223 HD
ENDBRANCH   5   7
BRANCH   5   9
ATOM      9  O   UNL     1       0.137  -3.122  -4.412  0.00  0.00    -0.293 OA
ATOM     10  H   UNL     1      -0.632  -2.525  -4.411  0.00  0.00    +0.223 HD
ENDBRANCH   5   9
ENDBRANCH   4   5
ENDBRANCH   2   4
ENDBRANCH   1   2
BRANCH   1  11
ATOM     11  CA  UNL     1       2.343  -0.012  -0.111  0.00  0.00    +0.171 C 
BRANCH  11  12
ATOM     12  N   UNL     1       2.921  -0.735   1.063  0.00  0.00    -0.318 NA
ATOM     13  H1  UNL     1       3.035  -1.731   0.813  0.00  0.00    +0.119 HD
ATOM     14  H2  UNL     1       3.885  -0.413   1.193  0.00  0.00    +0.119 HD
ENDBRANCH  11  12
BRANCH  11  15
ATOM     15  C   UNL     1       0.810  -0.136  -0.073  0.00  0.00    +0.322 C 
ATOM     16  OXT UNL     1       0.066   0.227  -0.972  0.00  0.00    -0.249 OA
BRANCH  15  17
ATOM     17  O   UNL     1       0.383  -0.722   1.070  0.00  0.00    -0.480 OA
ATOM     18  H   UNL     1       1.193  -0.917   1.606  0.00  0.00    +0.295 HD
ENDBRANCH  15  17
ENDBRANCH  11  15
ENDBRANCH   1  11
TORSDOF 9
