REMARK  Name = 
REMARK  12 active torsions:
REMARK  status: ('A' for Active; 'I' for Inactive)
REMARK    1  A    between atoms: N_1  and  C_2
REMARK    2  A    between atoms: C_2  and  C_3
REMARK    3  A    between atoms: C_3  and  C_4
REMARK    4  A    between atoms: C_4  and  N_6
REMARK    5  A    between atoms: C_4  and  C_22
REMARK    6  A    between atoms: C_7  and  C_9
REMARK    7  A    between atoms: C_9  and  N_11
REMARK    8  A    between atoms: C_9  and  C_12
REMARK    9  A    between atoms: C_12  and  C_13
REMARK   10  A    between atoms: C_13  and  C_14
REMARK   11  A    between atoms: C_14  and  N_15
REMARK   12  A    between atoms: N_18  and  N_19
REMARK                            x       y       z     vdW  Elec       q    Type
REMARK                         _______ _______ _______ _____ _____    ______ ____
ROOT
ATOM      1  C   UNL     1       5.250   2.966  -0.150  0.00  0.00    +0.138 C 
ENDROOT
BRANCH   1   4
ATOM      2  N   UNL     1       5.713   0.601  -0.607  0.00  0.00    -0.303 N 
ATOM      3  H   UNL     1       6.543   1.004  -1.037  0.00  0.00    +0.149 HD
ATOM      4  C   UNL     1       4.821   1.490  -0.064  0.00  0.00    +0.230 C 
ATOM      5  O   UNL     1       3.754   1.158   0.445  0.00  0.00    -0.274 OA
BRANCH   2   6
ATOM      6  C   UNL     1       5.547  -0.853  -0.650  0.00  0.00    +0.160 C 
BRANCH   6   7
ATOM      7  C   UNL     1       5.592  -1.441   0.779  0.00  0.00    +0.231 C 
ATOM      8  O   UNL     1       6.520  -2.131   1.194  0.00  0.00    -0.274 OA
ATOM      9  N   UNL     1       4.538  -1.145   1.596  0.00  0.00    -0.328 N 
ATOM     10  H   UNL     1       4.628  -1.387   2.573  0.00  0.00    +0.145 HD
ATOM     11  H   UNL     1       3.943  -0.348   1.364  0.00  0.00    +0.145 HD
ENDBRANCH   6   7
BRANCH   6  12
ATOM     12  C   UNL     1       4.310  -1.320  -1.429  0.00  0.00    +0.046 C 
BRANCH  12  13
ATOM     13  C   UNL     1       4.314  -0.890  -2.897  0.00  0.00    +0.080 C 
BRANCH  13  14
ATOM     14  N   UNL     1       5.430  -1.469  -3.637  0.00  0.00    -0.330 NA
ATOM     15  H   UNL     1       5.338  -2.486  -3.658  0.00  0.00    +0.118 HD
ATOM     16  H   UNL     1       5.381  -1.168  -4.611  0.00  0.00    +0.118 HD
ENDBRANCH  13  14
ENDBRANCH  12  13
ENDBRANCH   6  12
ENDBRANCH   2   6
ENDBRANCH   1   4
BRANCH   1  17
ATOM     17  N   UNL     1       6.728   3.057  -0.092  0.00  0.00    -0.320 NA
ATOM     18  H   UNL     1       6.993   4.038   0.003  0.00  0.00    +0.119 HD
ATOM     19  H   UNL     1       7.046   2.605   0.770  0.00  0.00    +0.119 HD
ENDBRANCH   1  17
BRANCH   1  20
ATOM     20  C   UNL     1       4.775   3.608  -1.454  0.00  0.00    +0.031 C 
BRANCH  20  21
ATOM     21  C   UNL     1       3.251   3.604  -1.619  0.00  0.00    +0.039 C 
BRANCH  21  22
ATOM     22  C   UNL     1       2.862   4.321  -2.911  0.00  0.00    +0.196 C 
BRANCH  22  23
ATOM     23  N   UNL     1       1.430   4.270  -3.106  0.00  0.00    -0.272 N 
ATOM     24  H   UNL     1       0.886   4.202  -2.242  0.00  0.00    +0.258 HD
ATOM     25  C   UNL     1       0.751   4.771  -4.172  0.00  0.00    +0.440 C 
ATOM     26  N   UNL     1      -0.597   4.647  -4.227  0.00  0.00    +0.025 N 
ATOM     27  H   UNL     1      -0.985   4.915  -5.116  0.00  0.00    +0.348 HD
ATOM     28  N   UNL     1       1.327   5.281  -5.215  0.00  0.00    -0.125 NA
ATOM     29  H   UNL     1       2.339   5.298  -5.078  0.00  0.00    +0.306 HD
BRANCH  26  30
ATOM     30  N   UNL     1      -1.405   4.618  -3.164  0.00  0.00    +0.232 N 
ATOM     31  O   UNL     1      -2.602   4.645  -3.453  0.00  0.00    +0.084 OA
ATOM     32  O   UNL     1      -0.920   4.582  -2.028  0.00  0.00    -0.542 OA
ENDBRANCH  26  30
ENDBRANCH  22  23
ENDBRANCH  21  22
ENDBRANCH  20  21
ENDBRANCH   1  20
TORSDOF 12
