REMARK  Name = 
REMARK  7 active torsions:
REMARK  status: ('A' for Active; 'I' for Inactive)
REMARK    1  A    between atoms: C_1  and  N_2
REMARK    2  A    between atoms: C_3  and  C_5
REMARK    3  A    between atoms: C_5  and  N_7
REMARK    4  A    between atoms: C_5  and  C_8
REMARK    5  A    between atoms: C_8  and  C_9
REMARK    6  A    between atoms: C_8  and  C_10
REMARK    7  A    between atoms: C_8  and  C_11
REMARK                            x       y       z     vdW  Elec       q    Type
REMARK                         _______ _______ _______ _____ _____    ______ ____
ROOT
ATOM      1  C   UNL     1       4.716  -1.066   0.656  0.00  0.00    +0.143 C 
ENDROOT
BRANCH   1   5
ATOM      2  C   UNL     1       1.112  -0.258   1.637  0.00  0.00    +0.128 C 
ATOM      3  N   UNL     1       2.536  -0.439   1.601  0.00  0.00    -0.317 N 
ATOM      4  H   UNL     1       3.147   0.077   2.229  0.00  0.00    +0.148 HD
ATOM      5  C   UNL     1       3.166  -1.080   0.555  0.00  0.00    +0.230 C 
ATOM      6  O   UNL     1       2.566  -1.622  -0.367  0.00  0.00    -0.274 OA
ENDBRANCH   1   5
BRANCH   1   7
ATOM      7  C   UNL     1       5.295  -2.307   1.409  0.00  0.00    -0.014 C 
ATOM      8  C   UNL     1       4.818  -2.389   2.872  0.00  0.00    +0.012 C 
ATOM      9  C   UNL     1       6.840  -2.257   1.409  0.00  0.00    +0.012 C 
ATOM     10  C   UNL     1       4.881  -3.605   0.685  0.00  0.00    +0.012 C 
ENDBRANCH   1   7
BRANCH   1  11
ATOM     11  N   UNL     1       5.131   0.229   1.271  0.00  0.00    -0.320 NA
ATOM     12  H   UNL     1       6.146   0.306   1.206  0.00  0.00    +0.119 HD
ATOM     13  H   UNL     1       4.772   0.980   0.677  0.00  0.00    +0.119 HD
ENDBRANCH   1  11
TORSDOF 3
