REMARK  Name = 
REMARK  11 active torsions:
REMARK  status: ('A' for Active; 'I' for Inactive)
REMARK    1  A    between atoms: N_10  and  C_11
REMARK    2  A    between atoms: C_14  and  C_16
REMARK    3  A    between atoms: C_16  and  O_17
REMARK    4  A    between atoms: O_17  and  P_18
REMARK    5  A    between atoms: P_18  and  O_19
REMARK    6  A    between atoms: P_18  and  O_20
REMARK    7  A    between atoms: C_22  and  O_24
REMARK    8  A    between atoms: O_24  and  P_25
REMARK    9  A    between atoms: P_25  and  O_26
REMARK   10  A    between atoms: P_25  and  O_27
REMARK   11  A    between atoms: C_29  and  O_31
REMARK                            x       y       z     vdW  Elec       q    Type
REMARK                         _______ _______ _______ _____ _____    ______ ____
ROOT
ATOM      1  C   UNL     1       6.464  -2.948  -0.167  0.00  0.00    +0.253 C 
ATOM      2  C   UNL     1       6.520  -4.370   0.407  0.00  0.00    +0.196 C 
ATOM      3  C   UNL     1       7.824  -4.420   1.206  0.00  0.00    +0.194 C 
ATOM      4  C   UNL     1       8.353  -2.974   1.154  0.00  0.00    +0.179 C 
ATOM      5  O   UNL     1       7.221  -2.159   0.798  0.00  0.00    -0.346 OA
ENDROOT
BRANCH   1  13
ATOM      6  N   UNL     1       8.230  -3.030  -5.969  0.00  0.00    -0.341 N 
ATOM      7  H   UNL     1       8.291  -2.019  -5.935  0.00  0.00    +0.144 HD
ATOM      8  H   UNL     1       7.882  -3.450  -6.821  0.00  0.00    +0.144 HD
ATOM      9  C   UNL     1       7.633  -3.579  -4.843  0.00  0.00    +0.147 A 
ATOM     10  C   UNL     1       7.560  -2.913  -3.609  0.00  0.00    +0.147 A 
ATOM     11  N   UNL     1       7.990  -1.668  -3.195  0.00  0.00    -0.231 NA
ATOM     12  C   UNL     1       7.622  -1.586  -1.932  0.00  0.00    +0.203 A 
ATOM     13  N   UNL     1       7.006  -2.735  -1.496  0.00  0.00    -0.286 N 
ATOM     14  C   UNL     1       6.927  -3.579  -2.572  0.00  0.00    +0.167 A 
ATOM     15  N   UNL     1       6.351  -4.788  -2.637  0.00  0.00    -0.216 NA
ATOM     16  C   UNL     1       6.494  -5.345  -3.862  0.00  0.00    +0.225 A 
ATOM     17  N   UNL     1       7.068  -4.799  -4.951  0.00  0.00    -0.219 NA
ENDBRANCH   1  13
BRANCH   2  18
ATOM     18  O   UNL     1       5.409  -4.554   1.316  0.00  0.00    -0.385 OA
ATOM     19  H   UNL     1       5.420  -3.843   1.981  0.00  0.00    +0.210 HD
ENDBRANCH   2  18
BRANCH   3  20
ATOM     20  O   UNL     1       8.829  -5.270   0.681  0.00  0.00    -0.278 OA
BRANCH  20  21
ATOM     21  P   UNL     1       8.535  -6.822   0.459  0.00  0.00    +0.473 P 
ATOM     22  O   UNL     1       7.345  -7.404   1.134  0.00  0.00    -0.228 OA
BRANCH  21  23
ATOM     23  O   UNL     1       9.887  -7.539   0.911  0.00  0.00    -0.303 OA
ATOM     24  H   UNL     1       9.765  -7.971   1.779  0.00  0.00    +0.222 HD
ENDBRANCH  21  23
BRANCH  21  25
ATOM     25  O   UNL     1       8.611  -6.989  -1.121  0.00  0.00    -0.303 OA
ATOM     26  H   UNL     1       9.477  -6.696  -1.458  0.00  0.00    +0.222 HD
ENDBRANCH  21  25
ENDBRANCH  20  21
ENDBRANCH   3  20
BRANCH   4  27
ATOM     27  C   UNL     1       8.973  -2.602   2.499  0.00  0.00    +0.206 C 
BRANCH  27  28
ATOM     28  O   UNL     1       9.534  -1.270   2.591  0.00  0.00    -0.284 OA
BRANCH  28  29
ATOM     29  P   UNL     1      10.273  -0.870   4.104  0.00  0.00    +0.472 P 
ATOM     30  O   UNL     1      10.934  -0.513   5.457  0.00  0.00    -0.228 OA
BRANCH  29  31
ATOM     31  O   UNL     1      11.068  -2.294   4.062  0.00  0.00    -0.303 OA
ATOM     32  H   UNL     1      11.665  -2.283   4.837  0.00  0.00    +0.222 HD
ENDBRANCH  29  31
BRANCH  29  33
ATOM     33  O   UNL     1       8.875  -1.321   4.821  0.00  0.00    -0.303 OA
ATOM     34  H   UNL     1       8.233  -0.589   4.795  0.00  0.00    +0.222 HD
ENDBRANCH  29  33
ENDBRANCH  28  29
ENDBRANCH  27  28
ENDBRANCH   4  27
TORSDOF 11
