REMARK  Name = 
REMARK  20 active torsions:
REMARK  status: ('A' for Active; 'I' for Inactive)
REMARK    1  A    between atoms: C_1  and  O_2
REMARK    2  A    between atoms: O_2  and  C_3
REMARK    3  A    between atoms: C_8  and  C_9
REMARK    4  A    between atoms: C_16  and  O_17
REMARK    5  A    between atoms: C_18  and  C_19
REMARK    6  A    between atoms: N_20  and  N_21
REMARK    7  A    between atoms: N_24  and  C_25
REMARK    8  A    between atoms: C_32  and  C_33
REMARK    9  A    between atoms: C_37  and  C_39
REMARK   10  A    between atoms: C_40  and  O_42
REMARK   11  A    between atoms: C_43  and  C_45
REMARK   12  A    between atoms: C_46  and  O_48
REMARK   13  A    between atoms: C_49  and  C_51
REMARK   14  A    between atoms: C_52  and  O_54
REMARK   15  A    between atoms: O_54  and  C_55
REMARK   16  A    between atoms: C_55  and  C_56
REMARK   17  A    between atoms: C_58  and  C_60
REMARK   18  A    between atoms: C_61  and  O_62
REMARK   19  A    between atoms: C_64  and  O_65
REMARK   20  A    between atoms: C_66  and  C_67
REMARK                            x       y       z     vdW  Elec       q    Type
REMARK                         _______ _______ _______ _____ _____    ______ ____
ROOT
ATOM      1  C   UNL     1       8.928 -25.610  -3.829  0.00  0.00    +0.150 C 
ATOM      2  C   UNL     1       7.391 -26.696  -2.703  0.00  0.00    +0.060 C 
ATOM      3  C   UNL     1       6.954 -25.203  -2.402  0.00  0.00    +0.014 C 
ATOM      4  C   UNL     1       6.198 -28.459  -2.024  0.00  0.00    +0.187 C 
ATOM      5  C   UNL     1       5.578 -30.480  -1.465  0.00  0.00    +0.056 C 
ATOM      6  C   UNL     1       4.177 -31.719  -1.732  0.00  0.00    +0.014 C 
ATOM      7  C   UNL     1       5.328 -31.836   0.040  0.00  0.00    +0.126 C 
ATOM      8  C   UNL     1       5.446 -33.815   0.234  0.00  0.00    +0.044 C 
ATOM      9  C   UNL     1       6.030 -35.577  -0.065  0.00  0.00    +0.013 C 
ATOM     10  C   UNL     1       6.879 -33.610  -0.031  0.00  0.00    +0.126 C 
ATOM     11  C   UNL     1       7.033 -33.711  -1.577  0.00  0.00    +0.037 C 
ATOM     12  C   UNL     1       5.961 -34.186  -2.707  0.00  0.00    +0.014 C 
ATOM     13  C   UNL     1       7.484 -32.357  -1.680  0.00  0.00    -0.021 C 
ATOM     14  C   UNL     1       8.579 -32.118  -2.295  0.00  0.00    -0.003 C 
ATOM     15  C   UNL     1       9.181 -30.873  -2.073  0.00  0.00    +0.008 C 
ATOM     16  C   UNL     1      10.145 -30.629  -2.944  0.00  0.00    +0.012 C 
ATOM     17  C   UNL     1      10.639 -31.670  -3.872  0.00  0.00    +0.049 C 
ATOM     18  C   UNL     1      10.471 -29.232  -2.983  0.00  0.00    +0.244 C 
ATOM     19  O   UNL     1       9.645 -28.394  -2.635  0.00  0.00    -0.270 OA
ATOM     20  N   UNL     1      11.716 -28.969  -3.394  0.00  0.00    -0.278 N 
ATOM     21  H   UNL     1      12.198 -29.663  -3.962  0.00  0.00    +0.155 HD
ATOM     22  C   UNL     1      12.370 -27.750  -3.254  0.00  0.00    +0.089 A 
ATOM     23  C   UNL     1      12.035 -26.827  -2.242  0.00  0.00    +0.150 A 
ATOM     24  C   UNL     1      12.745 -25.649  -2.045  0.00  0.00    +0.071 A 
ATOM     25  C   UNL     1      12.272 -24.639  -1.110  0.00  0.00    +0.135 A 
ATOM     26  C   UNL     1      12.895 -23.432  -0.931  0.00  0.00    +0.034 A 
ATOM     27  C   UNL     1      12.326 -22.257  -0.197  0.00  0.00    +0.051 C 
ATOM     28  C   UNL     1      13.991 -23.269  -1.724  0.00  0.00    +0.144 A 
ATOM     29  C   UNL     1      14.503 -24.234  -2.625  0.00  0.00    +0.079 A 
ATOM     30  C   UNL     1      15.084 -23.434  -3.681  0.00  0.00    +0.250 C 
ATOM     31  O   UNL     1      15.769 -23.805  -4.627  0.00  0.00    -0.284 OA
ATOM     32  C   UNL     1      14.600 -22.046  -3.402  0.00  0.00    +0.314 C 
ATOM     33  C   UNL     1      16.342 -21.778  -3.084  0.00  0.00    +0.114 C 
ATOM     34  O   UNL     1      13.318 -22.987  -4.277  0.00  0.00    -0.453 OA
ATOM     35  C   UNL     1      11.727 -23.363  -3.847  0.00  0.00    +0.190 C 
ATOM     36  O   UNL     1      14.243 -21.955  -2.024  0.00  0.00    -0.444 OA
ATOM     37  C   UNL     1      13.868 -25.438  -2.886  0.00  0.00    +0.046 A 
ATOM     38  C   UNL     1      14.176 -26.337  -3.955  0.00  0.00    +0.136 A 
ATOM     39  C   UNL     1      13.456 -27.513  -4.100  0.00  0.00    +0.061 A 
ATOM     40  C   UNL     1      10.675 -24.597  -3.912  0.00  0.00    +0.042 C 
ENDROOT
BRANCH   1  42
ATOM     41  C   UNL     1       9.374 -23.280  -6.017  0.00  0.00    +0.194 C 
ATOM     42  O   UNL     1       8.566 -24.676  -5.338  0.00  0.00    -0.375 OA
ENDBRANCH   1  42
BRANCH   7  43
ATOM     43  O   UNL     1       4.018 -31.736   0.888  0.00  0.00    -0.391 OA
ATOM     44  H   UNL     1       3.601 -32.631   1.013  0.00  0.00    +0.210 HD
ENDBRANCH   7  43
BRANCH  10  45
ATOM     45  O   UNL     1       7.876 -34.236   0.776  0.00  0.00    -0.391 OA
ATOM     46  H   UNL     1       8.593 -33.579   0.858  0.00  0.00    +0.210 HD
ENDBRANCH  10  45
BRANCH  23  47
ATOM     47  O   UNL     1      11.053 -27.031  -1.297  0.00  0.00    -0.504 OA
ATOM     48  H   UNL     1      10.363 -27.607  -1.675  0.00  0.00    +0.292 HD
ENDBRANCH  23  47
BRANCH  25  49
ATOM     49  O   UNL     1      11.059 -24.734  -0.468  0.00  0.00    -0.506 OA
ATOM     50  H   UNL     1      10.731 -25.634  -0.651  0.00  0.00    +0.292 HD
ENDBRANCH  25  49
BRANCH  38  51
ATOM     51  O   UNL     1      15.197 -26.157  -4.857  0.00  0.00    -0.505 OA
ATOM     52  H   UNL     1      15.446 -25.214  -4.969  0.00  0.00    +0.292 HD
ENDBRANCH  38  51
BRANCH  39  53
ATOM     53  C   UNL     1      13.944 -28.503  -5.096  0.00  0.00    +0.143 C 
ATOM     54  N   UNL     1      13.424 -29.688  -5.254  0.00  0.00    -0.192 NA
BRANCH  54  55
ATOM     55  N   UNL     1      14.082 -30.436  -6.170  0.00  0.00    -0.253 N 
ATOM     56  C   UNL     1      14.289 -29.957  -7.551  0.00  0.00    +0.141 C 
ATOM     57  C   UNL     1      13.489 -30.722  -8.619  0.00  0.00    +0.104 C 
ATOM     58  N   UNL     1      13.641 -32.188  -8.546  0.00  0.00    -0.302 NA
ATOM     59  C   UNL     1      15.019 -32.589  -8.850  0.00  0.00    +0.105 C 
ATOM     60  C   UNL     1      13.255 -32.606  -7.182  0.00  0.00    +0.104 C 
ATOM     61  C   UNL     1      14.049 -31.902  -6.063  0.00  0.00    +0.141 C 
ENDBRANCH  54  55
ENDBRANCH  39  53
BRANCH   4  62
ATOM     62  O   UNL     1       4.345 -28.481  -1.274  0.00  0.00    -0.461 OA
BRANCH  62  63
ATOM     63  C   UNL     1       3.072 -29.516  -1.474  0.00  0.00    +0.304 C 
ATOM     64  O   UNL     1       2.809 -29.850  -2.648  0.00  0.00    -0.251 OA
ATOM     65  C   UNL     1       1.891 -30.331  -0.315  0.00  0.00    +0.136 C 
ENDBRANCH  62  63
ENDBRANCH   4  62
TORSDOF 10
