REMARK  Name = 
REMARK  14 active torsions:
REMARK  status: ('A' for Active; 'I' for Inactive)
REMARK    1  A    between atoms: C_1  and  C_2
REMARK    2  A    between atoms: C_2  and  N_3
REMARK    3  A    between atoms: N_3  and  C_4
REMARK    4  A    between atoms: N_3  and  C_6
REMARK    5  A    between atoms: C_4  and  C_5
REMARK    6  A    between atoms: C_6  and  C_7
REMARK    7  A    between atoms: C_7  and  S_8
REMARK    8  A    between atoms: S_8  and  C_11
REMARK    9  A    between atoms: C_27  and  O_29
REMARK   10  A    between atoms: C_31  and  C_32
REMARK   11  A    between atoms: C_41  and  C_43
REMARK   12  A    between atoms: C_44  and  C_46
REMARK   13  A    between atoms: C_46  and  C_47
REMARK   14  A    between atoms: C_46  and  C_48
REMARK                            x       y       z     vdW  Elec       q    Type
REMARK                         _______ _______ _______ _____ _____    ______ ____
ROOT
ATOM      1  C   UNL     1       6.170  -1.909  -3.655  0.00  0.00    +0.163 C 
ATOM      2  C   UNL     1       5.768  -0.097  -3.644  0.00  0.00    +0.209 C 
ATOM      3  N   UNL     1       7.584  -0.108  -4.563  0.00  0.00    -0.281 N 
ATOM      4  C   UNL     1       9.284   0.145  -4.250  0.00  0.00    +0.269 C 
ATOM      5  C   UNL     1      10.498   0.243  -5.559  0.00  0.00    +0.164 A 
ATOM      6  N   UNL     1      10.456   1.349  -6.435  0.00  0.00    -0.208 NA
ATOM      7  C   UNL     1      11.599   1.958  -6.189  0.00  0.00    +0.203 A 
ATOM      8  C   UNL     1      11.628   3.323  -5.595  0.00  0.00    +0.170 C 
ATOM      9  C   UNL     1      10.484   3.214  -4.621  0.00  0.00    +0.145 C 
ATOM     10  C   UNL     1       9.323   4.119  -4.781  0.00  0.00    +0.110 C 
ATOM     11  C   UNL     1       8.074   3.380  -4.373  0.00  0.00    +0.145 C 
ATOM     12  C   UNL     1       7.050   4.396  -4.026  0.00  0.00    +0.007 C 
ATOM     13  C   UNL     1       5.866   4.050  -3.529  0.00  0.00    -0.052 C 
ATOM     14  C   UNL     1       4.925   5.039  -3.175  0.00  0.00    +0.000 C 
ATOM     15  C   UNL     1       3.726   4.769  -2.669  0.00  0.00    -0.008 C 
ATOM     16  C   UNL     1       2.945   5.935  -2.280  0.00  0.00    +0.132 C 
ATOM     17  N   UNL     1       2.132   5.600  -1.179  0.00  0.00    -0.308 N 
ATOM     18  H   UNL     1       1.867   4.624  -1.162  0.00  0.00    +0.149 HD
ATOM     19  C   UNL     1       1.065   6.480  -1.113  0.00  0.00    +0.237 C 
ATOM     20  C   UNL     1      -0.104   5.679  -1.475  0.00  0.00    +0.063 C 
ATOM     21  C   UNL     1      -0.335   4.728  -0.552  0.00  0.00    -0.015 C 
ATOM     22  C   UNL     1      -0.240   3.031  -0.633  0.00  0.00    +0.050 C 
ATOM     23  C   UNL     1       0.565   2.376  -2.343  0.00  0.00    +0.186 C 
ATOM     24  O   UNL     1       2.377   1.618  -2.952  0.00  0.00    -0.459 OA
ATOM     25  C   UNL     1      -1.628   3.030   0.475  0.00  0.00    +0.015 C 
ATOM     26  O   UNL     1       1.114   7.689  -1.225  0.00  0.00    -0.271 OA
ATOM     27  C   UNL     1       5.494   2.648  -3.295  0.00  0.00    +0.043 C 
ATOM     28  O   UNL     1      10.517   2.413  -3.687  0.00  0.00    -0.297 OA
ATOM     29  O   UNL     1      12.606   1.079  -5.874  0.00  0.00    -0.447 OA
ATOM     30  C   UNL     1      11.907  -0.073  -5.593  0.00  0.00    +0.230 A 
ATOM     31  O   UNL     1       9.742  -0.076  -3.170  0.00  0.00    -0.268 OA
ATOM     32  C   UNL     1       8.062  -1.464  -5.171  0.00  0.00    +0.111 C 
ATOM     33  C   UNL     1       3.775   0.503  -2.867  0.00  0.00    +0.330 C 
ATOM     34  O   UNL     1       3.627  -0.286  -1.960  0.00  0.00    -0.249 OA
ATOM     35  C   UNL     1       7.065  -2.515  -4.970  0.00  0.00    +0.047 C 
ENDROOT
BRANCH   1  36
ATOM     36  S   UNL     1       7.766  -2.838  -2.451  0.00  0.00    -0.025 S 
ATOM     37  O   UNL     1       7.546  -4.276  -2.640  0.00  0.00    -0.174 OA
ATOM     38  O   UNL     1       9.110  -2.444  -2.834  0.00  0.00    -0.174 OA
BRANCH  36  39
ATOM     39  C   UNL     1       8.038  -2.755  -0.699  0.00  0.00    +0.181 C 
BRANCH  39  40
ATOM     40  C   UNL     1       6.900  -3.431  -0.047  0.00  0.00    +0.107 C 
BRANCH  40  41
ATOM     41  N   UNL     1       6.915  -3.482   1.411  0.00  0.00    -0.301 NA
BRANCH  41  43
ATOM     42  C   UNL     1       5.248  -3.971   3.205  0.00  0.00    +0.020 C 
ATOM     43  C   UNL     1       5.563  -3.951   1.735  0.00  0.00    +0.081 C 
ENDBRANCH  41  43
BRANCH  41  44
ATOM     44  C   UNL     1       8.001  -4.298   2.001  0.00  0.00    +0.081 C 
ATOM     45  C   UNL     1       8.101  -5.763   1.572  0.00  0.00    +0.020 C 
ENDBRANCH  41  44
ENDBRANCH  40  41
ENDBRANCH  39  40
ENDBRANCH  36  39
ENDBRANCH   1  36
BRANCH  23  46
ATOM     46  C   UNL     1      -1.104   3.285  -3.181  0.00  0.00    +0.024 C 
ATOM     47  C   UNL     1      -2.841   3.069  -2.585  0.00  0.00    +0.011 C 
ATOM     48  C   UNL     1      -1.804   4.911  -3.747  0.00  0.00    +0.011 C 
ENDBRANCH  23  46
BRANCH  11  49
ATOM     49  O   UNL     1       7.564   2.552  -5.412  0.00  0.00    -0.387 OA
ATOM     50  H   UNL     1       7.349   3.076  -6.195  0.00  0.00    +0.210 HD
ENDBRANCH  11  49
TORSDOF 8
