REMARK  Name = 
REMARK  2 active torsions:
REMARK  status: ('A' for Active; 'I' for Inactive)
REMARK    1  A    between atoms: N_2  and  C_4
REMARK    2  A    between atoms: C_13  and  C_14
REMARK                            x       y       z     vdW  Elec       q    Type
REMARK                         _______ _______ _______ _____ _____    ______ ____
ROOT
ATOM      1  C   UNL     1       3.113  -0.680   1.131  0.00  0.00    +0.274 A 
ATOM      2  C   UNL     1       2.825  -2.027   1.370  0.00  0.00    +0.086 A 
ATOM      3  C   UNL     1       3.433  -2.677   2.446  0.00  0.00    +0.030 A 
ATOM      4  C   UNL     1       4.333  -2.000   3.284  0.00  0.00    +0.043 A 
ATOM      5  N   UNL     1       4.920  -2.766   4.301  0.00  0.00    -0.283 N 
ATOM      6  H   UNL     1       4.502  -3.650   4.565  0.00  0.00    +0.155 HD
ATOM      7  C   UNL     1       6.142  -2.566   4.891  0.00  0.00    +0.239 C 
ATOM      8  C   UNL     1       7.019  -1.460   4.337  0.00  0.00    +0.238 C 
ATOM      9  N   UNL     1       6.438  -0.156   4.626  0.00  0.00    -0.273 NA
ATOM     10  C   UNL     1       5.339   0.203   4.055  0.00  0.00    +0.075 C 
ATOM     11  O   UNL     1       6.525  -3.353   5.759  0.00  0.00    -0.273 OA
ATOM     12  C   UNL     1       4.578  -0.631   3.071  0.00  0.00    +0.028 A 
ATOM     13  C   UNL     1       3.993   0.017   1.967  0.00  0.00    +0.096 A 
ENDROOT
BRANCH  10  14
ATOM     14  C   UNL     1       4.796   1.551   4.438  0.00  0.00    +0.001 A 
ATOM     15  C   UNL     1       3.417   1.793   4.515  0.00  0.00    +0.010 A 
ATOM     16  C   UNL     1       2.945   3.058   4.871  0.00  0.00    +0.001 A 
ATOM     17  C   UNL     1       3.845   4.079   5.176  0.00  0.00    +0.000 A 
ATOM     18  C   UNL     1       5.217   3.838   5.129  0.00  0.00    +0.001 A 
ATOM     19  C   UNL     1       5.693   2.578   4.762  0.00  0.00    +0.010 A 
ENDBRANCH  10  14
BRANCH   1  21
ATOM     20  O   UNL     1       2.662   1.235  -0.097  0.00  0.00    -0.576 OA
ATOM     21  N   UNL     1       2.450   0.021   0.023  0.00  0.00    +0.080 N 
ATOM     22  O   UNL     1       1.710  -0.643  -0.716  0.00  0.00    +0.041 OA
ENDBRANCH   1  21
TORSDOF 2
