REMARK  Name = 
REMARK  9 active torsions:
REMARK  status: ('A' for Active; 'I' for Inactive)
REMARK    1  A    between atoms: C_1  and  O_2
REMARK    2  A    between atoms: O_2  and  C_3
REMARK    3  A    between atoms: C_4  and  C_10
REMARK    4  A    between atoms: N_12  and  C_13
REMARK    5  A    between atoms: C_13  and  C_14
REMARK    6  A    between atoms: C_14  and  C_15
REMARK    7  A    between atoms: C_18  and  S_21
REMARK    8  A    between atoms: S_21  and  N_24
REMARK    9  A    between atoms: N_27  and  C_28
REMARK                            x       y       z     vdW  Elec       q    Type
REMARK                         _______ _______ _______ _____ _____    ______ ____
ROOT
ATOM      1  C   UNL     1       1.259   7.533   0.306  0.00  0.00    -0.046 A 
ATOM      2  C   UNL     1       1.712   8.863   0.209  0.00  0.00    +0.005 A 
ATOM      3  C   UNL     1       1.113   9.890   0.954  0.00  0.00    +0.029 A 
ATOM      4  C   UNL     1       0.050   9.594   1.810  0.00  0.00    +0.109 A 
ATOM      5  C   UNL     1      -0.419   8.284   1.903  0.00  0.00    +0.029 A 
ATOM      6  C   UNL     1       0.190   7.261   1.169  0.00  0.00    +0.005 A 
ENDROOT
BRANCH   4   7
ATOM      7  S   UNL     1      -0.785  10.894   2.695  0.00  0.00    +0.076 S 
ATOM      8  O   UNL     1      -2.186  10.555   2.810  0.00  0.00    -0.150 OA
ATOM      9  O   UNL     1      -0.387  12.150   2.091  0.00  0.00    -0.150 OA
BRANCH   7  10
ATOM     10  N   UNL     1      -0.083  10.902   4.206  0.00  0.00    -0.169 N 
ATOM     11  H   UNL     1       0.414  11.756   4.416  0.00  0.00    +0.178 HD
ATOM     12  C   UNL     1      -0.188   9.860   5.109  0.00  0.00    +0.319 C 
ATOM     13  N   UNL     1       0.416  10.086   6.320  0.00  0.00    -0.295 N 
ATOM     14  H   UNL     1       0.701  11.027   6.545  0.00  0.00    +0.151 HD
ATOM     15  O   UNL     1      -0.762   8.813   4.847  0.00  0.00    -0.251 OA
BRANCH  13  16
ATOM     16  C   UNL     1       0.228   9.119   7.399  0.00  0.00    +0.074 C 
ATOM     17  C   UNL     1      -1.096   9.369   8.133  0.00  0.00    +0.022 C 
ATOM     18  C   UNL     1      -1.027  10.601   9.031  0.00  0.00    +0.002 C 
ATOM     19  C   UNL     1       0.112  10.478  10.037  0.00  0.00    +0.000 C 
ATOM     20  C   UNL     1       1.453  10.247   9.348  0.00  0.00    +0.002 C 
ATOM     21  C   UNL     1       1.413   9.077   8.368  0.00  0.00    +0.022 C 
ENDBRANCH  13  16
ENDBRANCH   7  10
ENDBRANCH   4   7
BRANCH   1  22
ATOM     22  C   UNL     1       1.941   6.463  -0.531  0.00  0.00    +0.054 C 
BRANCH  22  23
ATOM     23  C   UNL     1       1.363   5.042  -0.436  0.00  0.00    +0.109 C 
BRANCH  23  25
ATOM     24  C   UNL     1       3.181   3.391  -0.794  0.00  0.00    +0.248 C 
ATOM     25  N   UNL     1       2.074   4.081  -1.268  0.00  0.00    -0.311 N 
ATOM     26  H   UNL     1       1.783   3.990  -2.231  0.00  0.00    +0.149 HD
ATOM     27  O   UNL     1       3.609   3.558   0.342  0.00  0.00    -0.270 OA
BRANCH  24  34
ATOM     28  C   UNL     1       5.189   2.081  -1.641  0.00  0.00    +0.132 A 
ATOM     29  C   UNL     1       5.749   1.170  -2.551  0.00  0.00    +0.048 A 
ATOM     30  C   UNL     1       4.956   0.545  -3.511  0.00  0.00    +0.023 A 
ATOM     31  C   UNL     1       3.597   0.830  -3.570  0.00  0.00    +0.042 A 
ATOM     32 CL   UNL     1       2.615   0.033  -4.736  0.00  0.00    -0.084 Cl
ATOM     33  C   UNL     1       3.026   1.753  -2.693  0.00  0.00    +0.036 A 
ATOM     34  C   UNL     1       3.820   2.409  -1.734  0.00  0.00    +0.080 A 
BRANCH  28  36
ATOM     35  C   UNL     1       7.007   1.919  -0.138  0.00  0.00    +0.277 C 
ATOM     36  O   UNL     1       5.970   2.717  -0.709  0.00  0.00    -0.494 OA
ENDBRANCH  28  36
ENDBRANCH  24  34
ENDBRANCH  23  25
ENDBRANCH  22  23
ENDBRANCH   1  22
TORSDOF 8
