REMARK  Name = 
REMARK  11 active torsions:
REMARK  status: ('A' for Active; 'I' for Inactive)
REMARK    1  A    between atoms: C_1  and  C_2
REMARK    2  A    between atoms: C_2  and  N_4
REMARK    3  A    between atoms: C_2  and  C_5
REMARK    4  A    between atoms: C_5  and  N_7
REMARK    5  A    between atoms: C_5  and  C_8
REMARK    6  A    between atoms: C_8  and  C_9
REMARK    7  A    between atoms: C_9  and  C_10
REMARK    8  A    between atoms: C_10  and  C_11
REMARK    9  A    between atoms: C_11  and  C_12
REMARK   10  A    between atoms: C_12  and  C_13
REMARK   11  A    between atoms: C_13  and  O_14
REMARK                            x       y       z     vdW  Elec       q    Type
REMARK                         _______ _______ _______ _____ _____    ______ ____
ROOT
ATOM      1  C   UNL     1       2.960   0.236   1.526  0.00  0.00    +0.067 C 
ENDROOT
BRANCH   1   2
ATOM      2  N   UNL     1       2.366   1.397   2.221  0.00  0.00    -0.326 NA
ATOM      3  H   UNL     1       1.381   1.183   2.373  0.00  0.00    +0.119 HD
ATOM      4  H   UNL     1       2.762   1.472   3.156  0.00  0.00    +0.119 HD
ENDBRANCH   1   2
BRANCH   1   6
ATOM      5  C   UNL     1       2.454   1.159  -0.849  0.00  0.00    +0.025 C 
ATOM      6  C   UNL     1       2.267   0.008   0.144  0.00  0.00    +0.064 C 
BRANCH   6   7
ATOM      7  N   UNL     1       0.816  -0.200   0.349  0.00  0.00    -0.326 NA
ATOM      8  H   UNL     1       0.412   0.687   0.650  0.00  0.00    +0.119 HD
ATOM      9  H   UNL     1       0.379  -0.398  -0.551  0.00  0.00    +0.119 HD
ENDBRANCH   6   7
ENDBRANCH   1   6
BRANCH   1  10
ATOM     10  C   UNL     1       4.499   0.355   1.442  0.00  0.00    +0.020 C 
BRANCH  10  11
ATOM     11  C   UNL     1       5.145   0.321   2.837  0.00  0.00    +0.002 C 
BRANCH  11  12
ATOM     12  C   UNL     1       6.675   0.360   2.824  0.00  0.00    +0.001 C 
BRANCH  12  13
ATOM     13  C   UNL     1       7.197   0.333   4.267  0.00  0.00    +0.011 C 
BRANCH  13  14
ATOM     14  C   UNL     1       8.721   0.394   4.355  0.00  0.00    +0.120 C 
BRANCH  14  15
ATOM     15  C   UNL     1       9.187   0.363   5.795  0.00  0.00    +0.305 C 
ATOM     16  O   UNL     1       8.464   0.288   6.773  0.00  0.00    -0.251 OA
BRANCH  15  17
ATOM     17  O   UNL     1      10.537   0.426   5.901  0.00  0.00    -0.481 OA
ATOM     18  H   UNL     1      10.995   0.484   5.040  0.00  0.00    +0.295 HD
ENDBRANCH  15  17
ENDBRANCH  14  15
ENDBRANCH  13  14
ENDBRANCH  12  13
ENDBRANCH  11  12
ENDBRANCH  10  11
ENDBRANCH   1  10
TORSDOF 10
