REMARK  Name = 
REMARK  8 active torsions:
REMARK  status: ('A' for Active; 'I' for Inactive)
REMARK    1  A    between atoms: C_1  and  C_2
REMARK    2  A    between atoms: C_4  and  N_5
REMARK    3  A    between atoms: C_9  and  C_11
REMARK    4  A    between atoms: N_13  and  C_14
REMARK    5  A    between atoms: C_15  and  C_16
REMARK    6  A    between atoms: N_28  and  C_29
REMARK    7  A    between atoms: C_29  and  C_30
REMARK    8  A    between atoms: C_30  and  O_31
REMARK                            x       y       z     vdW  Elec       q    Type
REMARK                         _______ _______ _______ _____ _____    ______ ____
ROOT
ATOM      1  N   UNL     1       5.209   2.291   0.451  0.00  0.00    -0.279 N 
ATOM      2  H   UNL     1       4.566   3.048   0.254  0.00  0.00    +0.155 HD
ATOM      3  C   UNL     1       6.529   2.483   0.230  0.00  0.00    +0.164 A 
ATOM      4  S   UNL     1       7.074   4.036  -0.276  0.00  0.00    -0.047 S 
ATOM      5  C   UNL     1       8.599   3.364  -0.677  0.00  0.00    +0.095 A 
ATOM      6  C   UNL     1       8.670   2.079  -0.199  0.00  0.00    +0.133 A 
ATOM      7  N   UNL     1       7.495   1.593   0.330  0.00  0.00    -0.232 NA
ENDROOT
BRANCH   1  19
ATOM      8  C   UNL     1       1.054  -0.011   0.041  0.00  0.00    +0.088 C 
ATOM      9  C   UNL     1       2.552  -0.040   0.046  0.00  0.00    +0.130 A 
ATOM     10  N   UNL     1       3.143  -1.248  -0.043  0.00  0.00    -0.218 NA
ATOM     11  C   UNL     1       4.475  -1.291   0.102  0.00  0.00    +0.127 A 
ATOM     12  N   UNL     1       5.179  -2.498  -0.011  0.00  0.00    -0.313 N 
ATOM     13  C   UNL     1       4.375  -3.693  -0.307  0.00  0.00    +0.122 C 
ATOM     14  C   UNL     1       5.253  -4.962  -0.118  0.00  0.00    +0.103 C 
ATOM     15  N   UNL     1       6.549  -4.981  -0.861  0.00  0.00    -0.297 NA
ATOM     16  C   UNL     1       7.256  -3.713  -0.566  0.00  0.00    +0.103 C 
ATOM     17  C   UNL     1       6.427  -2.435  -0.802  0.00  0.00    +0.122 C 
ATOM     18  C   UNL     1       5.170  -0.141   0.407  0.00  0.00    +0.087 A 
ATOM     19  C   UNL     1       4.525   1.071   0.354  0.00  0.00    +0.130 A 
ATOM     20  N   UNL     1       3.197   1.134   0.189  0.00  0.00    -0.217 NA
BRANCH  15  21
ATOM     21  C   UNL     1       6.316  -5.193  -2.306  0.00  0.00    +0.112 C 
BRANCH  21  22
ATOM     22  C   UNL     1       7.609  -5.327  -3.131  0.00  0.00    +0.171 C 
BRANCH  22  23
ATOM     23  O   UNL     1       8.459  -6.329  -2.582  0.00  0.00    -0.394 OA
ATOM     24  H   UNL     1       8.423  -6.200  -1.614  0.00  0.00    +0.209 HD
ENDBRANCH  22  23
ENDBRANCH  21  22
ENDBRANCH  15  21
ENDBRANCH   1  19
BRANCH   5  25
ATOM     25  C   UNL     1       9.589   4.078  -1.461  0.00  0.00    +0.256 C 
ATOM     26  N   UNL     1       9.295   5.416  -1.639  0.00  0.00    -0.280 N 
ATOM     27  H   UNL     1       8.736   5.841  -0.908  0.00  0.00    +0.155 HD
ATOM     28  O   UNL     1      10.602   3.526  -1.888  0.00  0.00    -0.269 OA
BRANCH  26  29
ATOM     29  C   UNL     1      10.069   6.258  -2.455  0.00  0.00    +0.055 A 
ATOM     30  C   UNL     1      10.275   5.959  -3.820  0.00  0.00    +0.062 A 
ATOM     31 CL   UNL     1       9.431   4.677  -4.628  0.00  0.00    -0.082 Cl
ATOM     32  C   UNL     1      11.059   6.798  -4.611  0.00  0.00    +0.022 A 
ATOM     33  C   UNL     1      11.627   7.941  -4.056  0.00  0.00    +0.002 A 
ATOM     34  C   UNL     1      11.384   8.267  -2.722  0.00  0.00    +0.005 A 
ATOM     35  C   UNL     1      10.595   7.442  -1.905  0.00  0.00    -0.028 A 
ATOM     36  C   UNL     1      10.383   7.865  -0.476  0.00  0.00    +0.046 C 
ENDBRANCH  26  29
ENDBRANCH   5  25
TORSDOF 6
