REMARK  Name = 
REMARK  3 active torsions:
REMARK  status: ('A' for Active; 'I' for Inactive)
REMARK    1  A    between atoms: N_1  and  S_2
REMARK    2  A    between atoms: S_2  and  C_5
REMARK    3  A    between atoms: C_11  and  C_18
REMARK                            x       y       z     vdW  Elec       q    Type
REMARK                         _______ _______ _______ _____ _____    ______ ____
ROOT
ATOM      1  C   UNL     1       3.194  -1.624   0.642  0.00  0.00    +0.125 A 
ATOM      2  C   UNL     1       4.236  -1.646   1.577  0.00  0.00    +0.060 A 
ATOM      3  C   UNL     1       4.643  -2.868   2.123  0.00  0.00    +0.128 A 
ATOM      4  C   UNL     1       4.050  -4.080   1.769  0.00  0.00    +0.057 A 
ATOM      5  N   UNL     1       4.348  -5.295   2.390  0.00  0.00    -0.324 N 
ATOM      6  H   UNL     1       4.103  -6.105   1.819  0.00  0.00    +0.148 HD
ATOM      7  C   UNL     1       5.649  -5.444   3.043  0.00  0.00    +0.192 C 
ATOM      8  N   UNL     1       5.770  -4.377   4.045  0.00  0.00    -0.167 NA
ATOM      9  H   UNL     1       6.596  -4.516   4.633  0.00  0.00    +0.150 HD
ATOM     10  C   UNL     1       2.992  -4.028   0.848  0.00  0.00    +0.047 A 
ATOM     11  S   UNL     1       5.926  -2.872   3.319  0.00  0.00    +0.062 S 
ATOM     12  O   UNL     1       7.184  -2.892   2.608  0.00  0.00    -0.153 OA
ATOM     13  O   UNL     1       5.635  -1.882   4.328  0.00  0.00    -0.153 OA
ATOM     14  C   UNL     1       2.573  -2.818   0.270  0.00  0.00    +0.069 A 
ATOM     15 CL   UNL     1       1.293  -2.921  -0.886  0.00  0.00    -0.081 Cl
ENDROOT
BRANCH   1  16
ATOM     16  S   UNL     1       2.637  -0.063   0.035  0.00  0.00    +0.057 S 
ATOM     17  O   UNL     1       1.218   0.055   0.267  0.00  0.00    -0.153 OA
ATOM     18  O   UNL     1       3.568   0.958   0.461  0.00  0.00    -0.153 OA
BRANCH  16  19
ATOM     19  N   UNL     1       2.862  -0.179  -1.623  0.00  0.00    -0.203 NA
ATOM     20  H   UNL     1       1.956  -0.249  -2.091  0.00  0.00    +0.144 HD
ATOM     21  H   UNL     1       3.428   0.606  -1.947  0.00  0.00    +0.144 HD
ENDBRANCH  16  19
ENDBRANCH   1  16
BRANCH   7  22
ATOM     22  C   UNL     1       5.776  -6.840   3.732  0.00  0.00    +0.207 C 
ATOM     23 CL   UNL     1       7.374  -7.011   4.523  0.00  0.00    -0.101 Cl
ATOM     24 CL   UNL     1       5.574  -8.162   2.542  0.00  0.00    -0.101 Cl
ENDBRANCH   7  22
TORSDOF 3
