REMARK  Name = 
REMARK  8 active torsions:
REMARK  status: ('A' for Active; 'I' for Inactive)
REMARK    1  A    between atoms: N_1  and  C_2
REMARK    2  A    between atoms: C_2  and  C_4
REMARK    3  A    between atoms: C_2  and  C_16
REMARK    4  A    between atoms: C_4  and  O_5
REMARK    5  A    between atoms: O_5  and  S_6
REMARK    6  A    between atoms: S_6  and  C_9
REMARK    7  A    between atoms: C_9  and  C_10
REMARK    8  A    between atoms: C_16  and  O_17
REMARK                            x       y       z     vdW  Elec       q    Type
REMARK                         _______ _______ _______ _____ _____    ______ ____
ROOT
ATOM      1  O   UNK     1       2.646  -2.528  -0.057  0.00  0.00    -0.236 OA
ENDROOT
BRANCH   1   2
ATOM      2  S   UNK     1       3.183  -3.825  -0.906  0.00  0.00    +0.086 S 
ATOM      3  O   UNK     1       4.630  -3.801  -0.816  0.00  0.00    -0.147 OA
ATOM      4  O   UNK     1       2.498  -3.818  -2.183  0.00  0.00    -0.147 OA
BRANCH   2   5
ATOM      5  C   UNK     1       2.529  -5.144   0.133  0.00  0.00    +0.233 C 
BRANCH   5   6
ATOM      6  C   UNK     1       2.902  -6.462  -0.504  0.00  0.00    -0.024 A 
ATOM      7  C   UNK     1       2.079  -7.035  -1.486  0.00  0.00    +0.005 A 
ATOM      8  C   UNK     1       2.459  -8.213  -2.136  0.00  0.00    +0.000 A 
ATOM      9  C   UNK     1       3.664  -8.832  -1.813  0.00  0.00    +0.000 A 
ATOM     10  C   UNK     1       4.486  -8.280  -0.833  0.00  0.00    +0.000 A 
ATOM     11  C   UNK     1       4.107  -7.102  -0.180  0.00  0.00    +0.005 A 
ENDBRANCH   5   6
ENDBRANCH   2   5
ENDBRANCH   1   2
BRANCH   1  12
ATOM     12  C   UNK     1       2.838  -1.265  -0.705  0.00  0.00    +0.223 C 
BRANCH  12  13
ATOM     13  C   UNK     1       2.321  -0.097   0.139  0.00  0.00    +0.189 C 
BRANCH  13  14
ATOM     14  N   UNK     1       2.956  -0.025   1.495  0.00  0.00    -0.317 NA
ATOM     15  H   UNK     1       3.153  -0.988   1.793  0.00  0.00    +0.119 HD
ATOM     16  H   UNK     1       3.887   0.387   1.375  0.00  0.00    +0.119 HD
ENDBRANCH  13  14
BRANCH  13  17
ATOM     17  C   UNK     1       0.800  -0.188   0.304  0.00  0.00    +0.324 C 
ATOM     18  O   UNK     1       0.001  -0.368  -0.600  0.00  0.00    -0.249 OA
BRANCH  17  19
ATOM     19  O   UNK     1       0.434  -0.006   1.601  0.00  0.00    -0.479 OA
ATOM     20  H   UNK     1       1.276   0.155   2.097  0.00  0.00    +0.295 HD
ENDBRANCH  17  19
ENDBRANCH  13  17
ENDBRANCH  12  13
ENDBRANCH   1  12
TORSDOF 8
