REMARK  Name = 
REMARK  10 active torsions:
REMARK  status: ('A' for Active; 'I' for Inactive)
REMARK    1  A    between atoms: O_1  and  S_2
REMARK    2  A    between atoms: S_2  and  C_4
REMARK    3  A    between atoms: C_4  and  N_5
REMARK    4  A    between atoms: N_5  and  C_6
REMARK    5  A    between atoms: C_9  and  S_12
REMARK    6  A    between atoms: S_12  and  C_15
REMARK    7  A    between atoms: C_18  and  N_19
REMARK    8  A    between atoms: N_19  and  C_20
REMARK    9  A    between atoms: C_20  and  S_21
REMARK   10  A    between atoms: S_21  and  O_22
REMARK                            x       y       z     vdW  Elec       q    Type
REMARK                         _______ _______ _______ _____ _____    ______ ____
ROOT
ATOM      1  S   UNL     1       7.834  -4.595   5.033  0.00  0.00    +0.025 S 
ATOM      2  O   UNL     1       7.519  -4.073   6.353  0.00  0.00    -0.164 OA
ATOM      3  O   UNL     1       9.209  -4.693   4.587  0.00  0.00    -0.164 OA
ENDROOT
BRANCH   1   7
ATOM      4  C   UNL     1       5.740  -1.797   2.026  0.00  0.00    +0.028 A 
ATOM      5  C   UNL     1       5.317  -1.861   3.363  0.00  0.00    +0.025 A 
ATOM      6  C   UNL     1       5.914  -2.739   4.279  0.00  0.00    +0.029 A 
ATOM      7  C   UNL     1       6.974  -3.548   3.866  0.00  0.00    +0.094 A 
ATOM      8  C   UNL     1       7.449  -3.456   2.556  0.00  0.00    +0.029 A 
ATOM      9  C   UNL     1       6.831  -2.588   1.647  0.00  0.00    +0.025 A 
BRANCH   4  10
ATOM     10  N   UNL     1       5.141  -0.840   1.188  0.00  0.00    -0.325 N 
ATOM     11  H   UNL     1       5.547   0.079   1.381  0.00  0.00    +0.148 HD
BRANCH  10  12
ATOM     12  C   UNL     1       5.177  -1.090  -0.254  0.00  0.00    +0.278 C 
BRANCH  12  13
ATOM     13  S   UNL     1       4.362   0.326  -1.107  0.00  0.00    +0.012 S 
ATOM     14  O   UNL     1       4.553   0.156  -2.584  0.00  0.00    -0.165 OA
BRANCH  13  15
ATOM     15  O   UNL     1       5.490   1.392  -0.677  0.00  0.00    -0.268 OA
ATOM     16  H   UNL     1       5.763   1.851  -1.508  0.00  0.00    +0.243 HD
ENDBRANCH  13  15
ENDBRANCH  12  13
ENDBRANCH  10  12
ENDBRANCH   4  10
ENDBRANCH   1   7
BRANCH   1  17
ATOM     17  C   UNL     1       7.170  -6.246   4.962  0.00  0.00    +0.094 A 
ATOM     18  C   UNL     1       7.145  -7.022   6.123  0.00  0.00    +0.029 A 
ATOM     19  C   UNL     1       6.574  -8.303   6.095  0.00  0.00    +0.025 A 
ATOM     20  C   UNL     1       6.051  -8.840   4.907  0.00  0.00    +0.028 A 
ATOM     21  C   UNL     1       6.077  -8.032   3.762  0.00  0.00    +0.025 A 
ATOM     22  C   UNL     1       6.645  -6.752   3.777  0.00  0.00    +0.029 A 
BRANCH  20  23
ATOM     23  N   UNL     1       5.398 -10.096   4.945  0.00  0.00    -0.325 N 
ATOM     24  H   UNL     1       5.758 -10.633   5.737  0.00  0.00    +0.148 HD
BRANCH  23  25
ATOM     25  C   UNL     1       5.493 -10.881   3.703  0.00  0.00    +0.278 C 
BRANCH  25  26
ATOM     26  S   UNL     1       4.567 -12.450   3.972  0.00  0.00    +0.012 S 
ATOM     27  O   UNL     1       4.393 -13.101   2.634  0.00  0.00    -0.165 OA
BRANCH  26  28
ATOM     28  O   UNL     1       3.179 -11.711   4.325  0.00  0.00    -0.268 OA
ATOM     29  H   UNL     1       3.373 -10.875   4.821  0.00  0.00    +0.243 HD
ENDBRANCH  26  28
ENDBRANCH  25  26
ENDBRANCH  23  25
ENDBRANCH  20  23
ENDBRANCH   1  17
TORSDOF 10
