REMARK  Name = 
REMARK  11 active torsions:
REMARK  status: ('A' for Active; 'I' for Inactive)
REMARK    1  A    between atoms: C_1  and  S_2
REMARK    2  A    between atoms: S_2  and  C_5
REMARK    3  A    between atoms: C_5  and  C_6
REMARK    4  A    between atoms: C_6  and  N_7
REMARK    5  A    between atoms: N_7  and  C_8
REMARK    6  A    between atoms: C_8  and  C_9
REMARK    7  A    between atoms: C_12  and  C_14
REMARK    8  A    between atoms: N_24  and  C_25
REMARK    9  A    between atoms: C_29  and  O_30
REMARK   10  A    between atoms: O_30  and  C_31
REMARK   11  A    between atoms: C_31  and  C_32
REMARK                            x       y       z     vdW  Elec       q    Type
REMARK                         _______ _______ _______ _____ _____    ______ ____
ROOT
ATOM      1  C   UNL     1       9.560   6.986  -2.175  0.00  0.00    +0.018 A 
ATOM      2  C   UNL     1       9.458   8.373  -2.303  0.00  0.00    +0.013 A 
ATOM      3  C   UNL     1      10.493   9.115  -2.875  0.00  0.00    +0.029 A 
ATOM      4  C   UNL     1      11.644   8.512  -3.350  0.00  0.00    +0.076 A 
ATOM      5  N   UNL     1      12.586   9.299  -3.872  0.00  0.00    -0.235 NA
ATOM      6  C   UNL     1      13.689   8.696  -4.314  0.00  0.00    +0.223 A 
ATOM      7  N   UNL     1      13.927   7.386  -4.282  0.00  0.00    -0.220 NA
ATOM      8  C   UNL     1      12.979   6.597  -3.737  0.00  0.00    +0.134 A 
ATOM      9  N   UNL     1      13.249   5.201  -3.652  0.00  0.00    -0.299 N 
ATOM     10  H   UNL     1      12.618   4.694  -4.263  0.00  0.00    +0.154 HD
ATOM     11  C   UNL     1      11.769   7.118  -3.249  0.00  0.00    +0.041 A 
ATOM     12  C   UNL     1      10.724   6.366  -2.648  0.00  0.00    +0.025 A 
ENDROOT
BRANCH   9  13
ATOM     13  C   UNL     1      14.552   4.651  -3.604  0.00  0.00    +0.034 A 
ATOM     14  C   UNL     1      14.835   3.377  -4.094  0.00  0.00    +0.027 A 
ATOM     15  C   UNL     1      16.139   2.857  -4.003  0.00  0.00    +0.049 A 
ATOM     16  C   UNL     1      17.181   3.591  -3.409  0.00  0.00    +0.139 A 
ATOM     17  C   UNL     1      16.897   4.874  -2.931  0.00  0.00    +0.084 A 
ATOM     18 CL   UNL     1      18.048   6.013  -2.316  0.00  0.00    -0.080 Cl
ATOM     19  C   UNL     1      15.587   5.354  -2.983  0.00  0.00    +0.047 A 
BRANCH  16  20
ATOM     20  O   UNL     1      18.378   2.921  -3.391  0.00  0.00    -0.486 OA
BRANCH  20  21
ATOM     21  C   UNL     1      19.304   3.305  -2.376  0.00  0.00    +0.264 C 
BRANCH  21  22
ATOM     22  C   UNL     1      20.270   2.184  -2.105  0.00  0.00    -0.008 A 
ATOM     23  C   UNL     1      19.927   1.159  -1.211  0.00  0.00    +0.007 A 
ATOM     24  C   UNL     1      20.834   0.138  -0.925  0.00  0.00    +0.003 A 
ATOM     25  C   UNL     1      22.087   0.131  -1.538  0.00  0.00    +0.038 A 
ATOM     26  C   UNL     1      22.423   1.145  -2.427  0.00  0.00    +0.124 A 
ATOM     27  F   UNL     1      23.630   1.142  -3.007  0.00  0.00    -0.205 F 
ATOM     28  C   UNL     1      21.529   2.168  -2.718  0.00  0.00    +0.045 A 
ENDBRANCH  21  22
ENDBRANCH  20  21
ENDBRANCH  16  20
ENDBRANCH   9  13
BRANCH   1  31
ATOM     29  C   UNL     1       6.511   6.031  -0.597  0.00  0.00    +0.119 A 
ATOM     30  O   UNL     1       7.385   6.914  -1.156  0.00  0.00    -0.458 OA
ATOM     31  C   UNL     1       8.488   6.209  -1.558  0.00  0.00    +0.135 A 
ATOM     32  C   UNL     1       8.303   4.872  -1.265  0.00  0.00    +0.050 A 
ATOM     33  C   UNL     1       7.030   4.756  -0.657  0.00  0.00    +0.046 A 
BRANCH  29  34
ATOM     34  C   UNL     1       5.225   6.581  -0.089  0.00  0.00    +0.156 C 
BRANCH  34  35
ATOM     35  N   UNL     1       5.048   6.248   1.326  0.00  0.00    -0.308 NA
ATOM     36  H   UNL     1       5.169   5.247   1.468  0.00  0.00    +0.122 HD
BRANCH  35  37
ATOM     37  C   UNL     1       3.763   6.695   1.877  0.00  0.00    +0.104 C 
BRANCH  37  38
ATOM     38  C   UNL     1       2.562   6.002   1.249  0.00  0.00    +0.180 C 
BRANCH  38  40
ATOM     39  C   UNL     1      -0.171   5.637   1.064  0.00  0.00    +0.194 C 
ATOM     40  S   UNL     1       1.042   6.530   2.006  0.00  0.00    -0.033 S 
ATOM     41  O   UNL     1       1.012   6.023   3.363  0.00  0.00    -0.175 OA
ATOM     42  O   UNL     1       0.865   7.941   1.723  0.00  0.00    -0.175 OA
ENDBRANCH  38  40
ENDBRANCH  37  38
ENDBRANCH  35  37
ENDBRANCH  34  35
ENDBRANCH  29  34
ENDBRANCH   1  31
TORSDOF 10
