REMARK  Name = 
REMARK  10 active torsions:
REMARK  status: ('A' for Active; 'I' for Inactive)
REMARK    1  A    between atoms: C_2  and  C_4
REMARK    2  A    between atoms: C_5  and  N_6
REMARK    3  A    between atoms: N_7  and  C_10
REMARK    4  A    between atoms: C_13  and  C_15
REMARK    5  A    between atoms: C_15  and  O_16
REMARK    6  A    between atoms: O_16  and  P_17
REMARK    7  A    between atoms: P_17  and  O_18
REMARK    8  A    between atoms: P_17  and  O_19
REMARK    9  A    between atoms: C_21  and  O_23
REMARK   10  A    between atoms: C_24  and  O_26
REMARK                            x       y       z     vdW  Elec       q    Type
REMARK                         _______ _______ _______ _____ _____    ______ ____
ROOT
ATOM      1  C   UNL     1       3.505   4.648  -1.688  0.00  0.00    +0.253 C 
ATOM      2  C   UNL     1       4.834   5.347  -1.351  0.00  0.00    +0.195 C 
ATOM      3  C   UNL     1       4.439   6.589  -0.548  0.00  0.00    +0.178 C 
ATOM      4  C   UNL     1       2.913   6.561  -0.538  0.00  0.00    +0.178 C 
ATOM      5  O   UNL     1       2.540   5.187  -0.752  0.00  0.00    -0.346 OA
ENDROOT
BRANCH   1   9
ATOM      6  C   UNL     1       2.155   5.506  -4.951  0.00  0.00    +0.164 A 
ATOM      7  N   UNL     1       3.360   4.901  -5.286  0.00  0.00    -0.229 NA
ATOM      8  C   UNL     1       3.860   4.476  -4.150  0.00  0.00    +0.203 A 
ATOM      9  N   UNL     1       3.079   4.835  -3.076  0.00  0.00    -0.289 N 
ATOM     10  C   UNL     1       1.921   5.382  -3.584  0.00  0.00    +0.131 A 
BRANCH   6  14
ATOM     11  N   UNL     1       1.779   6.119  -7.202  0.00  0.00    -0.324 N 
ATOM     12  H   UNL     1       2.667   5.664  -7.373  0.00  0.00    +0.145 HD
ATOM     13  H   UNL     1       1.262   6.562  -7.945  0.00  0.00    +0.145 HD
ATOM     14  C   UNL     1       1.287   6.153  -5.927  0.00  0.00    +0.263 C 
ATOM     15  O   UNL     1       0.216   6.693  -5.667  0.00  0.00    -0.269 OA
ENDBRANCH   6  14
BRANCH  10  16
ATOM     16  N   UNL     1       0.860   5.720  -2.828  0.00  0.00    -0.343 N 
ATOM     17  H   UNL     1       0.732   5.354  -1.884  0.00  0.00    +0.144 HD
ATOM     18  H   UNL     1       0.006   6.036  -3.288  0.00  0.00    +0.144 HD
ENDBRANCH  10  16
ENDBRANCH   1   9
BRANCH   2  19
ATOM     19  O   UNL     1       5.667   4.481  -0.555  0.00  0.00    -0.385 OA
ATOM     20  H   UNL     1       5.193   4.268   0.267  0.00  0.00    +0.210 HD
ENDBRANCH   2  19
BRANCH   3  21
ATOM     21  O   UNL     1       4.951   7.768  -1.165  0.00  0.00    -0.386 OA
ATOM     22  H   UNL     1       4.463   8.534  -0.808  0.00  0.00    +0.210 HD
ENDBRANCH   3  21
BRANCH   4  23
ATOM     23  C   UNL     1       2.296   7.063   0.764  0.00  0.00    +0.206 C 
BRANCH  23  24
ATOM     24  O   UNL     1       2.648   8.422   0.989  0.00  0.00    -0.284 OA
BRANCH  24  25
ATOM     25  P   UNL     1       1.964   9.095   2.429  0.00  0.00    +0.472 P 
ATOM     26  O   UNL     1       1.352   9.696   3.718  0.00  0.00    -0.228 OA
BRANCH  25  27
ATOM     27  O   UNL     1       0.561   9.190   1.599  0.00  0.00    -0.303 OA
ATOM     28  H   UNL     1      -0.122   9.517   2.214  0.00  0.00    +0.222 HD
ENDBRANCH  25  27
BRANCH  25  29
ATOM     29  O   UNL     1       2.638  10.503   1.942  0.00  0.00    -0.303 OA
ATOM     30  H   UNL     1       3.558  10.587   2.248  0.00  0.00    +0.222 HD
ENDBRANCH  25  29
ENDBRANCH  24  25
ENDBRANCH  23  24
ENDBRANCH   4  23
TORSDOF 10
