REMARK  Name = 
REMARK  3 active torsions:
REMARK  status: ('A' for Active; 'I' for Inactive)
REMARK    1  A    between atoms: O_1  and  C_2
REMARK    2  A    between atoms: C_6  and  C_9
REMARK    3  A    between atoms: C_7  and  O_8
REMARK                            x       y       z     vdW  Elec       q    Type
REMARK                         _______ _______ _______ _____ _____    ______ ____
ROOT
ATOM      1  C   UNL     1       2.261   0.173  -0.022  0.00  0.00    +0.159 A 
ATOM      2  C   UNL     1       2.960  -1.041  -0.101  0.00  0.00    +0.166 A 
ATOM      3  C   UNL     1       4.352  -1.120   0.150  0.00  0.00    +0.029 A 
ATOM      4  C   UNL     1       4.969   0.085   0.542  0.00  0.00    +0.012 A 
ATOM      5  C   UNL     1       4.283   1.309   0.565  0.00  0.00    +0.004 A 
ATOM      6  C   UNL     1       2.925   1.354   0.274  0.00  0.00    +0.049 A 
ENDROOT
BRANCH   3   7
ATOM      7  C   UNL     1       5.150  -2.382   0.005  0.00  0.00    +0.004 A 
ATOM      8  C   UNL     1       4.612  -3.608   0.460  0.00  0.00    +0.010 A 
ATOM      9  C   UNL     1       5.255  -4.835   0.247  0.00  0.00    +0.001 A 
ATOM     10  C   UNL     1       6.496  -4.874  -0.372  0.00  0.00    +0.001 A 
ATOM     11  C   UNL     1       7.089  -3.683  -0.777  0.00  0.00    +0.020 A 
ATOM     12  C   UNL     1       6.424  -2.457  -0.612  0.00  0.00    +0.049 A 
ATOM     13 CL   UNL     1       7.252  -1.089  -1.290  0.00  0.00    -0.083 Cl
ENDBRANCH   3   7
BRANCH   1  14
ATOM     14  O   UNL     1       0.916   0.188  -0.278  0.00  0.00    -0.503 OA
ATOM     15  H   UNL     1       0.575   1.081  -0.121  0.00  0.00    +0.292 HD
ENDBRANCH   1  14
BRANCH   2  16
ATOM     16  O   UNL     1       2.215  -2.138  -0.458  0.00  0.00    -0.503 OA
ATOM     17  H   UNL     1       2.761  -2.679  -1.038  0.00  0.00    +0.292 HD
ENDBRANCH   2  16
TORSDOF 3
