REMARK  Name = 
REMARK  6 active torsions:
REMARK  status: ('A' for Active; 'I' for Inactive)
REMARK    1  A    between atoms: CG2_1  and  CB_2
REMARK    2  A    between atoms: CB_2  and  OG1_4
REMARK    3  A    between atoms: CB_2  and  CA_5
REMARK    4  A    between atoms: CA_5  and  N_7
REMARK    5  A    between atoms: CA_5  and  C_8
REMARK    6  A    between atoms: C_8  and  O_9
REMARK                            x       y       z     vdW  Elec       q    Type
REMARK                         _______ _______ _______ _____ _____    ______ ____
ROOT
ATOM      1  CA  THR A   1       3.020   1.400   0.297  0.00  0.00    +0.105 C 
ENDROOT
BRANCH   1   2
ATOM      2  N   THR A   1       2.550   1.821   1.639  0.00  0.00    -0.323 NA
ATOM      3  H1  THR A   1       1.537   1.961   1.554  0.00  0.00    +0.119 HD
ATOM      4  H2  THR A   1       2.650   1.030   2.275  0.00  0.00    +0.119 HD
ENDBRANCH   1   2
BRANCH   1   6
ATOM      5  CG2 THR A   1       2.865   3.781  -0.712  0.00  0.00    +0.039 C 
ATOM      6  CB  THR A   1       2.462   2.313  -0.825  0.00  0.00    +0.130 C 
BRANCH   6   7
ATOM      7  OG1 THR A   1       1.028   2.231  -0.804  0.00  0.00    -0.390 OA
ATOM      8  HG1 THR A   1       0.694   2.814  -1.508  0.00  0.00    +0.210 HD
ENDBRANCH   6   7
ENDBRANCH   1   6
BRANCH   1   9
ATOM      9  C   THR A   1       4.554   1.317   0.269  0.00  0.00    +0.176 C 
BRANCH   9  10
ATOM     10  O   THR A   1       5.020   0.396   1.254  0.00  0.00    -0.393 OA
ATOM     11  H   THR A   1       4.797   0.805   2.110  0.00  0.00    +0.209 HD
ENDBRANCH   9  10
ENDBRANCH   1   9
TORSDOF 5
