REMARK  Name = 
REMARK  9 active torsions:
REMARK  status: ('A' for Active; 'I' for Inactive)
REMARK    1  A    between atoms: C_5  and  C_6
REMARK    2  A    between atoms: C_6  and  S_7
REMARK    3  A    between atoms: S_7  and  C_8
REMARK    4  A    between atoms: C_11  and  C_12
REMARK    5  A    between atoms: CA_14  and  C_29
REMARK    6  A    between atoms: CA_18  and  N_20
REMARK    7  A    between atoms: C_21  and  C_23
REMARK    8  A    between atoms: C_23  and  N_24
REMARK    9  A    between atoms: C_29  and  O_30
REMARK                            x       y       z     vdW  Elec       q    Type
REMARK                         _______ _______ _______ _____ _____    ______ ____
ROOT
ATOM      1  C   UNL     1       2.095  -0.008   0.078  0.00  0.00    +0.169 C 
ATOM      2  CA  UNL     1       2.791  -1.389  -0.151  0.00  0.00    +0.191 C 
ATOM      3  C   UNL     1       3.462  -0.664  -1.363  0.00  0.00    +0.244 C 
ATOM      4  O   UNL     1       4.290  -0.922  -2.205  0.00  0.00    -0.273 OA
ATOM      5  N   UNL     1       2.947   0.520  -0.973  0.00  0.00    -0.249 N 
ATOM      6  CA  UNL     1       3.130   1.847  -1.251  0.00  0.00    +0.123 C 
ATOM      7  C   UNL     1       2.733   2.804  -0.359  0.00  0.00    -0.021 C 
ATOM      8  C   UNL     1       2.035   2.467   0.952  0.00  0.00    +0.104 C 
ATOM      9  S   UNL     1       2.470   0.845   1.618  0.00  0.00    -0.131 S 
ENDROOT
BRANCH   2  10
ATOM     10  N   UNL     1       3.767  -1.860   0.886  0.00  0.00    -0.300 N 
ATOM     11  H   UNL     1       4.713  -1.488   0.854  0.00  0.00    +0.150 HD
ATOM     12  C   UNL     1       3.326  -2.437   2.058  0.00  0.00    +0.235 C 
ATOM     13  O   UNL     1       2.148  -2.744   2.231  0.00  0.00    -0.274 OA
BRANCH  12  14
ATOM     14  C   UNL     1       4.391  -2.674   3.102  0.00  0.00    +0.242 C 
BRANCH  14  15
ATOM     15  N   UNL     1       4.110  -1.952   4.315  0.00  0.00    -0.223 N 
ATOM     16  N   UNL     1       4.991  -1.066   4.809  0.00  0.00    -0.044 NA
ATOM     17  N   UNL     1       4.466  -0.665   5.959  0.00  0.00    -0.023 NA
ATOM     18  N   UNL     1       3.273  -1.303   6.204  0.00  0.00    -0.117 NA
ATOM     19  C   UNL     1       3.071  -2.096   5.178  0.00  0.00    +0.245 A 
ENDBRANCH  14  15
ENDBRANCH  12  14
ENDBRANCH   2  10
BRANCH   6  20
ATOM     20  C   UNL     1       3.716   2.258  -2.587  0.00  0.00    +0.351 C 
ATOM     21  OXT UNL     1       3.402   3.301  -3.147  0.00  0.00    -0.244 OA
BRANCH  20  22
ATOM     22  O   UNL     1       4.570   1.406  -3.181  0.00  0.00    -0.476 OA
ATOM     23  H   UNL     1       4.700   0.524  -2.769  0.00  0.00    +0.295 HD
ENDBRANCH  20  22
ENDBRANCH   6  20
BRANCH   7  24
ATOM     24  C   UNL     1       2.963   4.299  -0.614  0.00  0.00    +0.110 C 
BRANCH  24  25
ATOM     25  S   UNL     1       3.336   5.348   0.824  0.00  0.00    -0.093 S 
BRANCH  25  26
ATOM     26  C   UNL     1       4.772   4.583   1.465  0.00  0.00    +0.159 A 
ATOM     27  S   UNL     1       5.461   5.030   2.968  0.00  0.00    -0.044 S 
ATOM     28  C   UNL     1       6.575   3.741   2.749  0.00  0.00    +0.100 A 
ATOM     29  C   UNL     1       7.600   3.440   3.779  0.00  0.00    +0.075 C 
ATOM     30  N   UNL     1       6.420   3.079   1.621  0.00  0.00    -0.146 NA
ATOM     31  N   UNL     1       5.377   3.579   0.869  0.00  0.00    -0.135 NA
ENDBRANCH  25  26
ENDBRANCH  24  25
ENDBRANCH   7  24
TORSDOF 8
