REMARK  Name = 
REMARK  4 active torsions:
REMARK  status: ('A' for Active; 'I' for Inactive)
REMARK    1  A    between atoms: C_1  and  C_2
REMARK    2  A    between atoms: C_11  and  O_12
REMARK    3  A    between atoms: C_15  and  C_16
REMARK    4  A    between atoms: C_20  and  O_21
REMARK                            x       y       z     vdW  Elec       q    Type
REMARK                         _______ _______ _______ _____ _____    ______ ____
ROOT
ATOM      1  C   UNL     1       2.087  -2.025   1.387  0.00  0.00    +0.014 C 
ATOM      2  C   UNL     1       3.122  -1.032   0.761  0.00  0.00    -0.003 C 
ATOM      3  C   UNL     1       4.158  -0.575   1.805  0.00  0.00    +0.121 C 
ATOM      4  C   UNL     1       3.245   0.112   2.821  0.00  0.00    +0.032 C 
ATOM      5  C   UNL     1       2.233   0.869   1.905  0.00  0.00    +0.007 C 
ATOM      6  C   UNL     1       2.503   0.327   0.454  0.00  0.00    +0.001 C 
ATOM      7  C   UNL     1       1.362   0.172  -0.561  0.00  0.00    +0.000 C 
ATOM      8  C   UNL     1       1.076   1.427  -1.399  0.00  0.00    +0.031 C 
ATOM      9  C   UNL     1      -0.182   1.168  -2.201  0.00  0.00    -0.027 C 
ATOM     10  C   UNL     1      -0.707  -0.063  -2.427  0.00  0.00    -0.065 C 
ATOM     11  C   UNL     1       0.043  -1.382  -2.095  0.00  0.00    -0.008 C 
ATOM     12  C   UNL     1      -0.625  -2.201  -0.948  0.00  0.00    +0.016 C 
ATOM     13  C   UNL     1       0.002  -2.306  -3.359  0.00  0.00    +0.014 C 
ATOM     14  C   UNL     1      -1.441  -2.496  -3.889  0.00  0.00    +0.032 C 
ATOM     15  C   UNL     1      -2.024  -1.154  -4.294  0.00  0.00    +0.119 C 
ATOM     16  C   UNL     1      -2.041  -0.178  -3.113  0.00  0.00    +0.062 C 
ATOM     17  C   UNL     1       1.517  -0.968  -1.673  0.00  0.00    +0.003 C 
ATOM     18  C   UNL     1       2.577  -2.072  -1.461  0.00  0.00    +0.005 C 
ATOM     19  C   UNL     1       3.714  -1.608  -0.532  0.00  0.00    +0.010 C 
ENDROOT
BRANCH   3  20
ATOM     20  O   UNL     1       4.940  -1.618   2.311  0.00  0.00    -0.391 OA
ATOM     21  H   UNL     1       5.605  -1.820   1.623  0.00  0.00    +0.210 HD
ENDBRANCH   3  20
BRANCH  15  22
ATOM     22  O   UNL     1      -3.348  -1.336  -4.791  0.00  0.00    -0.391 OA
ATOM     23  H   UNL     1      -3.917  -1.598  -4.047  0.00  0.00    +0.210 HD
ENDBRANCH  15  22
TORSDOF 2
