REMARK  Name = 
REMARK  11 active torsions:
REMARK  status: ('A' for Active; 'I' for Inactive)
REMARK    1  A    between atoms: C_1  and  C_2
REMARK    2  A    between atoms: C_2  and  C_3
REMARK    3  A    between atoms: C_2  and  N_4
REMARK    4  A    between atoms: N_4  and  C_5
REMARK    5  A    between atoms: C_5  and  C_6
REMARK    6  A    between atoms: C_6  and  O_7
REMARK    7  A    between atoms: C_6  and  C_8
REMARK    8  A    between atoms: C_8  and  O_9
REMARK    9  A    between atoms: O_9  and  C_10
REMARK   10  A    between atoms: C_13  and  N_14
REMARK   11  A    between atoms: C_15  and  C_16
REMARK                            x       y       z     vdW  Elec       q    Type
REMARK                         _______ _______ _______ _____ _____    ______ ____
ROOT
ATOM      1  O   UNL     1       6.952   2.055  -3.642  0.00  0.00    -0.489 OA
ENDROOT
BRANCH   1   2
ATOM      2  C   UNL     1       8.323   2.153  -3.603  0.00  0.00    +0.121 A 
ATOM      3  C   UNL     1       8.934   2.955  -4.572  0.00  0.00    +0.047 A 
ATOM      4  C   UNL     1      10.332   3.141  -4.564  0.00  0.00    +0.027 A 
ATOM      5  C   UNL     1      11.123   2.517  -3.590  0.00  0.00    +0.034 A 
ATOM      6  C   UNL     1      10.502   1.706  -2.647  0.00  0.00    +0.027 A 
ATOM      7  C   UNL     1       9.122   1.520  -2.661  0.00  0.00    +0.047 A 
BRANCH   5   8
ATOM      8  N   UNL     1      12.515   2.759  -3.560  0.00  0.00    -0.286 N 
ATOM      9  H   UNL     1      12.871   3.456  -4.202  0.00  0.00    +0.155 HD
ATOM     10  C   UNL     1      13.434   2.096  -2.754  0.00  0.00    +0.214 C 
ATOM     11  O   UNL     1      13.232   1.091  -2.084  0.00  0.00    -0.276 OA
ATOM     12  C   UNL     1      14.802   2.716  -2.776  0.00  0.00    +0.109 C 
ENDBRANCH   5   8
ENDBRANCH   1   2
BRANCH   1  13
ATOM     13  C   UNL     1       6.387   1.322  -2.537  0.00  0.00    +0.261 C 
BRANCH  13  14
ATOM     14  C   UNL     1       4.861   1.388  -2.548  0.00  0.00    +0.166 C 
BRANCH  14  15
ATOM     15  O   UNL     1       4.347   0.824  -3.762  0.00  0.00    -0.387 OA
ATOM     16  H   UNL     1       4.885   1.194  -4.485  0.00  0.00    +0.210 HD
ENDBRANCH  14  15
BRANCH  14  17
ATOM     17  C   UNL     1       4.374   2.837  -2.386  0.00  0.00    +0.115 C 
BRANCH  17  18
ATOM     18  N   UNL     1       2.917   2.849  -2.213  0.00  0.00    -0.311 NA
ATOM     19  H   UNL     1       2.505   2.330  -2.994  0.00  0.00    +0.122 HD
BRANCH  18  21
ATOM     20  C   UNL     1       0.829   4.068  -2.085  0.00  0.00    +0.023 C 
ATOM     21  C   UNL     1       2.352   4.197  -2.135  0.00  0.00    +0.048 C 
ATOM     22  C   UNL     1       2.844   4.951  -0.897  0.00  0.00    +0.023 C 
ENDBRANCH  18  21
ENDBRANCH  17  18
ENDBRANCH  14  17
ENDBRANCH  13  14
ENDBRANCH   1  13
TORSDOF 8
