REMARK  Name = 
REMARK  9 active torsions:
REMARK  status: ('A' for Active; 'I' for Inactive)
REMARK    1  A    between atoms: C_5  and  C_6
REMARK    2  A    between atoms: C_6  and  O_7
REMARK    3  A    between atoms: O_7  and  C_8
REMARK    4  A    between atoms: C_8  and  C_9
REMARK    5  A    between atoms: CA_11  and  C_23
REMARK    6  A    between atoms: CA_15  and  N_17
REMARK    7  A    between atoms: C_18  and  C_20
REMARK    8  A    between atoms: C_20  and  C_21
REMARK    9  A    between atoms: C_23  and  O_24
REMARK                            x       y       z     vdW  Elec       q    Type
REMARK                         _______ _______ _______ _____ _____    ______ ____
ROOT
ATOM      1  C   UNL     1       2.211  -0.037   0.172  0.00  0.00    +0.169 C 
ATOM      2  CA  UNL     1       2.906  -1.431   0.020  0.00  0.00    +0.191 C 
ATOM      3  C   UNL     1       3.531  -0.784  -1.265  0.00  0.00    +0.244 C 
ATOM      4  O   UNL     1       4.237  -1.092  -2.195  0.00  0.00    -0.273 OA
ATOM      5  N   UNL     1       3.066   0.431  -0.903  0.00  0.00    -0.249 N 
ATOM      6  CA  UNL     1       3.255   1.742  -1.247  0.00  0.00    +0.125 C 
ATOM      7  C   UNL     1       2.845   2.724  -0.390  0.00  0.00    +0.006 C 
ATOM      8  C   UNL     1       2.242   2.466   0.980  0.00  0.00    +0.107 C 
ATOM      9  S   UNL     1       2.636   0.857   1.690  0.00  0.00    -0.131 S 
ENDROOT
BRANCH   2  10
ATOM     10  N   UNL     1       3.880  -1.775   1.101  0.00  0.00    -0.301 N 
ATOM     11  H   UNL     1       4.020  -1.093   1.844  0.00  0.00    +0.150 HD
ATOM     12  C   UNL     1       4.525  -2.988   1.166  0.00  0.00    +0.228 C 
ATOM     13  O   UNL     1       4.361  -3.867   0.327  0.00  0.00    -0.275 OA
BRANCH  12  14
ATOM     14  C   UNL     1       5.410  -3.163   2.379  0.00  0.00    +0.214 C 
BRANCH  14  15
ATOM     15  C   UNL     1       4.552  -3.734   3.496  0.00  0.00    +0.072 C 
ATOM     16  N   UNL     1       3.841  -4.207   4.423  0.00  0.00    -0.196 NA
ENDBRANCH  14  15
ENDBRANCH  12  14
ENDBRANCH   2  10
BRANCH   6  17
ATOM     17  C   UNL     1       3.994   2.109  -2.524  0.00  0.00    +0.351 C 
ATOM     18  OXT UNL     1       4.387   3.241  -2.772  0.00  0.00    -0.244 OA
BRANCH  17  19
ATOM     19  O   UNL     1       4.180   1.132  -3.431  0.00  0.00    -0.476 OA
ATOM     20  H   UNL     1       4.141   0.204  -3.114  0.00  0.00    +0.295 HD
ENDBRANCH  17  19
ENDBRANCH   6  17
BRANCH   7  21
ATOM     21  C   UNL     1       2.998   4.219  -0.665  0.00  0.00    +0.266 C 
BRANCH  21  22
ATOM     22  O   UNL     1       2.044   5.010   0.074  0.00  0.00    -0.460 OA
BRANCH  22  23
ATOM     23  C   UNL     1       0.821   5.147  -0.506  0.00  0.00    +0.304 C 
ATOM     24  O   UNL     1       0.455   4.580  -1.523  0.00  0.00    -0.251 OA
ATOM     25  C   UNL     1      -0.045   6.070   0.295  0.00  0.00    +0.136 C 
ENDBRANCH  22  23
ENDBRANCH  21  22
ENDBRANCH   7  21
TORSDOF 8
