REMARK  Name = 
REMARK  12 active torsions:
REMARK  status: ('A' for Active; 'I' for Inactive)
REMARK    1  A    between atoms: C_1  and  C_2
REMARK    2  A    between atoms: C_2  and  N_4
REMARK    3  A    between atoms: C_2  and  P_24
REMARK    4  A    between atoms: C_5  and  C_7
REMARK    5  A    between atoms: C_7  and  C_8
REMARK    6  A    between atoms: C_8  and  C_9
REMARK    7  A    between atoms: C_9  and  C_10
REMARK    8  A    between atoms: C_10  and  C_11
REMARK    9  A    between atoms: C_11  and  N_13
REMARK   10  A    between atoms: C_11  and  C_21
REMARK   11  A    between atoms: C_14  and  CA_16
REMARK   12  A    between atoms: CA_16  and  N_17
REMARK                            x       y       z     vdW  Elec       q    Type
REMARK                         _______ _______ _______ _____ _____    ______ ____
ROOT
ATOM      1  C   UNK A   2       2.691  -4.750   5.736  0.00  0.00    +0.028 C 
ENDROOT
BRANCH   1   2
ATOM      2  C   UNK A   2       3.156  -4.442   4.316  0.00  0.00    +0.003 C 
BRANCH   2   3
ATOM      3  C   UNK A   2       2.607  -3.098   3.817  0.00  0.00    +0.009 C 
BRANCH   3   4
ATOM      4  C   UNK A   2       3.078  -2.839   2.390  0.00  0.00    +0.096 C 
BRANCH   4   7
ATOM      5  N   UNK A   2       2.760  -0.419   2.501  0.00  0.00    -0.307 N 
ATOM      6  H   UNK A   2       2.611  -0.482   3.504  0.00  0.00    +0.149 HD
ATOM      7  C   UNK A   2       2.614  -1.548   1.736  0.00  0.00    +0.214 C 
ATOM      8  O   UNK A   2       2.320  -1.530   0.541  0.00  0.00    -0.276 OA
BRANCH   5  10
ATOM      9  C   UNK A   2       3.631   1.839   2.185  0.00  0.00    +0.034 C 
ATOM     10  C   UNK A   2       2.437   0.912   1.993  0.00  0.00    +0.115 C 
BRANCH  10  11
ATOM     11  P   UNK A   2       0.992   1.570   3.019  0.00  0.00    +0.023 P 
ATOM     12  H   UNK A   2       0.939   2.923   2.618  0.00  0.00    +0.085 HD
ATOM     13  O   UNK A   2      -0.247   0.804   2.589  0.00  0.00    -0.338 OA
ATOM     14  O   UNK A   2       1.456   1.401   4.463  0.00  0.00    -0.803 OA
ENDBRANCH  10  11
ENDBRANCH   5  10
ENDBRANCH   4   7
ENDBRANCH   3   4
ENDBRANCH   2   3
ENDBRANCH   1   2
BRANCH   1  15
ATOM     15  C   UNK A   2       3.315  -6.015   6.336  0.00  0.00    +0.119 C 
BRANCH  15  16
ATOM     16  N   UNK A   2       2.876  -6.156   7.746  0.00  0.00    -0.303 N 
ATOM     17  H   UNK A   2       2.448  -7.085   7.841  0.00  0.00    +0.150 HD
ATOM     18  C   GLY A   1       3.180  -5.358   8.808  0.00  0.00    +0.259 C 
ATOM     19  O   GLY A   1       3.932  -4.397   8.796  0.00  0.00    -0.270 OA
BRANCH  18  20
ATOM     20  CA  GLY A   1       2.332  -5.705  10.020  0.00  0.00    +0.225 C 
BRANCH  20  21
ATOM     21  N   GLY A   1       0.882  -5.630   9.663  0.00  0.00    +0.225 N 
ATOM     22  H1  GLY A   1       0.255  -5.736  10.463  0.00  0.00    +0.200 HD
ATOM     23  H2  GLY A   1       0.660  -6.344   8.948  0.00  0.00    +0.200 HD
ATOM     24  H3  GLY A   1       0.693  -4.727   9.198  0.00  0.00    +0.200 HD
ENDBRANCH  20  21
ENDBRANCH  18  20
ENDBRANCH  15  16
BRANCH  15  25
ATOM     25  C   UNK A   2       2.850  -7.331   5.601  0.00  0.00    +0.062 C 
ATOM     26  O   UNK A   2       2.053  -8.015   6.337  0.00  0.00    -0.548 OA
ATOM     27  O   UNK A   2       3.355  -7.588   4.484  0.00  0.00    -0.548 OA
ENDBRANCH  15  25
ENDBRANCH   1  15
TORSDOF 11
