REMARK  Name = 
REMARK  7 active torsions:
REMARK  status: ('A' for Active; 'I' for Inactive)
REMARK    1  A    between atoms: C_2  and  O_4
REMARK    2  A    between atoms: O_4  and  C_5
REMARK    3  A    between atoms: C_6  and  O_7
REMARK    4  A    between atoms: O_7  and  C_8
REMARK    5  A    between atoms: C_8  and  C_9
REMARK    6  A    between atoms: C_13  and  C_16
REMARK    7  A    between atoms: N_18  and  C_19
REMARK                            x       y       z     vdW  Elec       q    Type
REMARK                         _______ _______ _______ _____ _____    ______ ____
ROOT
ATOM      1  C   UNL     1       4.283   1.393   0.895  0.00  0.00    +0.168 A 
ATOM      2  C   UNL     1       5.133   0.290   1.005  0.00  0.00    +0.050 A 
ATOM      3  C   UNL     1       6.518   0.472   0.978  0.00  0.00    +0.017 A 
ATOM      4  C   UNL     1       7.058   1.757   0.855  0.00  0.00    +0.041 A 
ATOM      5  C   UNL     1       6.208   2.873   0.809  0.00  0.00    +0.062 A 
ATOM      6  C   UNL     1       4.820   2.695   0.825  0.00  0.00    +0.163 A 
ENDROOT
BRANCH   4   7
ATOM      7  C   UNL     1       8.539   1.897   0.726  0.00  0.00    +0.248 C 
ATOM      8  N   UNL     1       8.935   2.839  -0.213  0.00  0.00    -0.279 N 
ATOM      9  H   UNL     1       8.228   3.032  -0.916  0.00  0.00    +0.155 HD
ATOM     10  O   UNL     1       9.278   1.116   1.310  0.00  0.00    -0.270 OA
BRANCH   8  11
ATOM     11  C   UNL     1      10.273   2.902  -0.703  0.00  0.00    +0.074 A 
ATOM     12  C   UNL     1      11.398   3.098   0.109  0.00  0.00    +0.082 A 
ATOM     13 CL   UNL     1      11.308   3.442   1.797  0.00  0.00    -0.080 Cl
ATOM     14  C   UNL     1      12.646   3.153  -0.506  0.00  0.00    +0.132 A 
ATOM     15  N   UNL     1      12.851   3.027  -1.841  0.00  0.00    -0.260 NA
ATOM     16  C   UNL     1      11.749   2.855  -2.606  0.00  0.00    +0.132 A 
ATOM     17  C   UNL     1      10.460   2.803  -2.090  0.00  0.00    +0.082 A 
ATOM     18 CL   UNL     1       9.131   2.563  -3.170  0.00  0.00    -0.080 Cl
ENDBRANCH   8  11
ENDBRANCH   4   7
BRANCH   1  19
ATOM     19  O   UNL     1       2.914   1.289   0.877  0.00  0.00    -0.431 OA
BRANCH  19  21
ATOM     20  F   UNL     1       2.295  -0.864   1.106  0.00  0.00    -0.166 F 
ATOM     21  C   UNL     1       2.411   0.146   0.209  0.00  0.00    +0.541 C 
ATOM     22  F   UNL     1       1.155   0.436  -0.217  0.00  0.00    -0.166 F 
ENDBRANCH  19  21
ENDBRANCH   1  19
BRANCH   6  23
ATOM     23  O   UNL     1       3.904   3.714   0.798  0.00  0.00    -0.488 OA
BRANCH  23  24
ATOM     24  C   UNL     1       4.316   4.972   0.269  0.00  0.00    +0.232 C 
BRANCH  24  25
ATOM     25  C   UNL     1       3.130   5.891   0.292  0.00  0.00    +0.027 C 
ATOM     26  C   UNL     1       2.384   6.231  -0.974  0.00  0.00    +0.007 C 
ATOM     27  C   UNL     1       3.224   7.277  -0.295  0.00  0.00    +0.007 C 
ENDBRANCH  24  25
ENDBRANCH  23  24
ENDBRANCH   6  23
TORSDOF 7
