REMARK  Name = 
REMARK  6 active torsions:
REMARK  status: ('A' for Active; 'I' for Inactive)
REMARK    1  A    between atoms: O_1  and  C_2
REMARK    2  A    between atoms: N_5  and  C_6
REMARK    3  A    between atoms: C_6  and  C_7
REMARK    4  A    between atoms: C_7  and  C_8
REMARK    5  A    between atoms: C_8  and  N_9
REMARK    6  A    between atoms: C_20  and  C_23
REMARK                            x       y       z     vdW  Elec       q    Type
REMARK                         _______ _______ _______ _____ _____    ______ ____
ROOT
ATOM      1  N   UNL     1       7.202   1.226  -4.646  0.00  0.00    -0.298 N 
ATOM      2  C   UNL     1       7.969   0.709  -5.737  0.00  0.00    +0.049 A 
ATOM      3  C   UNL     1       8.454  -0.622  -5.778  0.00  0.00    +0.043 A 
ATOM      4  C   UNL     1       9.204  -1.137  -6.853  0.00  0.00    +0.054 A 
ATOM      5  C   UNL     1       9.518  -0.319  -7.926  0.00  0.00    +0.020 A 
ATOM      6  C   UNL     1       9.075   1.000  -7.918  0.00  0.00    +0.018 A 
ATOM      7  C   UNL     1       8.311   1.512  -6.846  0.00  0.00    +0.034 A 
ATOM      8  S   UNL     1       7.814   3.204  -7.044  0.00  0.00    -0.086 S 
ATOM      9  C   UNL     1       6.894   3.516  -5.563  0.00  0.00    +0.034 A 
ATOM     10  C   UNL     1       6.313   4.798  -5.476  0.00  0.00    +0.017 A 
ATOM     11  C   UNL     1       5.556   5.176  -4.373  0.00  0.00    +0.001 A 
ATOM     12  C   UNL     1       5.414   4.291  -3.322  0.00  0.00    +0.002 A 
ATOM     13  C   UNL     1       6.015   3.029  -3.392  0.00  0.00    +0.024 A 
ATOM     14  C   UNL     1       6.720   2.573  -4.534  0.00  0.00    +0.048 A 
ENDROOT
BRANCH   4  15
ATOM     15  C   UNL     1       9.645  -2.509  -6.836  0.00  0.00    +0.099 C 
ATOM     16  N   UNL     1      10.010  -3.613  -6.826  0.00  0.00    -0.191 NA
ENDBRANCH   4  15
BRANCH   1  17
ATOM     17  C   UNL     1       6.595   0.260  -3.689  0.00  0.00    +0.112 C 
BRANCH  17  18
ATOM     18  C   UNL     1       5.083   0.073  -3.890  0.00  0.00    +0.035 C 
BRANCH  18  19
ATOM     19  C   UNL     1       4.705  -0.444  -5.277  0.00  0.00    +0.086 C 
BRANCH  19  23
ATOM     20  C   UNL     1       2.988  -3.474  -6.333  0.00  0.00    +0.117 C 
ATOM     21  C   UNL     1       3.561  -2.435  -7.296  0.00  0.00    +0.046 C 
ATOM     22  C   UNL     1       5.032  -2.134  -6.990  0.00  0.00    +0.087 C 
ATOM     23  N   UNL     1       5.272  -1.765  -5.583  0.00  0.00    -0.302 NA
ATOM     24  C   UNL     1       4.798  -2.841  -4.703  0.00  0.00    +0.087 C 
ATOM     25  C   UNL     1       3.310  -3.146  -4.877  0.00  0.00    +0.046 C 
BRANCH  20  26
ATOM     26  O   UNL     1       3.531  -4.751  -6.670  0.00  0.00    -0.392 OA
ATOM     27  H   UNL     1       3.221  -5.392  -6.008  0.00  0.00    +0.210 HD
ENDBRANCH  20  26
ENDBRANCH  19  23
ENDBRANCH  18  19
ENDBRANCH  17  18
ENDBRANCH   1  17
TORSDOF 6
