REMARK  Name = 
REMARK  12 active torsions:
REMARK  status: ('A' for Active; 'I' for Inactive)
REMARK    1  A    between atoms: C_1  and  O_2
REMARK    2  A    between atoms: O_2  and  C_3
REMARK    3  A    between atoms: C_6  and  C_7
REMARK    4  A    between atoms: C_7  and  C_8
REMARK    5  A    between atoms: C_8  and  C_10
REMARK    6  A    between atoms: C_8  and  N_11
REMARK    7  A    between atoms: N_11  and  C_12
REMARK    8  A    between atoms: C_12  and  C_13
REMARK    9  A    between atoms: C_13  and  O_15
REMARK   10  A    between atoms: C_13  and  C_16
REMARK   11  A    between atoms: C_18  and  N_19
REMARK   12  A    between atoms: C_22  and  O_23
REMARK                            x       y       z     vdW  Elec       q    Type
REMARK                         _______ _______ _______ _____ _____    ______ ____
ROOT
ATOM      1  C   UNL     1       4.418  -8.131  -5.209  0.00  0.00    +0.158 C 
ENDROOT
BRANCH   1   2
ATOM      2  C   UNL     1       5.890  -8.423  -5.415  0.00  0.00    -0.016 A 
ATOM      3  C   UNL     1       6.856  -7.410  -5.351  0.00  0.00    +0.010 A 
ATOM      4  C   UNL     1       8.196  -7.698  -5.596  0.00  0.00    +0.047 A 
ATOM      5  C   UNL     1       8.577  -9.000  -5.909  0.00  0.00    +0.138 A 
ATOM      6  C   UNL     1       7.633 -10.033  -5.989  0.00  0.00    +0.075 A 
ATOM      7  C   UNL     1       6.291  -9.732  -5.740  0.00  0.00    +0.033 A 
BRANCH   6   8
ATOM      8  N   UNL     1       8.056 -11.322  -6.355  0.00  0.00    -0.285 N 
ATOM      9  H   UNL     1       8.974 -11.440  -6.766  0.00  0.00    +0.155 HD
ATOM     10  C   UNL     1       7.344 -12.484  -6.270  0.00  0.00    +0.330 C 
ATOM     11  O   UNL     1       7.798 -13.559  -6.652  0.00  0.00    -0.279 OA
ENDBRANCH   6   8
BRANCH   5  12
ATOM     12  O   UNL     1       9.914  -9.215  -6.099  0.00  0.00    -0.505 OA
ATOM     13  H   UNL     1      10.106 -10.129  -5.829  0.00  0.00    +0.292 HD
ENDBRANCH   5  12
ENDBRANCH   1   2
BRANCH   1  14
ATOM     14  O   UNL     1       4.211  -7.059  -4.285  0.00  0.00    -0.386 OA
ATOM     15  H   UNL     1       4.810  -7.222  -3.536  0.00  0.00    +0.210 HD
ENDBRANCH   1  14
BRANCH   1  16
ATOM     16  C   UNL     1       3.658  -7.846  -6.527  0.00  0.00    +0.117 C 
BRANCH  16  17
ATOM     17  N   UNL     1       4.109  -6.629  -7.226  0.00  0.00    -0.310 NA
ATOM     18  H   UNL     1       4.050  -5.846  -6.571  0.00  0.00    +0.122 HD
BRANCH  17  19
ATOM     19  C   UNL     1       3.340  -6.342  -8.454  0.00  0.00    +0.055 C 
ATOM     20  C   UNL     1       4.003  -5.141  -9.142  0.00  0.00    +0.024 C 
BRANCH  19  21
ATOM     21  C   UNL     1       1.855  -6.051  -8.153  0.00  0.00    +0.053 C 
BRANCH  21  25
ATOM     22  C   UNL     1      -1.046  -5.635 -11.296  0.00  0.00    +0.120 A 
ATOM     23  C   UNL     1      -0.858  -4.611 -10.370  0.00  0.00    +0.046 A 
ATOM     24  C   UNL     1       0.127  -4.728  -9.393  0.00  0.00    +0.007 A 
ATOM     25  C   UNL     1       0.944  -5.862  -9.340  0.00  0.00    -0.046 A 
ATOM     26  C   UNL     1       0.801  -6.852 -10.320  0.00  0.00    +0.007 A 
ATOM     27  C   UNL     1      -0.185  -6.731 -11.303  0.00  0.00    +0.046 A 
BRANCH  22  29
ATOM     28  C   UNL     1      -3.280  -5.114 -11.757  0.00  0.00    +0.277 C 
ATOM     29  O   UNL     1      -2.041  -5.632 -12.239  0.00  0.00    -0.495 OA
ENDBRANCH  22  29
ENDBRANCH  21  25
ENDBRANCH  19  21
ENDBRANCH  17  19
ENDBRANCH  16  17
ENDBRANCH   1  16
TORSDOF 10
