REMARK  Name = 
REMARK  6 active torsions:
REMARK  status: ('A' for Active; 'I' for Inactive)
REMARK    1  A    between atoms: C_2  and  C_3
REMARK    2  A    between atoms: C_2  and  C_4
REMARK    3  A    between atoms: C_2  and  C_12
REMARK    4  A    between atoms: C_4  and  C_5
REMARK    5  A    between atoms: C_10  and  O_11
REMARK    6  A    between atoms: C_12  and  O_13
REMARK                            x       y       z     vdW  Elec       q    Type
REMARK                         _______ _______ _______ _____ _____    ______ ____
ROOT
ATOM      1  C   UNL     1       1.985   2.441  -0.580  0.00  0.00    -0.005 A 
ATOM      2  C   UNL     1       2.792   2.911  -1.624  0.00  0.00    +0.120 A 
ATOM      3  C   UNL     1       2.335   3.881  -2.514  0.00  0.00    +0.045 A 
ATOM      4  C   UNL     1       1.055   4.410  -2.357  0.00  0.00    +0.004 A 
ATOM      5  C   UNL     1       0.245   3.975  -1.310  0.00  0.00    +0.000 A 
ATOM      6  C   UNL     1       0.704   2.994  -0.427  0.00  0.00    +0.007 A 
ENDROOT
BRANCH   2   7
ATOM      7  O   UNL     1       4.046   2.389  -1.768  0.00  0.00    -0.506 OA
ATOM      8  H   UNL     1       4.518   2.894  -2.450  0.00  0.00    +0.292 HD
ENDBRANCH   2   7
BRANCH   1   9
ATOM      9  C   UNL     1       2.469   1.357   0.356  0.00  0.00    +0.053 C 
BRANCH   9  10
ATOM     10  C   UNL     1       2.119  -0.074  -0.093  0.00  0.00    +0.099 C 
ATOM     11  C   UNL     1       2.698  -0.475  -1.449  0.00  0.00    +0.019 C 
BRANCH  10  12
ATOM     12  C   UNL     1       2.640  -1.050   0.947  0.00  0.00    +0.308 C 
ATOM     13  O   UNL     1       3.643  -0.886   1.624  0.00  0.00    -0.251 OA
BRANCH  12  14
ATOM     14  O   UNL     1       1.891  -2.174   1.045  0.00  0.00    -0.480 OA
ATOM     15  H   UNL     1       1.136  -2.202   0.430  0.00  0.00    +0.295 HD
ENDBRANCH  12  14
ENDBRANCH  10  12
ENDBRANCH   9  10
ENDBRANCH   1   9
TORSDOF 5
