REMARK  Name = 
REMARK  14 active torsions:
REMARK  status: ('A' for Active; 'I' for Inactive)
REMARK    1  A    between atoms: N_10  and  C_11
REMARK    2  A    between atoms: C_14  and  C_16
REMARK    3  A    between atoms: C_16  and  O_17
REMARK    4  A    between atoms: O_17  and  P_18
REMARK    5  A    between atoms: P_18  and  O_19
REMARK    6  A    between atoms: P_18  and  O_21
REMARK    7  A    between atoms: O_21  and  P_22
REMARK    8  A    between atoms: P_22  and  O_23
REMARK    9  A    between atoms: P_22  and  O_25
REMARK   10  A    between atoms: O_25  and  P_26
REMARK   11  A    between atoms: P_26  and  O_27
REMARK   12  A    between atoms: P_26  and  O_28
REMARK   13  A    between atoms: C_30  and  O_32
REMARK   14  A    between atoms: C_33  and  O_35
REMARK                            x       y       z     vdW  Elec       q    Type
REMARK                         _______ _______ _______ _____ _____    ______ ____
ROOT
ATOM      1  C   UNL     1       5.775   1.889   3.914  0.00  0.00    +0.253 C 
ATOM      2  C   UNL     1       5.546   1.242   5.288  0.00  0.00    +0.195 C 
ATOM      3  C   UNL     1       6.045  -0.197   5.127  0.00  0.00    +0.178 C 
ATOM      4  C   UNL     1       6.737  -0.202   3.762  0.00  0.00    +0.178 C 
ATOM      5  O   UNL     1       6.951   1.180   3.420  0.00  0.00    -0.346 OA
ENDROOT
BRANCH   1  13
ATOM      6  N   UNL     1       0.772   1.615   0.482  0.00  0.00    -0.341 N 
ATOM      7  H   UNL     1       1.339   1.923  -0.301  0.00  0.00    +0.144 HD
ATOM      8  H   UNL     1      -0.168   1.968   0.548  0.00  0.00    +0.144 HD
ATOM      9  C   UNL     1       1.447   1.698   1.698  0.00  0.00    +0.147 A 
ATOM     10  C   UNL     1       2.847   1.730   1.803  0.00  0.00    +0.147 A 
ATOM     11  N   UNL     1       3.847   1.706   0.856  0.00  0.00    -0.231 NA
ATOM     12  C   UNL     1       4.963   1.777   1.546  0.00  0.00    +0.203 A 
ATOM     13  N   UNL     1       4.735   1.806   2.904  0.00  0.00    -0.286 N 
ATOM     14  C   UNL     1       3.378   1.824   3.081  0.00  0.00    +0.167 A 
ATOM     15  N   UNL     1       2.691   1.917   4.229  0.00  0.00    -0.216 NA
ATOM     16  C   UNL     1       1.364   1.875   4.009  0.00  0.00    +0.225 A 
ATOM     17  N   UNL     1       0.714   1.782   2.829  0.00  0.00    -0.219 NA
ENDBRANCH   1  13
BRANCH   2  18
ATOM     18  O   UNL     1       6.370   1.907   6.274  0.00  0.00    -0.385 OA
ATOM     19  H   UNL     1       7.285   1.941   5.940  0.00  0.00    +0.210 HD
ENDBRANCH   2  18
BRANCH   3  20
ATOM     20  O   UNL     1       4.959  -1.119   5.133  0.00  0.00    -0.386 OA
ATOM     21  H   UNL     1       5.337  -2.007   5.271  0.00  0.00    +0.210 HD
ENDBRANCH   3  20
BRANCH   4  22
ATOM     22  C   UNL     1       8.041  -0.994   3.736  0.00  0.00    +0.206 C 
BRANCH  22  23
ATOM     23  O   UNL     1       7.766  -2.370   3.988  0.00  0.00    -0.284 OA
BRANCH  23  24
ATOM     24  P   UNL     1       9.040  -3.415   4.096  0.00  0.00    +0.483 P 
ATOM     25  O   UNL     1      10.307  -2.574   4.273  0.00  0.00    -0.227 OA
BRANCH  24  26
ATOM     26  O   UNL     1       8.877  -3.400   5.819  0.00  0.00    -0.302 OA
ATOM     27  H   UNL     1       9.439  -2.646   6.089  0.00  0.00    +0.222 HD
ENDBRANCH  24  26
BRANCH  24  28
ATOM     28  O   UNL     1       9.202  -3.429   2.374  0.00  0.00    -0.186 OA
BRANCH  28  29
ATOM     29  P   UNL     1       8.295  -4.749   1.720  0.00  0.00    +0.490 P 
ATOM     30  O   UNL     1       8.768  -5.660   2.851  0.00  0.00    -0.227 OA
BRANCH  29  31
ATOM     31  O   UNL     1       9.460  -4.830   0.585  0.00  0.00    -0.302 OA
ATOM     32  H   UNL     1      10.216  -5.362   0.926  0.00  0.00    +0.222 HD
ENDBRANCH  29  31
BRANCH  29  33
ATOM     33  O   UNL     1       7.387  -6.068   1.066  0.00  0.00    -0.211 OA
BRANCH  33  34
ATOM     34  P   UNL     1       8.083  -6.556  -0.440  0.00  0.00    +0.312 P 
ATOM     35  S   UNL     1       8.846  -7.091  -2.093  0.00  0.00    +0.023 S 
BRANCH  34  36
ATOM     36  O   UNL     1       6.781  -7.551  -0.555  0.00  0.00    -0.327 OA
ATOM     37  H   UNL     1       5.988  -7.177  -0.133  0.00  0.00    +0.219 HD
ENDBRANCH  34  36
BRANCH  34  38
ATOM     38  O   UNL     1       8.957  -7.602   0.476  0.00  0.00    -0.327 OA
ATOM     39  H   UNL     1       8.371  -8.304   0.814  0.00  0.00    +0.219 HD
ENDBRANCH  34  38
ENDBRANCH  33  34
ENDBRANCH  29  33
ENDBRANCH  28  29
ENDBRANCH  24  28
ENDBRANCH  23  24
ENDBRANCH  22  23
ENDBRANCH   4  22
TORSDOF 14
