REMARK  Name = 
REMARK  12 active torsions:
REMARK  status: ('A' for Active; 'I' for Inactive)
REMARK    1  A    between atoms: C_1  and  C_2
REMARK    2  A    between atoms: C_2  and  C_3
REMARK    3  A    between atoms: C_3  and  C_4
REMARK    4  A    between atoms: C_4  and  C_5
REMARK    5  A    between atoms: N_7  and  C_8
REMARK    6  A    between atoms: C_8  and  C_9
REMARK    7  A    between atoms: C_12  and  C_15
REMARK    8  A    between atoms: C_20  and  C_21
REMARK    9  A    between atoms: C_26  and  C_27
REMARK   10  A    between atoms: C_27  and  C_28
REMARK   11  A    between atoms: C_28  and  C_29
REMARK   12  A    between atoms: C_29  and  C_30
REMARK                            x       y       z     vdW  Elec       q    Type
REMARK                         _______ _______ _______ _____ _____    ______ ____
ROOT
ATOM      1  C   UNL     1       5.126   7.191   0.857  0.00  0.00    -0.008 A 
ATOM      2  C   UNL     1       4.373   8.329   1.148  0.00  0.00    +0.009 A 
ATOM      3  C   UNL     1       4.012   9.233   0.145  0.00  0.00    +0.029 A 
ATOM      4  C   UNL     1       4.506   9.093  -1.147  0.00  0.00    +0.072 A 
ATOM      5  N   UNL     1       5.247   7.992  -1.458  0.00  0.00    -0.255 NA
ATOM      6  C   UNL     1       5.527   7.073  -0.469  0.00  0.00    +0.116 A 
ENDROOT
BRANCH   4   7
ATOM      7  C   UNL     1       4.225  10.092  -2.237  0.00  0.00    +0.011 A 
ATOM      8  C   UNL     1       3.968  11.479  -2.034  0.00  0.00    +0.032 A 
ATOM      9  C   UNL     1       3.578  12.308  -3.120  0.00  0.00    +0.012 A 
ATOM     10  C   UNL     1       3.507  11.825  -4.416  0.00  0.00    +0.001 A 
ATOM     11  C   UNL     1       3.827  10.498  -4.645  0.00  0.00    +0.001 A 
ATOM     12  C   UNL     1       4.163   9.645  -3.584  0.00  0.00    +0.011 A 
BRANCH   8  13
ATOM     13  C   UNL     1       4.140  12.180  -0.764  0.00  0.00    +0.205 A 
ATOM     14  N   UNL     1       5.180  11.944   0.104  0.00  0.00    -0.108 NA
ATOM     15  N   UNL     1       5.052  12.809   1.101  0.00  0.00    -0.049 NA
ATOM     16  N   UNL     1       3.990  13.548   0.771  0.00  0.00    -0.176 N 
ATOM     17  H   UNL     1       3.692  14.340   1.334  0.00  0.00    +0.214 HD
ATOM     18  N   UNL     1       3.356  13.196  -0.354  0.00  0.00    -0.133 NA
ENDBRANCH   8  13
ENDBRANCH   4   7
BRANCH   1  19
ATOM     19  C   UNL     1       5.519   6.283   2.006  0.00  0.00    +0.182 C 
BRANCH  19  23
ATOM     20  C   UNL     1       4.876   2.940   1.164  0.00  0.00    +0.151 A 
ATOM     21  N   UNL     1       5.608   2.686   2.283  0.00  0.00    -0.216 NA
ATOM     22  C   UNL     1       5.998   3.875   2.690  0.00  0.00    +0.128 A 
ATOM     23  N   UNL     1       5.479   4.830   1.832  0.00  0.00    -0.245 N 
ATOM     24  N   UNL     1       4.737   4.239   0.866  0.00  0.00    -0.154 NA
BRANCH  20  25
ATOM     25  C   UNL     1       4.351   1.813   0.354  0.00  0.00    +0.078 C 
BRANCH  25  26
ATOM     26  C   UNL     1       4.887   1.759  -1.077  0.00  0.00    +0.007 C 
BRANCH  26  28
ATOM     27  C   UNL     1       6.872   1.647  -2.618  0.00  0.00    +0.004 C 
ATOM     28  C   UNL     1       6.417   1.710  -1.167  0.00  0.00    -0.003 C 
ENDBRANCH  26  28
ENDBRANCH  25  26
ENDBRANCH  20  25
BRANCH  22  29
ATOM     29  C   UNL     1       6.974   4.057   3.800  0.00  0.00    +0.076 C 
BRANCH  29  30
ATOM     30  C   UNL     1       6.443   4.685   5.088  0.00  0.00    +0.007 C 
BRANCH  30  31
ATOM     31  C   UNL     1       7.539   4.596   6.161  0.00  0.00    -0.003 C 
ATOM     32  C   UNL     1       7.163   5.255   7.475  0.00  0.00    +0.004 C 
ENDBRANCH  30  31
ENDBRANCH  29  30
ENDBRANCH  22  29
ENDBRANCH  19  23
ENDBRANCH   1  19
TORSDOF 10
