REMARK  Name = 
REMARK  9 active torsions:
REMARK  status: ('A' for Active; 'I' for Inactive)
REMARK    1  A    between atoms: C_1  and  C_2
REMARK    2  A    between atoms: N_4  and  C_5
REMARK    3  A    between atoms: C_7  and  O_9
REMARK    4  A    between atoms: C_11  and  C_13
REMARK    5  A    between atoms: C_13  and  O_14
REMARK    6  A    between atoms: C_15  and  O_17
REMARK    7  A    between atoms: O_17  and  S_18
REMARK    8  A    between atoms: S_18  and  O_19
REMARK    9  A    between atoms: C_22  and  O_24
REMARK                            x       y       z     vdW  Elec       q    Type
REMARK                         _______ _______ _______ _____ _____    ______ ____
ROOT
ATOM      1  C   UNL     1       4.615   0.681   1.128  0.00  0.00    +0.160 C 
ATOM      2  C   UNL     1       5.134   1.752   0.142  0.00  0.00    +0.173 C 
ATOM      3  C   UNL     1       4.969   1.292  -1.321  0.00  0.00    +0.213 C 
ATOM      4  C   UNL     1       5.675  -0.060  -1.544  0.00  0.00    +0.180 C 
ATOM      5  O   UNL     1       5.248  -1.039  -0.590  0.00  0.00    -0.341 OA
ATOM      6  C   UNL     1       5.315  -0.675   0.792  0.00  0.00    +0.270 C 
ENDROOT
BRANCH   1   9
ATOM      7  C   UNL     1       0.903   0.131   1.826  0.00  0.00    +0.109 C 
ATOM      8  C   UNL     1       2.388  -0.103   1.973  0.00  0.00    +0.210 C 
ATOM      9  N   UNL     1       3.145   0.671   1.129  0.00  0.00    -0.305 N 
ATOM     10  H   UNL     1       2.692   1.533   0.833  0.00  0.00    +0.149 HD
ATOM     11  O   UNL     1       2.853  -0.920   2.755  0.00  0.00    -0.276 OA
ENDBRANCH   1   9
BRANCH   2  12
ATOM     12  O   UNL     1       6.501   2.048   0.455  0.00  0.00    -0.387 OA
ATOM     13  H   UNL     1       6.826   2.707  -0.190  0.00  0.00    +0.210 HD
ENDBRANCH   2  12
BRANCH   6  14
ATOM     14  O   UNL     1       6.675  -0.678   1.226  0.00  0.00    -0.365 OA
ATOM     15  H   UNL     1       6.972   0.252   1.261  0.00  0.00    +0.213 HD
ENDBRANCH   6  14
BRANCH   3  16
ATOM     16  O   UNL     1       3.589   1.084  -1.669  0.00  0.00    -0.207 OA
BRANCH  16  17
ATOM     17  S   UNL     1       2.600   2.357  -1.822  0.00  0.00    +0.208 S 
ATOM     18  O   UNL     1       3.196   3.302  -2.728  0.00  0.00    -0.118 OA
ATOM     19  O   UNL     1       2.173   2.730  -0.490  0.00  0.00    -0.118 OA
BRANCH  17  20
ATOM     20  O   UNL     1       1.301   1.723  -2.526  0.00  0.00    -0.231 OA
ATOM     21  H   UNL     1       0.652   1.506  -1.826  0.00  0.00    +0.247 HD
ENDBRANCH  17  20
ENDBRANCH  16  17
ENDBRANCH   3  16
BRANCH   4  22
ATOM     22  C   UNL     1       7.205   0.033  -1.684  0.00  0.00    +0.190 C 
BRANCH  22  23
ATOM     23  O   UNL     1       7.567   1.029  -2.640  0.00  0.00    -0.392 OA
ATOM     24  H   UNL     1       7.444   0.641  -3.526  0.00  0.00    +0.210 HD
ENDBRANCH  22  23
ENDBRANCH   4  22
TORSDOF 8
