REMARK  Name = 
REMARK  2 active torsions:
REMARK  status: ('A' for Active; 'I' for Inactive)
REMARK    1  A    between atoms: O_1  and  C_2
REMARK    2  A    between atoms: C_8  and  O_10
REMARK                            x       y       z     vdW  Elec       q    Type
REMARK                         _______ _______ _______ _____ _____    ______ ____
ROOT
ATOM      1  C   UNL     1       2.397  -0.037  -0.057  0.00  0.00    +0.154 C 
ATOM      2  C   UNL     1       2.889   1.016  -1.072  0.00  0.00    +0.154 C 
ATOM      3  C   UNL     1       2.451   0.767  -2.527  0.00  0.00    +0.115 C 
ATOM      4  S   UNL     1       3.132  -0.782  -3.196  0.00  0.00    -0.090 S 
ATOM      5  S   UNL     1       2.292  -2.130  -1.904  0.00  0.00    -0.090 S 
ATOM      6  C   UNL     1       2.895  -1.470  -0.319  0.00  0.00    +0.115 C 
ENDROOT
BRANCH   1   7
ATOM      7  O   UNL     1       0.966   0.019   0.024  0.00  0.00    -0.388 OA
ATOM      8  H   UNL     1       0.668  -0.726   0.574  0.00  0.00    +0.210 HD
ENDBRANCH   1   7
BRANCH   2   9
ATOM      9  O   UNL     1       4.313   1.146  -0.963  0.00  0.00    -0.388 OA
ATOM     10  H   UNL     1       4.618   1.724  -1.685  0.00  0.00    +0.210 HD
ENDBRANCH   2   9
TORSDOF 2
