REMARK  Name = 
REMARK  6 active torsions:
REMARK  status: ('A' for Active; 'I' for Inactive)
REMARK    1  A    between atoms: C_5  and  O_7
REMARK    2  A    between atoms: O_7  and  C_8
REMARK    3  A    between atoms: C_8  and  C_10
REMARK    4  A    between atoms: C_10  and  C_11
REMARK    5  A    between atoms: C_12  and  C_13
REMARK    6  A    between atoms: C_28  and  C_29
REMARK                            x       y       z     vdW  Elec       q    Type
REMARK                         _______ _______ _______ _____ _____    ______ ____
ROOT
ATOM      1  C   UNL     1      -0.000  -0.000   0.000  0.00  0.00    +0.002 C 
ATOM      2  C   UNL     1      -0.000  -0.000  -0.000  0.00  0.00    -0.003 C 
ATOM      3  C   UNL     1      -0.000  -0.000  -0.000  0.00  0.00    +0.008 C 
ATOM      4  C   UNL     1      -0.000  -0.000   0.000  0.00  0.00    +0.032 C 
ATOM      5  C   UNL     1      -0.000  -0.000  -0.000  0.00  0.00    -0.060 C 
ATOM      6  C   UNL     1      -0.000  -0.000   0.000  0.00  0.00    -0.007 C 
ATOM      7  C   UNL     1      -0.000  -0.000   0.000  0.00  0.00    +0.016 C 
ATOM      8  C   UNL     1      -0.000  -0.000  -0.000  0.00  0.00    +0.019 C 
ATOM      9  C   UNL     1      -0.000  -0.000   0.000  0.00  0.00    +0.080 C 
ATOM     10  C   UNL     1      -0.000  -0.000   0.000  0.00  0.00    +0.156 C 
ATOM     11  O   UNL     1      -0.000  -0.000   0.000  0.00  0.00    -0.293 OA
ATOM     12  C   UNL     1       0.000   0.000   0.000  0.00  0.00    +0.046 C 
ATOM     13  C   UNL     1      -0.000  -0.000   0.000  0.00  0.00    +0.002 C 
ATOM     14  C   UNL     1      -0.000  -0.000   0.000  0.00  0.00    +0.005 C 
ATOM     15  C   UNL     1      -0.000  -0.000  -0.000  0.00  0.00    +0.011 C 
ATOM     16  C   UNL     1      -0.000   0.000   0.000  0.00  0.00    +0.008 C 
ATOM     17  C   UNL     1      -0.000  -0.000  -0.000  0.00  0.00    +0.015 C 
ATOM     18  C   UNL     1      -0.000  -0.000   0.000  0.00  0.00    +0.183 C 
ATOM     19  C   UNL     1      -0.000  -0.000   0.000  0.00  0.00    +0.045 C 
ATOM     20  C   UNL     1      -0.000  -0.000   0.000  0.00  0.00    +0.008 C 
ENDROOT
BRANCH  18  21
ATOM     21  O   UNL     1      -0.000  -0.000   0.000  0.00  0.00    -0.461 OA
BRANCH  21  22
ATOM     22  C   UNL     1      -0.000  -0.000   0.000  0.00  0.00    +0.307 C 
ATOM     23  O   UNL     1      -0.000  -0.000   0.000  0.00  0.00    -0.251 OA
BRANCH  22  24
ATOM     24  C   UNL     1      -0.000  -0.000   0.000  0.00  0.00    +0.117 C 
ATOM     25  C   UNL     1      -0.000  -0.000   0.000  0.00  0.00    +0.015 C 
ENDBRANCH  22  24
ENDBRANCH  21  22
ENDBRANCH  18  21
TORSDOF 3
