REMARK  Name = 
REMARK  14 active torsions:
REMARK  status: ('A' for Active; 'I' for Inactive)
REMARK    1  A    between atoms: C_1  and  C_2
REMARK    2  A    between atoms: C_2  and  O_3
REMARK    3  A    between atoms: O_3  and  C_4
REMARK    4  A    between atoms: C_4  and  O_6
REMARK    5  A    between atoms: O_6  and  C_7
REMARK    6  A    between atoms: C_7  and  C_28
REMARK    7  A    between atoms: C_20  and  C_21
REMARK    8  A    between atoms: C_23  and  O_24
REMARK    9  A    between atoms: C_26  and  C_27
REMARK   10  A    between atoms: C_28  and  C_30
REMARK   11  A    between atoms: C_30  and  O_31
REMARK   12  A    between atoms: O_31  and  C_32
REMARK   13  A    between atoms: C_32  and  C_34
REMARK   14  A    between atoms: C_34  and  C_35
REMARK                            x       y       z     vdW  Elec       q    Type
REMARK                         _______ _______ _______ _____ _____    ______ ____
ROOT
ATOM      1  C   UNL     1       5.921  -2.159  -2.338  0.00  0.00    +0.183 C 
ATOM      2  C   UNL     1       6.929  -1.203  -3.131  0.00  0.00    +0.020 C 
ATOM      3  C   UNL     1       6.541  -0.936  -4.624  0.00  0.00    +0.016 C 
ATOM      4  C   UNL     1       8.260  -2.005  -3.200  0.00  0.00    +0.003 C 
ATOM      5  C   UNL     1       9.399  -1.417  -2.318  0.00  0.00    -0.000 C 
ATOM      6  C   UNL     1       9.576   0.102  -2.662  0.00  0.00    +0.035 C 
ATOM      7  C   UNL     1       8.299   0.909  -2.368  0.00  0.00    +0.120 C 
ATOM      8  C   UNL     1      10.937   0.872  -2.310  0.00  0.00    +0.013 C 
ATOM      9  C   UNL     1      10.823   2.166  -3.213  0.00  0.00    +0.020 C 
ATOM     10  C   UNL     1      12.048  -0.157  -2.576  0.00  0.00    -0.056 C 
ATOM     11  C   UNL     1      13.299   0.239  -2.857  0.00  0.00    +0.051 C 
ATOM     12  C   UNL     1      13.586   1.594  -2.308  0.00  0.00    +0.179 C 
ATOM     13  C   UNL     1      12.775   1.938  -1.074  0.00  0.00    +0.047 C 
ATOM     14  O   UNL     1      14.436   2.324  -2.790  0.00  0.00    -0.288 OA
ATOM     15  C   UNL     1      11.839  -1.502  -1.912  0.00  0.00    +0.032 C 
ATOM     16  C   UNL     1      11.483   1.521  -1.024  0.00  0.00    -0.012 C 
ATOM     17  C   UNL     1      10.685  -2.221  -2.558  0.00  0.00    +0.008 C 
ATOM     18  C   UNL     1       7.855  -3.488  -3.013  0.00  0.00    +0.009 C 
ATOM     19  C   UNL     1       6.973   0.151  -2.428  0.00  0.00    +0.043 C 
ATOM     20  C   UNL     1       6.320  -3.505  -2.986  0.00  0.00    +0.057 C 
ENDROOT
BRANCH   1  21
ATOM     21  C   UNL     1       6.249  -2.239  -0.785  0.00  0.00    +0.214 C 
ATOM     22  O   UNL     1       7.356  -2.635  -0.387  0.00  0.00    -0.289 OA
BRANCH  21  23
ATOM     23  C   UNL     1       5.243  -1.870   0.332  0.00  0.00    +0.310 C 
BRANCH  23  24
ATOM     24  O   UNL     1       3.928  -1.381   0.232  0.00  0.00    -0.457 OA
BRANCH  24  25
ATOM     25  C   UNL     1       3.799  -0.020   0.198  0.00  0.00    +0.307 C 
ATOM     26  O   UNL     1       4.734   0.731  -0.064  0.00  0.00    -0.251 OA
BRANCH  25  27
ATOM     27  C   UNL     1       2.456   0.488   0.596  0.00  0.00    +0.117 C 
ATOM     28  C   UNL     1       1.363  -0.538   0.784  0.00  0.00    +0.015 C 
ENDBRANCH  25  27
ENDBRANCH  24  25
ENDBRANCH  23  24
ENDBRANCH  21  23
ENDBRANCH   1  21
BRANCH   7  29
ATOM     29  O   UNL     1       8.402   1.517  -1.082  0.00  0.00    -0.391 OA
ATOM     30  H   UNL     1       7.523   1.864  -0.838  0.00  0.00    +0.210 HD
ENDBRANCH   7  29
BRANCH   1  31
ATOM     31  O   UNL     1       4.574  -1.775  -2.634  0.00  0.00    -0.419 OA
BRANCH  31  32
ATOM     32  C   UNL     1       3.606  -2.643  -2.234  0.00  0.00    +0.511 C 
ATOM     33  O   UNL     1       3.800  -3.679  -1.621  0.00  0.00    -0.203 OA
BRANCH  32  34
ATOM     34  O   UNL     1       2.397  -2.185  -2.644  0.00  0.00    -0.434 OA
BRANCH  34  36
ATOM     35  C   UNL     1       0.384  -3.103  -1.565  0.00  0.00    +0.048 C 
ATOM     36  C   UNL     1       1.390  -3.193  -2.700  0.00  0.00    +0.232 C 
ENDBRANCH  34  36
ENDBRANCH  32  34
ENDBRANCH  31  32
ENDBRANCH   1  31
TORSDOF 10
