REMARK  Name = 
REMARK  9 active torsions:
REMARK  status: ('A' for Active; 'I' for Inactive)
REMARK    1  A    between atoms: C_1  and  C_2
REMARK    2  A    between atoms: C_7  and  C_8
REMARK    3  A    between atoms: C_8  and  C_11
REMARK    4  A    between atoms: C_14  and  C_17
REMARK    5  A    between atoms: C_17  and  O_18
REMARK    6  A    between atoms: C_20  and  C_21
REMARK    7  A    between atoms: C_20  and  C_22
REMARK    8  A    between atoms: C_25  and  C_26
REMARK    9  A    between atoms: C_25  and  C_27
REMARK                            x       y       z     vdW  Elec       q    Type
REMARK                         _______ _______ _______ _____ _____    ______ ____
ROOT
ATOM      1  C   UNL     1       0.985   0.159  -0.441  0.00  0.00    +0.044 C 
ATOM      2  C   UNL     1       2.489   0.106  -0.387  0.00  0.00    -0.046 A 
ATOM      3  C   UNL     1       3.172  -1.104  -0.133  0.00  0.00    -0.032 A 
ATOM      4  C   UNL     1       4.576  -1.075  -0.163  0.00  0.00    +0.009 A 
ATOM      5  C   UNL     1       5.318   0.117  -0.241  0.00  0.00    -0.038 A 
ATOM      6  C   UNL     1       6.842   0.062  -0.086  0.00  0.00    -0.010 C 
ATOM      7  C   UNL     1       7.489   1.412  -0.459  0.00  0.00    +0.012 C 
ATOM      8  C   UNL     1       6.774   2.581   0.202  0.00  0.00    +0.012 C 
ATOM      9  C   UNL     1       5.303   2.703  -0.256  0.00  0.00    -0.010 C 
ATOM     10  C   UNL     1       5.234   3.373  -1.643  0.00  0.00    +0.016 C 
ATOM     11  C   UNL     1       4.604   3.624   0.777  0.00  0.00    +0.016 C 
ATOM     12  C   UNL     1       7.169  -0.304   1.381  0.00  0.00    +0.016 C 
ATOM     13  C   UNL     1       7.477  -1.010  -1.002  0.00  0.00    +0.016 C 
ATOM     14  C   UNL     1       4.613   1.338  -0.334  0.00  0.00    -0.038 A 
ATOM     15  C   UNL     1       3.216   1.297  -0.483  0.00  0.00    +0.008 A 
ENDROOT
BRANCH   3  16
ATOM     16  C   UNL     1       2.440  -2.327   0.409  0.00  0.00    +0.038 C 
ATOM     17  C   UNL     1       2.790  -3.757   0.005  0.00  0.00    +0.019 C 
ATOM     18  C   UNL     1       1.592  -3.098  -0.592  0.00  0.00    +0.019 C 
BRANCH  16  19
ATOM     19  C   UNL     1       2.048  -2.196   1.893  0.00  0.00    +0.052 A 
ATOM     20  N   UNL     1       0.776  -2.472   2.267  0.00  0.00    -0.258 NA
ATOM     21  C   UNL     1       0.482  -2.452   3.590  0.00  0.00    +0.126 A 
ATOM     22  C   UNL     1       1.395  -2.141   4.588  0.00  0.00    +0.077 A 
ATOM     23  C   UNL     1       2.687  -1.802   4.208  0.00  0.00    +0.018 A 
ATOM     24  C   UNL     1       3.010  -1.829   2.852  0.00  0.00    +0.025 A 
BRANCH  22  25
ATOM     25  C   UNL     1       0.962  -2.300   5.990  0.00  0.00    +0.338 C 
ATOM     26  O   UNL     1       0.065  -3.062   6.305  0.00  0.00    -0.245 OA
BRANCH  25  27
ATOM     27  O   UNL     1       1.630  -1.543   6.881  0.00  0.00    -0.477 OA
ATOM     28  H   UNL     1       2.216  -0.859   6.511  0.00  0.00    +0.295 HD
ENDBRANCH  25  27
ENDBRANCH  22  25
ENDBRANCH  16  19
ENDBRANCH   3  16
TORSDOF 4
