REMARK  Name = 
REMARK  6 active torsions:
REMARK  status: ('A' for Active; 'I' for Inactive)
REMARK    1  A    between atoms: O_1  and  C_2
REMARK    2  A    between atoms: C_2  and  C_4
REMARK    3  A    between atoms: C_4  and  C_5
REMARK    4  A    between atoms: C_9  and  O_10
REMARK    5  A    between atoms: O_10  and  C_11
REMARK    6  A    between atoms: C_15  and  O_16
REMARK                            x       y       z     vdW  Elec       q    Type
REMARK                         _______ _______ _______ _____ _____    ______ ____
ROOT
ATOM      1  C   UNL     1       4.458  -0.127   1.201  0.00  0.00    -0.035 A 
ATOM      2  C   UNL     1       5.050  -1.397   1.282  0.00  0.00    +0.022 A 
ATOM      3  C   UNL     1       6.436  -1.572   1.120  0.00  0.00    +0.057 A 
ATOM      4  I   UNL     1       7.080  -3.577   1.112  0.00  0.00    -0.040 I 
ATOM      5  C   UNL     1       7.267  -0.464   0.899  0.00  0.00    +0.155 A 
ATOM      6  C   UNL     1       6.668   0.810   0.841  0.00  0.00    +0.057 A 
ATOM      7  I   UNL     1       7.799   2.550   0.460  0.00  0.00    -0.040 I 
ATOM      8  C   UNL     1       5.283   0.980   0.986  0.00  0.00    +0.022 A 
ENDROOT
BRANCH   1   9
ATOM      9  C   UNL     1       2.955   0.028   1.297  0.00  0.00    +0.155 C 
BRANCH   9  10
ATOM     10  C   UNL     1       2.222  -0.008  -0.029  0.00  0.00    +0.309 C 
ATOM     11  O   UNL     1       2.740  -0.071  -1.132  0.00  0.00    -0.251 OA
BRANCH  10  12
ATOM     12  O   UNL     1       0.875   0.045   0.127  0.00  0.00    -0.480 OA
ATOM     13  H   UNL     1       0.574   0.095   1.057  0.00  0.00    +0.295 HD
ENDBRANCH  10  12
ENDBRANCH   9  10
ENDBRANCH   1   9
BRANCH   5  14
ATOM     14  O   UNL     1       8.563  -0.544   0.445  0.00  0.00    -0.454 OA
BRANCH  14  15
ATOM     15  C   UNL     1       9.604  -1.084   1.158  0.00  0.00    +0.131 A 
ATOM     16  C   UNL     1       9.609  -1.455   2.502  0.00  0.00    +0.064 A 
ATOM     17  C   UNL     1      10.752  -2.066   3.046  0.00  0.00    +0.059 A 
ATOM     18  I   UNL     1      10.659  -2.734   5.032  0.00  0.00    -0.040 I 
ATOM     19  C   UNL     1      11.903  -2.254   2.268  0.00  0.00    +0.143 A 
ATOM     20  C   UNL     1      11.901  -1.836   0.941  0.00  0.00    +0.059 A 
ATOM     21  I   UNL     1      13.577  -2.084  -0.291  0.00  0.00    -0.040 I 
ATOM     22  C   UNL     1      10.760  -1.255   0.390  0.00  0.00    +0.064 A 
BRANCH  19  23
ATOM     23  O   UNL     1      13.011  -2.842   2.821  0.00  0.00    -0.505 OA
ATOM     24  H   UNL     1      13.710  -2.865   2.142  0.00  0.00    +0.292 HD
ENDBRANCH  19  23
ENDBRANCH  14  15
ENDBRANCH   5  14
TORSDOF 6
