REMARK  Name = 
REMARK  13 active torsions:
REMARK  status: ('A' for Active; 'I' for Inactive)
REMARK    1  A    between atoms: C_1  and  C_2
REMARK    2  A    between atoms: C_2  and  O_4
REMARK    3  A    between atoms: C_2  and  C_15
REMARK    4  A    between atoms: O_4  and  C_5
REMARK    5  A    between atoms: C_5  and  O_7
REMARK    6  A    between atoms: C_5  and  C_8
REMARK    7  A    between atoms: C_8  and  C_9
REMARK    8  A    between atoms: C_9  and  N_11
REMARK    9  A    between atoms: C_9  and  C_12
REMARK   10  A    between atoms: C_12  and  O_13
REMARK   11  A    between atoms: C_15  and  N_17
REMARK   12  A    between atoms: C_15  and  C_18
REMARK   13  A    between atoms: C_18  and  O_19
REMARK                            x       y       z     vdW  Elec       q    Type
REMARK                         _______ _______ _______ _____ _____    ______ ____
ROOT
ATOM      1  C   UNL     1       2.358  -2.006  -3.589  0.00  0.00    +0.249 C 
ENDROOT
BRANCH   1   2
ATOM      2  O   UNL     1       0.952  -1.944  -3.784  0.00  0.00    -0.367 OA
ATOM      3  H   UNL     1       0.587  -1.473  -3.015  0.00  0.00    +0.212 HD
ENDBRANCH   1   2
BRANCH   1   4
ATOM      4  OG1 UNL     1       2.780  -3.354  -3.427  0.00  0.00    -0.346 OA
BRANCH   4   6
ATOM      5  CG2 UNL     1       3.057  -3.339  -0.979  0.00  0.00    +0.040 C 
ATOM      6  CB  UNL     1       2.447  -4.033  -2.196  0.00  0.00    +0.146 C 
BRANCH   6   7
ATOM      7  CA  UNL     1       0.934  -4.338  -2.089  0.00  0.00    +0.189 C 
BRANCH   7   8
ATOM      8  N   UNL     1       0.517  -5.233  -3.224  0.00  0.00    -0.316 NA
ATOM      9  H1  UNL     1      -0.496  -5.130  -3.344  0.00  0.00    +0.119 HD
ATOM     10  H2  UNL     1       0.904  -4.793  -4.072  0.00  0.00    +0.119 HD
ENDBRANCH   7   8
BRANCH   7  11
ATOM     11  C   UNL     1       0.582  -5.035  -0.771  0.00  0.00    +0.324 C 
ATOM     12  OXT UNL     1       0.430  -4.462   0.296  0.00  0.00    -0.249 OA
BRANCH  11  13
ATOM     13  O   UNL     1       0.450  -6.377  -0.935  0.00  0.00    -0.479 OA
ATOM     14  H   UNL     1       0.564  -6.541  -1.908  0.00  0.00    +0.295 HD
ENDBRANCH  11  13
ENDBRANCH   7  11
ENDBRANCH   6   7
ENDBRANCH   4   6
ENDBRANCH   1   4
BRANCH   1  15
ATOM     15  C   UNL     1       2.987  -1.408  -4.857  0.00  0.00    +0.091 C 
BRANCH  15  16
ATOM     16  CA  UNL     1       4.506  -1.206  -4.826  0.00  0.00    +0.165 C 
BRANCH  16  17
ATOM     17  N   UNL     1       5.279  -2.474  -4.749  0.00  0.00    -0.318 NA
ATOM     18  H1  UNL     1       4.931  -3.105  -5.477  0.00  0.00    +0.119 HD
ATOM     19  H2  UNL     1       6.249  -2.278  -5.016  0.00  0.00    +0.119 HD
ENDBRANCH  16  17
BRANCH  16  20
ATOM     20  C   UNL     1       4.877  -0.340  -3.618  0.00  0.00    +0.322 C 
ATOM     21  OXT UNL     1       4.682   0.860  -3.525  0.00  0.00    -0.249 OA
BRANCH  20  22
ATOM     22  O   UNL     1       5.376  -1.105  -2.612  0.00  0.00    -0.480 OA
ATOM     23  H   UNL     1       5.418  -2.030  -2.971  0.00  0.00    +0.295 HD
ENDBRANCH  20  22
ENDBRANCH  16  20
ENDBRANCH  15  16
ENDBRANCH   1  15
TORSDOF 12
