REMARK  Name = 
REMARK  12 active torsions:
REMARK  status: ('A' for Active; 'I' for Inactive)
REMARK    1  A    between atoms: C_5  and  C_6
REMARK    2  A    between atoms: C_6  and  S_7
REMARK    3  A    between atoms: S_7  and  C_8
REMARK    4  A    between atoms: N_12  and  C_13
REMARK    5  A    between atoms: C_13  and  S_14
REMARK    6  A    between atoms: S_14  and  O_15
REMARK    7  A    between atoms: CA_18  and  C_36
REMARK    8  A    between atoms: CA_22  and  N_24
REMARK    9  A    between atoms: C_25  and  C_27
REMARK   10  A    between atoms: C_27  and  O_29
REMARK   11  A    between atoms: C_27  and  C_30
REMARK   12  A    between atoms: C_36  and  O_37
REMARK                            x       y       z     vdW  Elec       q    Type
REMARK                         _______ _______ _______ _____ _____    ______ ____
ROOT
ATOM      1  C   UNL     1       8.904  -0.997   4.944  0.00  0.00    +0.169 C 
ATOM      2  CA  UNL     1       8.349  -1.134   3.481  0.00  0.00    +0.191 C 
ATOM      3  C   UNL     1       9.633  -2.009   3.269  0.00  0.00    +0.244 C 
ATOM      4  O   UNL     1      10.174  -2.627   2.382  0.00  0.00    -0.273 OA
ATOM      5  N   UNL     1       9.894  -1.993   4.594  0.00  0.00    -0.249 N 
ATOM      6  CA  UNL     1      10.743  -2.602   5.484  0.00  0.00    +0.123 C 
ATOM      7  C   UNL     1      10.456  -2.569   6.819  0.00  0.00    -0.021 C 
ATOM      8  C   UNL     1       9.196  -1.940   7.410  0.00  0.00    +0.104 C 
ATOM      9  S   UNL     1       7.843  -1.668   6.241  0.00  0.00    -0.131 S 
ENDROOT
BRANCH   2  10
ATOM     10  N   UNL     1       7.062  -1.858   3.335  0.00  0.00    -0.299 N 
ATOM     11  H   UNL     1       6.596  -2.258   4.151  0.00  0.00    +0.150 HD
ATOM     12  C   UNL     1       6.404  -2.049   2.137  0.00  0.00    +0.247 C 
ATOM     13  O   UNL     1       6.794  -1.580   1.073  0.00  0.00    -0.273 OA
BRANCH  12  14
ATOM     14  C   UNL     1       5.139  -2.927   2.279  0.00  0.00    +0.230 C 
BRANCH  14  15
ATOM     15  C   UNL     1       5.423  -4.389   2.006  0.00  0.00    -0.010 A 
ATOM     16  C   UNL     1       5.791  -5.271   3.037  0.00  0.00    +0.006 A 
ATOM     17  C   UNL     1       6.037  -6.618   2.770  0.00  0.00    +0.000 A 
ATOM     18  C   UNL     1       5.928  -7.103   1.469  0.00  0.00    +0.000 A 
ATOM     19  C   UNL     1       5.583  -6.238   0.433  0.00  0.00    +0.000 A 
ATOM     20  C   UNL     1       5.337  -4.888   0.697  0.00  0.00    +0.006 A 
ENDBRANCH  14  15
BRANCH  14  21
ATOM     21  O   UNL     1       4.597  -2.788   3.601  0.00  0.00    -0.378 OA
ATOM     22  H   UNL     1       3.644  -2.973   3.518  0.00  0.00    +0.211 HD
ENDBRANCH  14  21
ENDBRANCH  12  14
ENDBRANCH   2  10
BRANCH   6  23
ATOM     23  C   UNL     1      11.969  -3.351   4.999  0.00  0.00    +0.351 C 
ATOM     24  OXT UNL     1      12.925  -3.612   5.720  0.00  0.00    -0.244 OA
BRANCH  23  25
ATOM     25  O   UNL     1      11.990  -3.746   3.716  0.00  0.00    -0.476 OA
ATOM     26  H   UNL     1      11.258  -3.467   3.121  0.00  0.00    +0.295 HD
ENDBRANCH  23  25
ENDBRANCH   6  23
BRANCH   7  27
ATOM     27  C   UNL     1      11.249  -3.309   7.907  0.00  0.00    +0.111 C 
BRANCH  27  28
ATOM     28  S   UNL     1      12.650  -2.341   8.572  0.00  0.00    -0.080 S 
BRANCH  28  29
ATOM     29  C   UNL     1      13.250  -3.475   9.738  0.00  0.00    +0.211 A 
ATOM     30  N   UNL     1      14.545  -3.608  10.152  0.00  0.00    -0.196 N 
ATOM     31  N   UNL     1      14.624  -4.636  11.027  0.00  0.00    -0.042 NA
ATOM     32  N   UNL     1      13.386  -5.087  11.153  0.00  0.00    -0.022 NA
ATOM     33  N   UNL     1      12.523  -4.378  10.358  0.00  0.00    -0.101 NA
BRANCH  30  34
ATOM     34  C   UNL     1      15.765  -2.981   9.728  0.00  0.00    +0.345 C 
BRANCH  34  35
ATOM     35  S   UNL     1      16.117  -1.417  10.490  0.00  0.00    +0.100 S 
ATOM     36  O   UNL     1      15.093  -0.453  10.160  0.00  0.00    -0.146 OA
ATOM     37  O   UNL     1      17.528  -1.121  10.319  0.00  0.00    -0.146 OA
BRANCH  35  38
ATOM     38  O   UNL     1      15.951  -1.832  12.042  0.00  0.00    -0.252 OA
ATOM     39  H   UNL     1      16.832  -2.027  12.428  0.00  0.00    +0.245 HD
ENDBRANCH  35  38
ENDBRANCH  34  35
ENDBRANCH  30  34
ENDBRANCH  28  29
ENDBRANCH  27  28
ENDBRANCH   7  27
TORSDOF 12
