REMARK  Name = 
REMARK  1 active torsions:
REMARK  status: ('A' for Active; 'I' for Inactive)
REMARK    1  A    between atoms: N_1  and  N_2
REMARK                            x       y       z     vdW  Elec       q    Type
REMARK                         _______ _______ _______ _____ _____    ______ ____
ROOT
ATOM      1  N   UNL     1       2.253   0.121   0.173  0.00  0.00    -0.266 N 
ATOM      2  H   UNL     1       3.016   0.599  -0.316  0.00  0.00    +0.168 HD
ATOM      3  C   UNL     1       2.871  -0.836   1.049  0.00  0.00    +0.162 A 
ATOM      4  C   UNL     1       3.869  -0.394   1.952  0.00  0.00    +0.026 A 
ATOM      5  C   UNL     1       4.473  -1.356   2.786  0.00  0.00    +0.005 A 
ATOM      6  C   UNL     1       5.473  -0.975   3.702  0.00  0.00    +0.010 A 
ATOM      7  C   UNL     1       5.873   0.356   3.805  0.00  0.00    +0.001 A 
ATOM      8  C   UNL     1       5.282   1.320   2.997  0.00  0.00    +0.001 A 
ATOM      9  C   UNL     1       4.040  -2.671   2.683  0.00  0.00    +0.143 A 
ATOM     10  N   UNL     1       3.065  -3.061   1.843  0.00  0.00    -0.155 NA
ATOM     11  C   UNL     1       4.292   0.952   2.083  0.00  0.00    +0.012 A 
ATOM     12  N   UNL     1       2.472  -2.132   1.033  0.00  0.00    -0.133 NA
ENDROOT
BRANCH   1  13
ATOM     13  N   UNL     1       1.253  -0.361  -0.710  0.00  0.00    -0.255 NA
ATOM     14  H   UNL     1       0.605  -0.961  -0.187  0.00  0.00    +0.140 HD
ATOM     15  H   UNL     1       0.686   0.414  -1.059  0.00  0.00    +0.140 HD
ENDBRANCH   1  13
TORSDOF 1
