REMARK  Name = 
REMARK  9 active torsions:
REMARK  status: ('A' for Active; 'I' for Inactive)
REMARK    1  A    between atoms: C_4  and  C_5
REMARK    2  A    between atoms: C_4  and  C_6
REMARK    3  A    between atoms: CA_7  and  C_27
REMARK    4  A    between atoms: CA_12  and  N_14
REMARK    5  A    between atoms: C_15  and  C_17
REMARK    6  A    between atoms: C_17  and  C_19
REMARK    7  A    between atoms: C_17  and  C_22
REMARK    8  A    between atoms: C_19  and  O_20
REMARK    9  A    between atoms: C_27  and  O_28
REMARK                            x       y       z     vdW  Elec       q    Type
REMARK                         _______ _______ _______ _____ _____    ______ ____
ROOT
ATOM      1  C   UNL     1       8.100  -2.185   2.395  0.00  0.00    +0.165 C 
ATOM      2  CA  UNL     1       7.570  -1.133   3.407  0.00  0.00    +0.190 C 
ATOM      3  C   UNL     1       8.225  -0.105   2.450  0.00  0.00    +0.240 C 
ATOM      4  O   UNL     1       8.128   1.081   2.247  0.00  0.00    -0.273 OA
ATOM      5  N   UNL     1       8.827  -1.091   1.712  0.00  0.00    -0.271 N 
ATOM      6  CA  UNL     1       8.736  -1.060   0.240  0.00  0.00    +0.201 C 
ATOM      7  C   UNL     1       7.328  -1.584  -0.141  0.00  0.00    +0.042 C 
ATOM      8  C   UNL     1       6.258  -0.475  -0.057  0.00  0.00    +0.025 C 
ATOM      9  C   UNL     1       7.203  -2.212  -1.534  0.00  0.00    +0.025 C 
ATOM     10  S   UNL     1       6.911  -2.842   1.152  0.00  0.00    -0.127 S 
ENDROOT
BRANCH   2  11
ATOM     11  N   UNL     1       6.090  -1.068   3.571  0.00  0.00    -0.301 N 
ATOM     12  H   UNL     1       5.549  -0.391   3.039  0.00  0.00    +0.150 HD
ATOM     13  C   UNL     1       5.444  -1.960   4.400  0.00  0.00    +0.232 C 
ATOM     14  O   UNL     1       6.072  -2.715   5.142  0.00  0.00    -0.275 OA
BRANCH  13  15
ATOM     15  C   UNL     1       3.922  -1.918   4.366  0.00  0.00    +0.213 C 
BRANCH  15  16
ATOM     16  C   UNL     1       3.318  -3.311   4.501  0.00  0.00    -0.018 A 
ATOM     17  C   UNL     1       2.347  -3.740   5.475  0.00  0.00    +0.012 A 
ATOM     18  C   UNL     1       2.020  -5.073   5.359  0.00  0.00    +0.045 A 
ATOM     19  S   UNL     1       2.828  -5.819   4.057  0.00  0.00    -0.105 S 
ATOM     20  C   UNL     1       3.628  -4.364   3.652  0.00  0.00    +0.050 A 
ENDBRANCH  15  16
BRANCH  15  21
ATOM     21  C   UNL     1       3.446  -0.942   5.417  0.00  0.00    +0.321 C 
ATOM     22  O   UNL     1       2.827   0.079   5.148  0.00  0.00    -0.250 OA
BRANCH  21  23
ATOM     23  O   UNL     1       3.789  -1.255   6.690  0.00  0.00    -0.480 OA
ATOM     24  H   UNL     1       4.313  -2.082   6.778  0.00  0.00    +0.295 HD
ENDBRANCH  21  23
ENDBRANCH  15  21
ENDBRANCH  13  15
ENDBRANCH   2  11
BRANCH   6  25
ATOM     25  C   UNL     1       9.922  -1.861  -0.325  0.00  0.00    +0.327 C 
ATOM     26  OXT UNL     1      10.088  -2.124  -1.507  0.00  0.00    -0.249 OA
BRANCH  25  27
ATOM     27  O   UNL     1      10.851  -2.195   0.609  0.00  0.00    -0.479 OA
ATOM     28  H   UNL     1      10.613  -1.812   1.478  0.00  0.00    +0.295 HD
ENDBRANCH  25  27
ENDBRANCH   6  25
TORSDOF 7
