REMARK  Name = 
REMARK  7 active torsions:
REMARK  status: ('A' for Active; 'I' for Inactive)
REMARK    1  A    between atoms: C_5  and  C_7
REMARK    2  A    between atoms: N_9  and  C_10
REMARK    3  A    between atoms: C_10  and  C_11
REMARK    4  A    between atoms: C_10  and  C_12
REMARK    5  A    between atoms: C_10  and  C_13
REMARK    6  A    between atoms: C_14  and  C_15
REMARK    7  A    between atoms: C_31  and  C_32
REMARK                            x       y       z     vdW  Elec       q    Type
REMARK                         _______ _______ _______ _____ _____    ______ ____
ROOT
ATOM      1  C   UNL     1      -0.000  -0.000  -0.000  0.00  0.00    -0.001 C 
ATOM      2  C   UNL     1      -0.000  -0.000   0.000  0.00  0.00    -0.003 C 
ATOM      3  C   UNL     1      -0.000  -0.000   0.000  0.00  0.00    +0.006 C 
ATOM      4  C   UNL     1      -0.000  -0.000   0.000  0.00  0.00    +0.023 C 
ATOM      5  C   UNL     1      -0.000  -0.000   0.000  0.00  0.00    +0.083 C 
ATOM      6  C   UNL     1      -0.000  -0.000   0.000  0.00  0.00    +0.008 C 
ATOM      7  C   UNL     1      -0.000  -0.000   0.000  0.00  0.00    +0.017 C 
ATOM      8  C   UNL     1      -0.000  -0.000   0.000  0.00  0.00    -0.013 C 
ATOM      9  C   UNL     1      -0.000  -0.000   0.000  0.00  0.00    +0.063 C 
ATOM     10  C   UNL     1      -0.000  -0.000   0.000  0.00  0.00    +0.237 C 
ATOM     11  O   UNL     1      -0.000  -0.000   0.000  0.00  0.00    -0.271 OA
ATOM     12  N   UNL     1      -0.000  -0.000   0.000  0.00  0.00    -0.308 N 
ATOM     13  H   UNL     1       0.000   0.000   0.000  0.00  0.00    +0.149 HD
ATOM     14  C   UNL     1      -0.000  -0.000   0.000  0.00  0.00    +0.004 C 
ATOM     15  C   UNL     1      -0.000  -0.000   0.000  0.00  0.00    +0.005 C 
ATOM     16  C   UNL     1      -0.000  -0.000   0.000  0.00  0.00    +0.008 C 
ATOM     17  C   UNL     1      -0.000  -0.000   0.000  0.00  0.00    -0.018 C 
ATOM     18  C   UNL     1      -0.000  -0.000   0.000  0.00  0.00    +0.012 C 
ATOM     19  C   UNL     1      -0.000  -0.000   0.000  0.00  0.00    +0.081 C 
ATOM     20  C   UNL     1      -0.000  -0.000   0.000  0.00  0.00    +0.013 C 
ATOM     21  C   UNL     1      -0.000  -0.000   0.000  0.00  0.00    +0.005 C 
ENDROOT
BRANCH  19  22
ATOM     22  C   UNL     1      -0.000  -0.000   0.000  0.00  0.00    +0.217 C 
ATOM     23  N   UNL     1      -0.000  -0.000   0.000  0.00  0.00    -0.310 N 
ATOM     24  H   UNL     1      -0.000  -0.000   0.000  0.00  0.00    +0.149 HD
ATOM     25  O   UNL     1      -0.000  -0.000   0.000  0.00  0.00    -0.275 OA
BRANCH  23  26
ATOM     26  C   UNL     1      -0.000  -0.000   0.000  0.00  0.00    +0.026 C 
ATOM     27  C   UNL     1      -0.000  -0.000   0.000  0.00  0.00    +0.031 C 
ATOM     28  C   UNL     1      -0.000  -0.000   0.000  0.00  0.00    +0.031 C 
ATOM     29  C   UNL     1      -0.000  -0.000   0.000  0.00  0.00    +0.031 C 
ENDBRANCH  23  26
ENDBRANCH  19  22
TORSDOF 2
