REMARK  Name = 
REMARK  7 active torsions:
REMARK  status: ('A' for Active; 'I' for Inactive)
REMARK    1  A    between atoms: CD1_1  and  CG1_2
REMARK    2  A    between atoms: CG1_2  and  CB_3
REMARK    3  A    between atoms: CB_3  and  CG2_5
REMARK    4  A    between atoms: CB_3  and  CA_6
REMARK    5  A    between atoms: CA_6  and  N_8
REMARK    6  A    between atoms: CA_6  and  C_9
REMARK    7  A    between atoms: C_9  and  O_10
REMARK                            x       y       z     vdW  Elec       q    Type
REMARK                         _______ _______ _______ _____ _____    ______ ____
ROOT
ATOM      1  CA  ILE A   1       4.627  -1.200  -1.076  0.00  0.00    +0.163 C 
ENDROOT
BRANCH   1   2
ATOM      2  N   ILE A   1       5.042  -2.304  -1.989  0.00  0.00    -0.318 NA
ATOM      3  H1  ILE A   1       6.057  -2.253  -2.107  0.00  0.00    +0.119 HD
ATOM      4  H2  ILE A   1       4.902  -3.188  -1.486  0.00  0.00    +0.119 HD
ENDBRANCH   1   2
BRANCH   1   5
ATOM      5  CB  ILE A   1       5.031   0.209  -1.593  0.00  0.00    +0.013 C 
ATOM      6  CG2 ILE A   1       4.413   0.531  -2.961  0.00  0.00    +0.009 C 
BRANCH   5   8
ATOM      7  CD1 ILE A   1       7.038   1.779  -1.955  0.00  0.00    +0.004 C 
ATOM      8  CG1 ILE A   1       6.569   0.369  -1.616  0.00  0.00    +0.002 C 
ENDBRANCH   5   8
ENDBRANCH   1   5
BRANCH   1   9
ATOM      9  C   ILE A   1       3.099  -1.283  -0.890  0.00  0.00    +0.322 C 
ATOM     10  OXT ILE A   1       2.471  -0.784   0.030  0.00  0.00    -0.249 OA
BRANCH   9  11
ATOM     11  O   ILE A   1       2.522  -1.971  -1.911  0.00  0.00    -0.480 OA
ATOM     12  H   ILE A   1       3.262  -2.243  -2.509  0.00  0.00    +0.295 HD
ENDBRANCH   9  11
ENDBRANCH   1   9
TORSDOF 5
