REMARK  Name = 
REMARK  19 active torsions:
REMARK  status: ('A' for Active; 'I' for Inactive)
REMARK    1  A    between atoms: N_10  and  C_11
REMARK    2  A    between atoms: C_14  and  C_16
REMARK    3  A    between atoms: C_16  and  O_17
REMARK    4  A    between atoms: O_17  and  P_18
REMARK    5  A    between atoms: P_18  and  O_19
REMARK    6  A    between atoms: P_18  and  O_21
REMARK    7  A    between atoms: O_21  and  P_22
REMARK    8  A    between atoms: P_22  and  O_23
REMARK    9  A    between atoms: P_22  and  O_25
REMARK   10  A    between atoms: O_25  and  P_26
REMARK   11  A    between atoms: P_26  and  O_27
REMARK   12  A    between atoms: P_26  and  O_29
REMARK   13  A    between atoms: O_29  and  C_30
REMARK   14  A    between atoms: C_30  and  C_31
REMARK   15  A    between atoms: C_34  and  N_42
REMARK   16  A    between atoms: C_36  and  O_38
REMARK   17  A    between atoms: C_39  and  O_41
REMARK   18  A    between atoms: C_52  and  O_54
REMARK   19  A    between atoms: C_55  and  O_57
REMARK                            x       y       z     vdW  Elec       q    Type
REMARK                         _______ _______ _______ _____ _____    ______ ____
ROOT
ATOM      1  P   UNL     1       2.721  -2.460   2.545  0.00  0.00    +0.492 P 
ATOM      2  O   UNL     1       1.536  -3.103   1.884  0.00  0.00    -0.226 OA
ENDROOT
BRANCH   1   3
ATOM      3  O   UNL     1       3.293  -1.278   1.596  0.00  0.00    -0.302 OA
ATOM      4  H   UNL     1       2.608  -1.147   0.923  0.00  0.00    +0.222 HD
ENDBRANCH   1   3
BRANCH   1   5
ATOM      5  O   UNL     1       1.985  -1.129   3.518  0.00  0.00    -0.186 OA
BRANCH   5   6
ATOM      6  P   UNL     1       3.019  -0.050   4.390  0.00  0.00    +0.483 P 
ATOM      7  O   UNL     1       1.953   0.103   5.470  0.00  0.00    -0.227 OA
BRANCH   6   8
ATOM      8  O   UNL     1       2.635   1.095   3.286  0.00  0.00    -0.302 OA
ATOM      9  H   UNL     1       1.796   1.505   3.577  0.00  0.00    +0.222 HD
ENDBRANCH   6   8
BRANCH   6  10
ATOM     10  O   UNL     1       4.053   1.029   5.261  0.00  0.00    -0.284 OA
BRANCH  10  11
ATOM     11  C   UNL     1       4.782   1.969   4.467  0.00  0.00    +0.206 C 
BRANCH  11  12
ATOM     12  C   UNL     1       5.664   2.888   5.309  0.00  0.00    +0.178 C 
ATOM     13  C   UNL     1       4.885   3.654   6.378  0.00  0.00    +0.178 C 
ATOM     14  C   UNL     1       5.153   2.909   7.680  0.00  0.00    +0.195 C 
ATOM     15  C   UNL     1       6.082   1.760   7.270  0.00  0.00    +0.253 C 
ATOM     16  O   UNL     1       6.655   2.109   5.998  0.00  0.00    -0.346 OA
BRANCH  15  17
ATOM     17  N   UNL     1       7.148   1.534   8.224  0.00  0.00    -0.286 N 
ATOM     18  C   UNL     1       6.939   1.181   9.529  0.00  0.00    +0.167 A 
ATOM     19  N   UNL     1       5.764   0.973  10.143  0.00  0.00    -0.216 NA
ATOM     20  C   UNL     1       5.968   0.667  11.445  0.00  0.00    +0.225 A 
ATOM     21  N   UNL     1       7.134   0.590  12.119  0.00  0.00    -0.219 NA
ATOM     22  C   UNL     1       8.280   0.845  11.450  0.00  0.00    +0.147 A 
ATOM     23  N   UNL     1       9.482   0.806  12.149  0.00  0.00    -0.341 N 
ATOM     24  H   UNL     1      10.293   0.678  11.557  0.00  0.00    +0.144 HD
ATOM     25  H   UNL     1       9.417   0.259  12.996  0.00  0.00    +0.144 HD
ATOM     26  C   UNL     1       8.231   1.148  10.099  0.00  0.00    +0.147 A 
ATOM     27  N   UNL     1       9.174   1.399   9.125  0.00  0.00    -0.231 NA
ATOM     28  C   UNL     1       8.496   1.623   8.019  0.00  0.00    +0.203 A 
ENDBRANCH  15  17
BRANCH  14  29
ATOM     29  O   UNL     1       3.938   2.435   8.260  0.00  0.00    -0.385 OA
ATOM     30  H   UNL     1       4.179   1.950   9.076  0.00  0.00    +0.210 HD
ENDBRANCH  14  29
BRANCH  13  31
ATOM     31  O   UNL     1       5.397   4.995   6.465  0.00  0.00    -0.386 OA
ATOM     32  H   UNL     1       6.365   4.958   6.569  0.00  0.00    +0.210 HD
ENDBRANCH  13  31
ENDBRANCH  11  12
ENDBRANCH  10  11
ENDBRANCH   6  10
ENDBRANCH   5   6
ENDBRANCH   1   5
BRANCH   1  33
ATOM     33  O   UNL     1       4.081  -3.386   1.942  0.00  0.00    -0.186 OA
BRANCH  33  34
ATOM     34  P   UNL     1       5.783  -3.079   1.995  0.00  0.00    +0.483 P 
ATOM     35  O   UNL     1       6.042  -4.330   2.828  0.00  0.00    -0.227 OA
BRANCH  34  36
ATOM     36  O   UNL     1       7.485  -2.773   2.048  0.00  0.00    -0.302 OA
ATOM     37  H   UNL     1       7.832  -3.561   2.520  0.00  0.00    +0.222 HD
ENDBRANCH  34  36
BRANCH  34  38
ATOM     38  O   UNL     1       5.914  -3.440   0.383  0.00  0.00    -0.284 OA
BRANCH  38  39
ATOM     39  C   UNL     1       5.705  -2.295  -0.440  0.00  0.00    +0.206 C 
BRANCH  39  43
ATOM     40  C   UNL     1       5.244  -1.572  -3.965  0.00  0.00    +0.253 C 
ATOM     41  C   UNL     1       4.405  -2.847  -3.822  0.00  0.00    +0.195 C 
ATOM     42  C   UNL     1       4.969  -3.552  -2.583  0.00  0.00    +0.178 C 
ATOM     43  C   UNL     1       5.891  -2.516  -1.938  0.00  0.00    +0.178 C 
ATOM     44  O   UNL     1       5.600  -1.256  -2.592  0.00  0.00    -0.346 OA
BRANCH  40  52
ATOM     45  N   UNL     1       9.739  -2.105  -7.993  0.00  0.00    -0.341 N 
ATOM     46  H   UNL     1      10.104  -1.226  -7.646  0.00  0.00    +0.144 HD
ATOM     47  H   UNL     1       9.796  -2.278  -8.989  0.00  0.00    +0.144 HD
ATOM     48  C   UNL     1       8.473  -2.407  -7.499  0.00  0.00    +0.147 A 
ATOM     49  C   UNL     1       7.967  -1.855  -6.309  0.00  0.00    +0.147 A 
ATOM     50  N   UNL     1       8.493  -0.943  -5.419  0.00  0.00    -0.231 NA
ATOM     51  C   UNL     1       7.553  -0.788  -4.512  0.00  0.00    +0.203 A 
ATOM     52  N   UNL     1       6.454  -1.589  -4.762  0.00  0.00    -0.286 N 
ATOM     53  C   UNL     1       6.690  -2.240  -5.935  0.00  0.00    +0.167 A 
ATOM     54  N   UNL     1       5.876  -3.070  -6.601  0.00  0.00    -0.216 NA
ATOM     55  C   UNL     1       6.465  -3.539  -7.719  0.00  0.00    +0.225 A 
ATOM     56  N   UNL     1       7.696  -3.263  -8.199  0.00  0.00    -0.219 NA
ENDBRANCH  40  52
BRANCH  42  57
ATOM     57  O   UNL     1       5.716  -4.697  -2.985  0.00  0.00    -0.386 OA
ATOM     58  H   UNL     1       5.931  -5.207  -2.182  0.00  0.00    +0.210 HD
ENDBRANCH  42  57
BRANCH  41  59
ATOM     59  O   UNL     1       3.025  -2.491  -3.571  0.00  0.00    -0.385 OA
ATOM     60  H   UNL     1       2.989  -1.903  -2.798  0.00  0.00    +0.210 HD
ENDBRANCH  41  59
ENDBRANCH  39  43
ENDBRANCH  38  39
ENDBRANCH  34  38
ENDBRANCH  33  34
ENDBRANCH   1  33
TORSDOF 19
