REMARK  Name = 
REMARK  2 active torsions:
REMARK  status: ('A' for Active; 'I' for Inactive)
REMARK    1  A    between atoms: C_5  and  C_7
REMARK    2  A    between atoms: C_7  and  C_8
REMARK                            x       y       z     vdW  Elec       q    Type
REMARK                         _______ _______ _______ _____ _____    ______ ____
ROOT
ATOM      1  N   UNL     1       3.293  -0.329  -1.450  0.00  0.00    -0.291 N 
ATOM      2  H   UNL     1       3.692   0.612  -1.430  0.00  0.00    +0.254 HD
ATOM      3  H   UNL     1       3.223  -0.716  -2.380  0.00  0.00    +0.254 HD
ATOM      4  C   UNL     1       3.735  -1.138  -0.469  0.00  0.00    +0.375 C 
ATOM      5  N   UNL     1       4.384  -0.635   0.616  0.00  0.00    -0.175 N 
ATOM      6  H   UNL     1       4.648  -1.349   1.281  0.00  0.00    +0.254 HD
ATOM      7  C   UNL     1       4.726   0.685   0.853  0.00  0.00    +0.280 C 
ATOM      8  O   UNL     1       4.574   1.588   0.030  0.00  0.00    -0.257 OA
ATOM      9  N   UNL     1       3.588  -2.410  -0.476  0.00  0.00    -0.131 NA
ATOM     10  H   UNL     1       3.063  -2.674  -1.314  0.00  0.00    +0.306 HD
ENDROOT
BRANCH   7  11
ATOM     11  C   UNL     1       5.363   0.921   2.211  0.00  0.00    +0.152 C 
BRANCH  11  12
ATOM     12  C   UNL     1       6.871   0.823   2.159  0.00  0.00    -0.001 A 
ATOM     13  C   UNL     1       7.528  -0.412   2.329  0.00  0.00    +0.046 A 
ATOM     14 CL   UNL     1       6.665  -1.875   2.658  0.00  0.00    -0.083 Cl
ATOM     15  C   UNL     1       8.922  -0.512   2.240  0.00  0.00    +0.020 A 
ATOM     16  C   UNL     1       9.691   0.616   1.979  0.00  0.00    +0.003 A 
ATOM     17  C   UNL     1       9.064   1.847   1.804  0.00  0.00    +0.020 A 
ATOM     18  C   UNL     1       7.671   1.951   1.888  0.00  0.00    +0.046 A 
ATOM     19 CL   UNL     1       6.995   3.525   1.650  0.00  0.00    -0.083 Cl
ENDBRANCH  11  12
ENDBRANCH   7  11
TORSDOF 2
