REMARK  Name = 
REMARK  3 active torsions:
REMARK  status: ('A' for Active; 'I' for Inactive)
REMARK    1  A    between atoms: O_1  and  C_2
REMARK    2  A    between atoms: C_2  and  C_3
REMARK    3  A    between atoms: C_7  and  O_8
REMARK                            x       y       z     vdW  Elec       q    Type
REMARK                         _______ _______ _______ _____ _____    ______ ____
ROOT
ATOM      1  C   UNL     1       2.766  -0.801  -1.206  0.00  0.00    +0.134 A 
ATOM      2  O   UNL     1       2.657  -2.169  -0.968  0.00  0.00    -0.462 OA
ATOM      3  C   UNL     1       2.860  -3.039  -2.013  0.00  0.00    +0.244 A 
ATOM      4  C   UNL     1       3.181  -2.670  -3.254  0.00  0.00    +0.199 A 
ATOM      5  C   UNL     1       3.344  -1.223  -3.528  0.00  0.00    +0.226 A 
ATOM      6  O   UNL     1       3.652  -0.835  -4.650  0.00  0.00    -0.284 OA
ATOM      7  C   UNL     1       3.105  -0.302  -2.406  0.00  0.00    +0.098 A 
ENDROOT
BRANCH   4   8
ATOM      8  O   UNL     1       3.357  -3.571  -4.284  0.00  0.00    -0.501 OA
ATOM      9  H   UNL     1       3.558  -3.017  -5.068  0.00  0.00    +0.292 HD
ENDBRANCH   4   8
BRANCH   1  10
ATOM     10  C   UNL     1       2.455   0.040   0.000  0.00  0.00    +0.230 C 
BRANCH  10  11
ATOM     11  O   UNL     1       2.537   1.427  -0.299  0.00  0.00    -0.387 OA
ATOM     12  H   UNL     1       2.280   1.903   0.509  0.00  0.00    +0.210 HD
ENDBRANCH  10  11
ENDBRANCH   1  10
TORSDOF 3
