REMARK  Name = 
REMARK  12 active torsions:
REMARK  status: ('A' for Active; 'I' for Inactive)
REMARK    1  A    between atoms: C_1  and  C_2
REMARK    2  A    between atoms: C_2  and  C_3
REMARK    3  A    between atoms: C_2  and  C_4
REMARK    4  A    between atoms: C_2  and  N_5
REMARK    5  A    between atoms: N_5  and  C_6
REMARK    6  A    between atoms: C_6  and  C_7
REMARK    7  A    between atoms: C_7  and  O_8
REMARK    8  A    between atoms: C_7  and  C_9
REMARK    9  A    between atoms: C_9  and  O_10
REMARK   10  A    between atoms: O_10  and  C_11
REMARK   11  A    between atoms: C_18  and  O_20
REMARK   12  A    between atoms: C_21  and  O_23
REMARK                            x       y       z     vdW  Elec       q    Type
REMARK                         _______ _______ _______ _____ _____    ______ ____
ROOT
ATOM      1  C   UNL     1       8.340  -3.730  -2.415  0.00  0.00    +0.124 A 
ATOM      2  C   UNL     1       8.795  -4.844  -3.154  0.00  0.00    +0.000 A 
ATOM      3  C   UNL     1       7.796  -5.836  -3.715  0.00  0.00    +0.073 C 
ATOM      4  C   UNL     1       8.395  -6.799  -4.743  0.00  0.00    +0.148 C 
ATOM      5  C   UNL     1       9.732  -7.376  -4.248  0.00  0.00    +0.148 C 
ATOM      6  C   UNL     1      10.742  -6.240  -4.073  0.00  0.00    +0.069 C 
ATOM      7  C   UNL     1      10.184  -5.050  -3.320  0.00  0.00    -0.038 A 
ATOM      8  C   UNL     1      11.086  -4.115  -2.798  0.00  0.00    +0.004 A 
ATOM      9  C   UNL     1      10.630  -3.006  -2.094  0.00  0.00    +0.004 A 
ATOM     10  C   UNL     1       9.264  -2.818  -1.896  0.00  0.00    +0.046 A 
ENDROOT
BRANCH   5  11
ATOM     11  O   UNL     1       9.600  -8.104  -3.021  0.00  0.00    -0.389 OA
ATOM     12  H   UNL     1       9.322  -7.484  -2.325  0.00  0.00    +0.210 HD
ENDBRANCH   5  11
BRANCH   4  13
ATOM     13  O   UNL     1       7.475  -7.854  -5.023  0.00  0.00    -0.389 OA
ATOM     14  H   UNL     1       6.657  -7.455  -5.365  0.00  0.00    +0.210 HD
ENDBRANCH   4  13
BRANCH   1  15
ATOM     15  O   UNL     1       6.983  -3.632  -2.252  0.00  0.00    -0.489 OA
BRANCH  15  16
ATOM     16  C   UNL     1       6.474  -2.488  -1.549  0.00  0.00    +0.261 C 
BRANCH  16  17
ATOM     17  C   UNL     1       4.938  -2.523  -1.606  0.00  0.00    +0.166 C 
BRANCH  17  18
ATOM     18  O   UNL     1       4.458  -3.718  -0.969  0.00  0.00    -0.387 OA
ATOM     19  H   UNL     1       4.980  -4.453  -1.342  0.00  0.00    +0.210 HD
ENDBRANCH  17  18
BRANCH  17  20
ATOM     20  C   UNL     1       4.461  -2.490  -3.072  0.00  0.00    +0.116 C 
BRANCH  20  21
ATOM     21  N   UNL     1       2.998  -2.464  -3.179  0.00  0.00    -0.309 NA
ATOM     22  H   UNL     1       2.624  -3.226  -2.609  0.00  0.00    +0.123 HD
BRANCH  21  24
ATOM     23  C   UNL     1       2.919  -3.801  -5.293  0.00  0.00    +0.027 C 
ATOM     24  C   UNL     1       2.469  -2.528  -4.555  0.00  0.00    +0.011 C 
ATOM     25  C   UNL     1       0.932  -2.553  -4.454  0.00  0.00    +0.027 C 
ATOM     26  C   UNL     1       2.876  -1.281  -5.360  0.00  0.00    +0.027 C 
ENDBRANCH  21  24
ENDBRANCH  20  21
ENDBRANCH  17  20
ENDBRANCH  16  17
ENDBRANCH  15  16
ENDBRANCH   1  15
TORSDOF 9
