REMARK  Name = 
REMARK  27 active torsions:
REMARK  status: ('A' for Active; 'I' for Inactive)
REMARK    1  A    between atoms: C_1  and  O_2
REMARK    2  A    between atoms: O_2  and  C_3
REMARK    3  A    between atoms: N_5  and  C_6
REMARK    4  A    between atoms: C_6  and  C_8
REMARK    5  A    between atoms: C_6  and  C_52
REMARK    6  A    between atoms: N_10  and  C_11
REMARK    7  A    between atoms: C_11  and  C_13
REMARK    8  A    between atoms: C_11  and  C_20
REMARK    9  A    between atoms: C_13  and  C_14
REMARK   10  A    between atoms: C_20  and  O_22
REMARK   11  A    between atoms: C_20  and  C_23
REMARK   12  A    between atoms: C_23  and  N_24
REMARK   13  A    between atoms: N_24  and  C_25
REMARK   14  A    between atoms: N_24  and  N_38
REMARK   15  A    between atoms: C_25  and  C_26
REMARK   16  A    between atoms: C_29  and  C_32
REMARK   17  A    between atoms: C_39  and  C_41
REMARK   18  A    between atoms: C_41  and  N_43
REMARK   19  A    between atoms: C_41  and  C_48
REMARK   20  A    between atoms: C_44  and  O_46
REMARK   21  A    between atoms: O_46  and  C_47
REMARK   22  A    between atoms: C_48  and  C_49
REMARK   23  A    between atoms: C_48  and  C_50
REMARK   24  A    between atoms: C_48  and  C_51
REMARK   25  A    between atoms: C_52  and  C_53
REMARK   26  A    between atoms: C_52  and  C_54
REMARK   27  A    between atoms: C_52  and  C_55
REMARK                            x       y       z     vdW  Elec       q    Type
REMARK                         _______ _______ _______ _____ _____    ______ ____
ROOT
ATOM      1  N   UNL     1      -0.058   6.610  -2.287  0.00  0.00    -0.220 NA
ENDROOT
BRANCH   1   2
ATOM      2  N   UNL     1      -0.555   7.964  -2.308  0.00  0.00    -0.246 N 
ATOM      3  H   UNL     1       0.099   8.740  -2.203  0.00  0.00    +0.169 HD
ATOM      4  C   UNL     1      -1.887   8.250  -2.663  0.00  0.00    +0.248 C 
ATOM      5  O   UNL     1      -2.640   7.454  -3.221  0.00  0.00    -0.272 OA
BRANCH   4   6
ATOM      6  C   UNL     1      -2.317   9.717  -2.368  0.00  0.00    +0.169 C 
BRANCH   6   7
ATOM      7  N   UNL     1      -2.146  10.437  -3.622  0.00  0.00    -0.269 N 
ATOM      8  H   UNL     1      -2.839  10.313  -4.356  0.00  0.00    +0.153 HD
ATOM      9  C   UNL     1      -0.950  10.920  -4.027  0.00  0.00    +0.401 C 
ATOM     10  O   UNL     1       0.081  10.870  -3.373  0.00  0.00    -0.226 OA
BRANCH   9  11
ATOM     11  O   UNL     1      -1.083  11.440  -5.271  0.00  0.00    -0.454 OA
ATOM     12  C   UNL     1       0.109  12.028  -5.790  0.00  0.00    +0.282 C 
ENDBRANCH   9  11
ENDBRANCH   6   7
BRANCH   6  13
ATOM     13  C   UNL     1      -3.759   9.921  -1.778  0.00  0.00    -0.011 C 
ATOM     14  C   UNL     1      -4.881   9.319  -2.643  0.00  0.00    +0.013 C 
ATOM     15  C   UNL     1      -4.042  11.435  -1.624  0.00  0.00    +0.013 C 
ATOM     16  C   UNL     1      -3.874   9.305  -0.371  0.00  0.00    +0.013 C 
ENDBRANCH   6  13
ENDBRANCH   4   6
ENDBRANCH   1   2
BRANCH   1  17
ATOM     17  C   UNL     1       1.393   6.506  -1.937  0.00  0.00    +0.139 C 
BRANCH  17  18
ATOM     18  C   UNL     1       2.004   5.095  -2.220  0.00  0.00    +0.151 C 
BRANCH  18  19
ATOM     19  O   UNL     1       1.415   4.164  -1.300  0.00  0.00    -0.389 OA
ATOM     20  H   UNL     1       1.565   3.261  -1.652  0.00  0.00    +0.210 HD
ENDBRANCH  18  19
BRANCH  18  21
ATOM     21  C   UNL     1       3.541   4.936  -2.042  0.00  0.00    +0.107 C 
BRANCH  21  23
ATOM     22  C   UNL     1       4.025   2.525  -1.432  0.00  0.00    +0.234 C 
ATOM     23  N   UNL     1       3.934   3.533  -2.376  0.00  0.00    -0.308 N 
ATOM     24  H   UNL     1       3.778   3.240  -3.333  0.00  0.00    +0.149 HD
ATOM     25  O   UNL     1       4.015   2.752  -0.220  0.00  0.00    -0.274 OA
BRANCH  22  26
ATOM     26  C   UNL     1       4.278   1.067  -1.964  0.00  0.00    +0.167 C 
BRANCH  26  28
ATOM     27  C   UNL     1       2.016   0.841  -2.945  0.00  0.00    +0.401 C 
ATOM     28  N   UNL     1       3.366   0.638  -3.037  0.00  0.00    -0.269 N 
ATOM     29  H   UNL     1       3.546  -0.268  -3.444  0.00  0.00    +0.153 HD
ATOM     30  O   UNL     1       1.479   1.692  -2.261  0.00  0.00    -0.226 OA
BRANCH  27  32
ATOM     31  C   UNL     1      -0.040   0.191  -3.852  0.00  0.00    +0.282 C 
ATOM     32  O   UNL     1       1.371  -0.035  -3.753  0.00  0.00    -0.454 OA
ENDBRANCH  27  32
ENDBRANCH  26  28
BRANCH  26  33
ATOM     33  C   UNL     1       5.781   0.841  -2.373  0.00  0.00    -0.011 C 
ATOM     34  C   UNL     1       6.161   1.592  -3.663  0.00  0.00    +0.013 C 
ATOM     35  C   UNL     1       6.077  -0.655  -2.633  0.00  0.00    +0.013 C 
ATOM     36  C   UNL     1       6.709   1.292  -1.225  0.00  0.00    +0.013 C 
ENDBRANCH  26  33
ENDBRANCH  22  26
ENDBRANCH  21  23
BRANCH  21  37
ATOM     37  C   UNL     1       4.417   5.958  -2.801  0.00  0.00    +0.060 C 
BRANCH  37  38
ATOM     38  C   UNL     1       4.360   5.900  -4.311  0.00  0.00    -0.046 A 
ATOM     39  C   UNL     1       5.306   5.150  -5.024  0.00  0.00    +0.004 A 
ATOM     40  C   UNL     1       5.266   5.084  -6.417  0.00  0.00    +0.000 A 
ATOM     41  C   UNL     1       4.288   5.782  -7.119  0.00  0.00    +0.000 A 
ATOM     42  C   UNL     1       3.354   6.547  -6.427  0.00  0.00    +0.000 A 
ATOM     43  C   UNL     1       3.392   6.609  -5.034  0.00  0.00    +0.004 A 
ENDBRANCH  37  38
ENDBRANCH  21  37
ENDBRANCH  18  21
ENDBRANCH  17  18
ENDBRANCH   1  17
BRANCH   1  44
ATOM     44  C   UNL     1      -0.901   5.710  -1.453  0.00  0.00    +0.140 C 
BRANCH  44  45
ATOM     45  C   UNL     1      -0.917   5.944   0.049  0.00  0.00    -0.032 A 
ATOM     46  C   UNL     1      -0.634   4.908   0.944  0.00  0.00    +0.005 A 
ATOM     47  C   UNL     1      -0.853   5.068   2.319  0.00  0.00    +0.010 A 
ATOM     48  C   UNL     1      -1.386   6.258   2.842  0.00  0.00    +0.000 A 
ATOM     49  C   UNL     1      -1.586   7.312   1.945  0.00  0.00    +0.010 A 
ATOM     50  C   UNL     1      -1.337   7.160   0.584  0.00  0.00    +0.005 A 
BRANCH  48  51
ATOM     51  C   UNL     1      -1.770   6.421   4.255  0.00  0.00    +0.071 A 
ATOM     52  N   UNL     1      -1.742   7.696   4.729  0.00  0.00    -0.255 NA
ATOM     53  C   UNL     1      -2.152   7.913   5.995  0.00  0.00    +0.111 A 
ATOM     54  C   UNL     1      -2.599   6.913   6.837  0.00  0.00    +0.020 A 
ATOM     55  C   UNL     1      -2.630   5.613   6.349  0.00  0.00    +0.004 A 
ATOM     56  C   UNL     1      -2.214   5.362   5.044  0.00  0.00    +0.028 A 
ENDBRANCH  48  51
ENDBRANCH  44  45
ENDBRANCH   1  44
TORSDOF 19
