REMARK  Name = 
REMARK  6 active torsions:
REMARK  status: ('A' for Active; 'I' for Inactive)
REMARK    1  A    between atoms: C_1  and  C_2
REMARK    2  A    between atoms: C_2  and  N_3
REMARK    3  A    between atoms: C_2  and  C_4
REMARK    4  A    between atoms: N_6  and  C_7
REMARK    5  A    between atoms: C_8  and  C_9
REMARK    6  A    between atoms: C_13  and  C_14
REMARK                            x       y       z     vdW  Elec       q    Type
REMARK                         _______ _______ _______ _____ _____    ______ ____
ROOT
ATOM      1  C   UNL     1       5.485  -0.379   0.452  0.00  0.00    +0.234 C 
ATOM      2  N   UNL     1       4.530  -1.146   1.108  0.00  0.00    -0.284 N 
ATOM      3  H   UNL     1       3.867  -1.524   0.435  0.00  0.00    +0.155 HD
ATOM      4  O   UNL     1       6.661  -0.269   0.782  0.00  0.00    -0.274 OA
ENDROOT
BRANCH   2   5
ATOM      5  C   UNL     1       4.888  -1.967   2.199  0.00  0.00    +0.039 A 
ATOM      6  C   UNL     1       4.958  -3.363   2.010  0.00  0.00    -0.029 A 
ATOM      7  C   UNL     1       4.920  -3.971   0.636  0.00  0.00    +0.045 C 
ATOM      8  C   UNL     1       5.189  -4.186   3.118  0.00  0.00    +0.005 A 
ATOM      9  C   UNL     1       5.353  -3.644   4.389  0.00  0.00    +0.001 A 
ATOM     10  C   UNL     1       5.320  -2.263   4.563  0.00  0.00    +0.005 A 
ATOM     11  C   UNL     1       5.096  -1.404   3.472  0.00  0.00    -0.029 A 
ATOM     12  C   UNL     1       5.061   0.073   3.754  0.00  0.00    +0.045 C 
ENDBRANCH   2   5
BRANCH   1  14
ATOM     13  C   UNL     1       5.934   1.015  -1.621  0.00  0.00    +0.033 C 
ATOM     14  C   UNL     1       4.866   0.372  -0.748  0.00  0.00    +0.135 C 
BRANCH  14  15
ATOM     15  N   UNL     1       4.017  -0.552  -1.539  0.00  0.00    -0.320 NA
ATOM     16  H   UNL     1       3.547  -0.006  -2.269  0.00  0.00    +0.119 HD
ATOM     17  H   UNL     1       4.629  -1.190  -2.048  0.00  0.00    +0.119 HD
ENDBRANCH  14  15
ENDBRANCH   1  14
TORSDOF 3
