REMARK  Name = 
REMARK  1 active torsions:
REMARK  status: ('A' for Active; 'I' for Inactive)
REMARK    1  A    between atoms: C_9  and  O_10
REMARK                            x       y       z     vdW  Elec       q    Type
REMARK                         _______ _______ _______ _____ _____    ______ ____
ROOT
ATOM      1  N   UNL     1       1.126  -0.034   0.131  0.00  0.00    -0.327 N 
ATOM      2  H   UNL     1       0.760  -0.905  -0.228  0.00  0.00    +0.145 HD
ATOM      3  H   UNL     1       0.744   0.826  -0.237  0.00  0.00    +0.145 HD
ATOM      4  C   UNL     1       2.505  -0.030   0.051  0.00  0.00    +0.218 A 
ATOM      5  N   UNL     1       3.102  -1.230  -0.005  0.00  0.00    -0.178 NA
ATOM      6  C   UNL     1       4.440  -1.286  -0.063  0.00  0.00    +0.245 A 
ATOM      7  C   UNL     1       5.141  -0.110  -0.079  0.00  0.00    +0.166 A 
ATOM      8  N   UNL     1       6.441   0.278  -0.122  0.00  0.00    -0.251 N 
ATOM      9  H   UNL     1       7.289  -0.275  -0.145  0.00  0.00    +0.191 HD
ATOM     10  N   UNL     1       6.560   1.617  -0.130  0.00  0.00    -0.066 NA
ATOM     11  N   UNL     1       5.331   2.124  -0.084  0.00  0.00    -0.109 NA
ATOM     12  C   UNL     1       4.447   1.082  -0.048  0.00  0.00    +0.209 A 
ATOM     13  N   UNL     1       3.106   1.160   0.008  0.00  0.00    -0.191 NA
ENDROOT
BRANCH   6  14
ATOM     14  O   UNL     1       4.990  -2.539  -0.104  0.00  0.00    -0.491 OA
ATOM     15  H   UNL     1       5.953  -2.471  -0.105  0.00  0.00    +0.294 HD
ENDBRANCH   6  14
TORSDOF 1
