REMARK  Name = 
REMARK  25 active torsions:
REMARK  status: ('A' for Active; 'I' for Inactive)
REMARK    1  A    between atoms: C_4  and  O_6
REMARK    2  A    between atoms: C_7  and  C_8
REMARK    3  A    between atoms: C_11  and  O_13
REMARK    4  A    between atoms: C_15  and  C_16
REMARK    5  A    between atoms: C_17  and  O_45
REMARK    6  A    between atoms: C_20  and  O_21
REMARK    7  A    between atoms: C_22  and  O_24
REMARK    8  A    between atoms: O_24  and  C_25
REMARK    9  A    between atoms: C_25  and  C_27
REMARK   10  A    between atoms: C_35  and  O_38
REMARK   11  A    between atoms: O_38  and  C_39
REMARK   12  A    between atoms: C_39  and  C_40
REMARK   13  A    between atoms: C_42  and  C_43
REMARK   14  A    between atoms: C_42  and  C_44
REMARK   15  A    between atoms: O_45  and  C_46
REMARK   16  A    between atoms: C_46  and  C_48
REMARK   17  A    between atoms: C_48  and  O_50
REMARK   18  A    between atoms: C_48  and  C_51
REMARK   19  A    between atoms: C_51  and  N_53
REMARK   20  A    between atoms: C_51  and  C_61
REMARK   21  A    between atoms: C_54  and  O_56
REMARK   22  A    between atoms: O_56  and  C_57
REMARK   23  A    between atoms: C_57  and  C_58
REMARK   24  A    between atoms: C_57  and  C_59
REMARK   25  A    between atoms: C_57  and  C_60
REMARK                            x       y       z     vdW  Elec       q    Type
REMARK                         _______ _______ _______ _____ _____    ______ ____
ROOT
ATOM      1  C   UNL     1      -0.000  -0.000  -0.000  0.00  0.00    +0.167 C 
ATOM      2  O   UNL     1      -0.000  -0.000  -0.000  0.00  0.00    -0.368 OA
ATOM      3  C   UNL     1      -0.000  -0.000   0.000  0.00  0.00    +0.211 C 
ATOM      4  C   UNL     1      -0.000  -0.000  -0.000  0.00  0.00    +0.170 C 
ATOM      5  C   UNL     1      -0.000  -0.000  -0.000  0.00  0.00    +0.097 C 
ATOM      6  C   UNL     1      -0.000  -0.000  -0.000  0.00  0.00    +0.065 C 
ATOM      7  C   UNL     1      -0.000  -0.000  -0.000  0.00  0.00    +0.022 C 
ATOM      8  C   UNL     1      -0.000  -0.000  -0.000  0.00  0.00    +0.174 C 
ATOM      9  O   UNL     1      -0.000  -0.000   0.000  0.00  0.00    -0.294 OA
ATOM     10  C   UNL     1      -0.000  -0.000  -0.000  0.00  0.00    +0.208 C 
ATOM     11  C   UNL     1      -0.000  -0.000  -0.000  0.00  0.00    -0.023 C 
ATOM     12  C   UNL     1      -0.000  -0.000   0.000  0.00  0.00    +0.022 C 
ATOM     13  C   UNL     1      -0.000  -0.000   0.000  0.00  0.00    +0.018 C 
ATOM     14  C   UNL     1      -0.000  -0.000   0.000  0.00  0.00    +0.018 C 
ATOM     15  C   UNL     1      -0.000  -0.000   0.000  0.00  0.00    +0.116 C 
ATOM     16  C   UNL     1      -0.000  -0.000  -0.000  0.00  0.00    +0.088 C 
ATOM     17  C   UNL     1      -0.000  -0.000  -0.000  0.00  0.00    +0.205 C 
ATOM     18  C   UNL     1      -0.000  -0.000  -0.000  0.00  0.00    -0.030 C 
ATOM     19  C   UNL     1      -0.000  -0.000  -0.000  0.00  0.00    +0.043 C 
ATOM     20  C   UNL     1      -0.000  -0.000  -0.000  0.00  0.00    +0.131 C 
ATOM     21  C   UNL     1      -0.000  -0.000  -0.000  0.00  0.00    +0.217 C 
ATOM     22  C   UNL     1      -0.000  -0.000   0.000  0.00  0.00    +0.068 C 
ENDROOT
BRANCH  10  23
ATOM     23  O   UNL     1      -0.000  -0.000  -0.000  0.00  0.00    -0.380 OA
ATOM     24  H   UNL     1       0.000   0.000   0.000  0.00  0.00    +0.211 HD
ENDBRANCH  10  23
BRANCH  15  25
ATOM     25  O   UNL     1      -0.000  -0.000  -0.000  0.00  0.00    -0.384 OA
ATOM     26  H   UNL     1       0.000   0.000   0.000  0.00  0.00    +0.210 HD
ENDBRANCH  15  25
BRANCH  20  27
ATOM     27  O   UNL     1      -0.000  -0.000  -0.000  0.00  0.00    -0.391 OA
ATOM     28  H   UNL     1       0.000   0.000   0.000  0.00  0.00    +0.210 HD
ENDBRANCH  20  27
BRANCH  17  29
ATOM     29  O   UNL     1      -0.000  -0.000   0.000  0.00  0.00    -0.455 OA
BRANCH  29  30
ATOM     30  C   UNL     1      -0.000  -0.000  -0.000  0.00  0.00    +0.339 C 
ATOM     31  O   UNL     1      -0.000  -0.000  -0.000  0.00  0.00    -0.248 OA
BRANCH  30  32
ATOM     32  C   UNL     1      -0.000  -0.000  -0.000  0.00  0.00    +0.247 C 
BRANCH  32  33
ATOM     33  O   UNL     1      -0.000  -0.000  -0.000  0.00  0.00    -0.379 OA
ATOM     34  H   UNL     1      -0.000  -0.000  -0.000  0.00  0.00    +0.211 HD
ENDBRANCH  32  33
BRANCH  32  35
ATOM     35  C   UNL     1      -0.000  -0.000  -0.000  0.00  0.00    +0.146 C 
BRANCH  35  36
ATOM     36  C   UNL     1      -0.000  -0.000  -0.000  0.00  0.00    -0.024 A 
ATOM     37  C   UNL     1      -0.000  -0.000  -0.000  0.00  0.00    +0.005 A 
ATOM     38  C   UNL     1      -0.000  -0.000  -0.000  0.00  0.00    +0.000 A 
ATOM     39  C   UNL     1      -0.000  -0.000  -0.000  0.00  0.00    +0.000 A 
ATOM     40  C   UNL     1      -0.000  -0.000  -0.000  0.00  0.00    +0.000 A 
ATOM     41  C   UNL     1      -0.000  -0.000  -0.000  0.00  0.00    +0.005 A 
ENDBRANCH  35  36
BRANCH  35  42
ATOM     42  N   UNL     1      -0.000  -0.000  -0.000  0.00  0.00    -0.271 N 
ATOM     43  H   UNL     1      -0.000  -0.000  -0.000  0.00  0.00    +0.153 HD
ATOM     44  C   UNL     1      -0.000  -0.000  -0.000  0.00  0.00    +0.401 C 
ATOM     45  O   UNL     1      -0.000  -0.000  -0.000  0.00  0.00    -0.226 OA
BRANCH  44  46
ATOM     46  O   UNL     1      -0.000  -0.000  -0.000  0.00  0.00    -0.445 OA
BRANCH  46  47
ATOM     47  C   UNL     1      -0.000  -0.000  -0.000  0.00  0.00    +0.107 C 
ATOM     48  C   UNL     1      -0.000  -0.000  -0.000  0.00  0.00    +0.055 C 
ATOM     49  C   UNL     1      -0.000  -0.000  -0.000  0.00  0.00    +0.055 C 
ATOM     50  C   UNL     1      -0.000  -0.000  -0.000  0.00  0.00    +0.055 C 
ENDBRANCH  46  47
ENDBRANCH  44  46
ENDBRANCH  35  42
ENDBRANCH  32  35
ENDBRANCH  30  32
ENDBRANCH  29  30
ENDBRANCH  17  29
BRANCH  21  51
ATOM     51  O   UNL     1      -0.000  -0.000  -0.000  0.00  0.00    -0.454 OA
BRANCH  51  52
ATOM     52  C   UNL     1      -0.000  -0.000  -0.000  0.00  0.00    +0.340 C 
ATOM     53  O   UNL     1      -0.000  -0.000  -0.000  0.00  0.00    -0.245 OA
BRANCH  52  54
ATOM     54  C   UNL     1      -0.000  -0.000  -0.000  0.00  0.00    +0.059 A 
ATOM     55  C   UNL     1      -0.000  -0.000  -0.000  0.00  0.00    +0.015 A 
ATOM     56  C   UNL     1      -0.000  -0.000  -0.000  0.00  0.00    +0.001 A 
ATOM     57  C   UNL     1      -0.000  -0.000  -0.000  0.00  0.00    +0.000 A 
ATOM     58  C   UNL     1      -0.000  -0.000  -0.000  0.00  0.00    +0.001 A 
ATOM     59  C   UNL     1      -0.000  -0.000  -0.000  0.00  0.00    +0.015 A 
ENDBRANCH  52  54
ENDBRANCH  51  52
ENDBRANCH  21  51
BRANCH   4  60
ATOM     60  O   UNL     1      -0.000  -0.000   0.000  0.00  0.00    -0.453 OA
BRANCH  60  61
ATOM     61  C   UNL     1      -0.000  -0.000  -0.000  0.00  0.00    +0.305 C 
ATOM     62  O   UNL     1      -0.000  -0.000  -0.000  0.00  0.00    -0.251 OA
ATOM     63  C   UNL     1      -0.000  -0.000  -0.000  0.00  0.00    +0.136 C 
ENDBRANCH  60  61
ENDBRANCH   4  60
TORSDOF 17
