REMARK  Name = 
REMARK  9 active torsions:
REMARK  status: ('A' for Active; 'I' for Inactive)
REMARK    1  A    between atoms: O_1  and  C_2
REMARK    2  A    between atoms: C_5  and  C_8
REMARK    3  A    between atoms: N_10  and  C_11
REMARK    4  A    between atoms: C_18  and  O_20
REMARK    5  A    between atoms: O_20  and  C_21
REMARK    6  A    between atoms: C_21  and  C_23
REMARK    7  A    between atoms: C_26  and  C_29
REMARK    8  A    between atoms: C_29  and  C_31
REMARK    9  A    between atoms: C_36  and  O_37
REMARK                            x       y       z     vdW  Elec       q    Type
REMARK                         _______ _______ _______ _____ _____    ______ ____
ROOT
ATOM      1  C   UNL     1       8.654  -1.170  -1.174  0.00  0.00    +0.128 C 
ATOM      2  C   UNL     1       9.043   0.038  -2.073  0.00  0.00    +0.198 C 
ATOM      3  C   UNL     1      10.558   0.279  -2.022  0.00  0.00    +0.048 C 
ATOM      4  C   UNL     1      11.394  -0.562  -2.989  0.00  0.00    +0.019 C 
ATOM      5  C   UNL     1      10.976  -2.019  -3.178  0.00  0.00    +0.081 C 
ATOM      6  N   UNL     1      10.583  -2.691  -1.936  0.00  0.00    -0.314 NA
ATOM      7  H   UNL     1      10.764  -3.689  -2.064  0.00  0.00    +0.122 HD
ATOM      8  C   UNL     1       9.134  -2.551  -1.692  0.00  0.00    +0.106 C 
ENDROOT
BRANCH   1  10
ATOM      9  C   UNL     1       6.227  -1.467  -1.764  0.00  0.00    +0.244 C 
ATOM     10  N   UNL     1       7.212  -1.174  -0.848  0.00  0.00    -0.304 N 
ATOM     11  H   UNL     1       6.960  -1.023   0.120  0.00  0.00    +0.149 HD
ATOM     12  O   UNL     1       6.452  -1.807  -2.925  0.00  0.00    -0.270 OA
BRANCH   9  16
ATOM     13  C   UNL     1       2.126  -1.464  -0.564  0.00  0.00    +0.117 A 
ATOM     14  C   UNL     1       3.026  -0.670   0.142  0.00  0.00    +0.046 A 
ATOM     15  C   UNL     1       4.376  -0.648  -0.224  0.00  0.00    +0.016 A 
ATOM     16  C   UNL     1       4.816  -1.432  -1.297  0.00  0.00    +0.037 A 
ATOM     17  C   UNL     1       3.891  -2.214  -2.007  0.00  0.00    +0.016 A 
ATOM     18  C   UNL     1       2.546  -2.234  -1.641  0.00  0.00    +0.046 A 
BRANCH  13  19
ATOM     19  O   UNL     1       0.820  -1.454  -0.172  0.00  0.00    -0.507 OA
ATOM     20  H   UNL     1       0.313  -2.031  -0.766  0.00  0.00    +0.292 HD
ENDBRANCH  13  19
ENDBRANCH   9  16
ENDBRANCH   1  10
BRANCH   2  21
ATOM     21  O   UNL     1       8.636  -0.203  -3.430  0.00  0.00    -0.456 OA
BRANCH  21  22
ATOM     22  C   UNL     1       8.293   0.836  -4.222  0.00  0.00    +0.340 C 
ATOM     23  O   UNL     1       8.309   2.015  -3.914  0.00  0.00    -0.245 OA
BRANCH  22  24
ATOM     24  C   UNL     1       7.907   0.311  -5.568  0.00  0.00    +0.059 A 
ATOM     25  C   UNL     1       7.937  -1.061  -5.848  0.00  0.00    +0.015 A 
ATOM     26  C   UNL     1       7.560  -1.543  -7.101  0.00  0.00    +0.012 A 
ATOM     27  C   UNL     1       7.026  -0.680  -8.059  0.00  0.00    +0.022 A 
ATOM     28  C   UNL     1       7.054   0.702  -7.813  0.00  0.00    +0.012 A 
ATOM     29  C   UNL     1       7.503   1.196  -6.576  0.00  0.00    +0.015 A 
BRANCH  27  30
ATOM     30  C   UNL     1       6.409  -1.197  -9.322  0.00  0.00    +0.197 C 
ATOM     31  O   UNL     1       6.373  -0.461 -10.308  0.00  0.00    -0.287 OA
BRANCH  30  32
ATOM     32  C   UNL     1       5.878  -2.594  -9.438  0.00  0.00    +0.064 A 
ATOM     33  C   UNL     1       5.296  -3.312  -8.380  0.00  0.00    +0.128 A 
ATOM     34  C   UNL     1       4.948  -4.658  -8.530  0.00  0.00    +0.046 A 
ATOM     35  C   UNL     1       5.109  -5.282  -9.765  0.00  0.00    +0.004 A 
ATOM     36  C   UNL     1       5.603  -4.560 -10.849  0.00  0.00    +0.001 A 
ATOM     37  C   UNL     1       5.991  -3.226 -10.686  0.00  0.00    +0.015 A 
BRANCH  33  38
ATOM     38  O   UNL     1       5.026  -2.705  -7.185  0.00  0.00    -0.506 OA
ATOM     39  H   UNL     1       4.863  -3.376  -6.501  0.00  0.00    +0.292 HD
ENDBRANCH  33  38
ENDBRANCH  30  32
ENDBRANCH  27  30
ENDBRANCH  22  24
ENDBRANCH  21  22
ENDBRANCH   2  21
TORSDOF 9
