REMARK  Name = 
REMARK  5 active torsions:
REMARK  status: ('A' for Active; 'I' for Inactive)
REMARK    1  A    between atoms: N_1  and  S_2
REMARK    2  A    between atoms: S_2  and  C_5
REMARK    3  A    between atoms: C_8  and  C_11
REMARK    4  A    between atoms: N_13  and  C_14
REMARK    5  A    between atoms: C_14  and  C_15
REMARK                            x       y       z     vdW  Elec       q    Type
REMARK                         _______ _______ _______ _____ _____    ______ ____
ROOT
ATOM      1  C   UNL     1       3.289  -1.127   1.393  0.00  0.00    +0.105 A 
ATOM      2  C   UNL     1       2.504  -2.217   1.782  0.00  0.00    +0.029 A 
ATOM      3  C   UNL     1       2.940  -3.053   2.815  0.00  0.00    +0.015 A 
ATOM      4  C   UNL     1       4.159  -2.796   3.456  0.00  0.00    +0.037 A 
ATOM      5  C   UNL     1       4.923  -1.681   3.077  0.00  0.00    +0.015 A 
ATOM      6  C   UNL     1       4.491  -0.844   2.045  0.00  0.00    +0.029 A 
ENDROOT
BRANCH   4   7
ATOM      7  C   UNL     1       4.674  -3.659   4.555  0.00  0.00    +0.244 C 
ATOM      8  N   UNL     1       4.333  -4.993   4.504  0.00  0.00    -0.307 N 
ATOM      9  H   UNL     1       3.845  -5.367   3.703  0.00  0.00    +0.149 HD
ATOM     10  O   UNL     1       5.391  -3.173   5.422  0.00  0.00    -0.270 OA
BRANCH   8  11
ATOM     11  C   UNL     1       4.820  -5.943   5.483  0.00  0.00    +0.139 C 
BRANCH  11  12
ATOM     12  C   UNL     1       3.684  -6.669   6.158  0.00  0.00    -0.030 A 
ATOM     13  C   UNL     1       2.754  -5.961   6.935  0.00  0.00    +0.005 A 
ATOM     14  C   UNL     1       1.710  -6.628   7.577  0.00  0.00    +0.000 A 
ATOM     15  C   UNL     1       1.586  -8.010   7.454  0.00  0.00    +0.000 A 
ATOM     16  C   UNL     1       2.510  -8.727   6.698  0.00  0.00    +0.000 A 
ATOM     17  C   UNL     1       3.555  -8.061   6.053  0.00  0.00    +0.005 A 
ENDBRANCH  11  12
ENDBRANCH   8  11
ENDBRANCH   4   7
BRANCH   1  18
ATOM     18  S   UNL     1       2.755  -0.099   0.055  0.00  0.00    +0.056 S 
ATOM     19  O   UNL     1       1.595  -0.691  -0.566  0.00  0.00    -0.153 OA
ATOM     20  O   UNL     1       2.796   1.279   0.483  0.00  0.00    -0.153 OA
BRANCH  18  21
ATOM     21  N   UNL     1       3.999  -0.292  -1.058  0.00  0.00    -0.204 NA
ATOM     22  H   UNL     1       3.676  -0.852  -1.847  0.00  0.00    +0.144 HD
ATOM     23  H   UNL     1       4.356   0.626  -1.330  0.00  0.00    +0.144 HD
ENDBRANCH  18  21
ENDBRANCH   1  18
TORSDOF 5
