REMARK  Name = 
REMARK  13 active torsions:
REMARK  status: ('A' for Active; 'I' for Inactive)
REMARK    1  A    between atoms: C_2  and  C_3
REMARK    2  A    between atoms: C_2  and  N_10
REMARK    3  A    between atoms: C_2  and  C_33
REMARK    4  A    between atoms: C_3  and  C_4
REMARK    5  A    between atoms: C_11  and  C_13
REMARK    6  A    between atoms: C_13  and  C_15
REMARK    7  A    between atoms: C_13  and  N_22
REMARK    8  A    between atoms: C_15  and  C_16
REMARK    9  A    between atoms: C_23  and  O_25
REMARK   10  A    between atoms: O_25  and  C_26
REMARK   11  A    between atoms: C_26  and  C_27
REMARK   12  A    between atoms: C_33  and  C_35
REMARK   13  A    between atoms: C_35  and  O_36
REMARK                            x       y       z     vdW  Elec       q    Type
REMARK                         _______ _______ _______ _____ _____    ______ ____
ROOT
ATOM      1  C   UNL     1       2.741   3.853   1.272  0.00  0.00    +0.166 C 
ENDROOT
BRANCH   1   4
ATOM      2  N   UNL     1       0.868   3.222   2.741  0.00  0.00    -0.304 N 
ATOM      3  H   UNL     1       0.406   2.937   1.884  0.00  0.00    +0.149 HD
ATOM      4  C   UNL     1       2.171   3.707   2.700  0.00  0.00    +0.234 C 
ATOM      5  O   UNL     1       2.736   4.080   3.722  0.00  0.00    -0.274 OA
BRANCH   2   6
ATOM      6  C   UNL     1       0.104   3.162   3.991  0.00  0.00    +0.146 C 
BRANCH   6   7
ATOM      7  C   UNL     1      -0.805   1.939   3.870  0.00  0.00    +0.179 C 
ATOM      8  O   UNL     1      -1.845   1.947   3.206  0.00  0.00    -0.293 OA
BRANCH   7   9
ATOM      9  C   UNL     1      -0.277   0.653   4.498  0.00  0.00    +0.232 C 
BRANCH   9  10
ATOM     10  O   UNL     1      -1.143  -0.452   4.295  0.00  0.00    -0.387 OA
ATOM     11  H   UNL     1      -2.050  -0.090   4.247  0.00  0.00    +0.210 HD
ENDBRANCH   9  10
ENDBRANCH   7   9
ENDBRANCH   6   7
BRANCH   6  12
ATOM     12  C   UNL     1      -0.708   4.453   4.210  0.00  0.00    +0.065 C 
BRANCH  12  13
ATOM     13  C   UNL     1      -1.589   4.434   5.441  0.00  0.00    -0.045 A 
ATOM     14  C   UNL     1      -2.985   4.491   5.310  0.00  0.00    +0.004 A 
ATOM     15  C   UNL     1      -3.810   4.446   6.435  0.00  0.00    +0.000 A 
ATOM     16  C   UNL     1      -3.250   4.346   7.706  0.00  0.00    +0.000 A 
ATOM     17  C   UNL     1      -1.864   4.309   7.852  0.00  0.00    +0.000 A 
ATOM     18  C   UNL     1      -1.036   4.360   6.727  0.00  0.00    +0.004 A 
ENDBRANCH  12  13
ENDBRANCH   6  12
ENDBRANCH   2   6
ENDBRANCH   1   4
BRANCH   1  19
ATOM     19  N   UNL     1       2.279   5.145   0.737  0.00  0.00    -0.269 N 
ATOM     20  H   UNL     1       1.578   5.186   0.011  0.00  0.00    +0.153 HD
ATOM     21  C   UNL     1       2.783   6.343   1.162  0.00  0.00    +0.401 C 
ATOM     22  O   UNL     1       3.627   6.485   2.029  0.00  0.00    -0.226 OA
BRANCH  21  23
ATOM     23  O   UNL     1       2.205   7.358   0.473  0.00  0.00    -0.446 OA
BRANCH  23  24
ATOM     24  C   UNL     1       2.625   8.671   0.877  0.00  0.00    +0.269 C 
BRANCH  24  25
ATOM     25  C   UNL     1       3.348   9.361  -0.251  0.00  0.00    -0.010 A 
ATOM     26  C   UNL     1       4.722   9.159  -0.445  0.00  0.00    +0.007 A 
ATOM     27  C   UNL     1       5.395   9.810  -1.482  0.00  0.00    +0.000 A 
ATOM     28  C   UNL     1       4.700  10.663  -2.338  0.00  0.00    +0.000 A 
ATOM     29  C   UNL     1       3.333  10.868  -2.156  0.00  0.00    +0.000 A 
ATOM     30  C   UNL     1       2.659  10.219  -1.120  0.00  0.00    +0.007 A 
ENDBRANCH  24  25
ENDBRANCH  23  24
ENDBRANCH  21  23
ENDBRANCH   1  19
BRANCH   1  31
ATOM     31  C   UNL     1       4.269   3.702   1.168  0.00  0.00    +0.067 C 
BRANCH  31  32
ATOM     32  C   UNL     1       4.862   2.406   1.661  0.00  0.00    -0.045 A 
ATOM     33  C   UNL     1       5.421   2.353   2.946  0.00  0.00    +0.004 A 
ATOM     34  C   UNL     1       6.093   1.213   3.385  0.00  0.00    +0.000 A 
ATOM     35  C   UNL     1       6.203   0.108   2.546  0.00  0.00    +0.000 A 
ATOM     36  C   UNL     1       5.628   0.138   1.276  0.00  0.00    +0.000 A 
ATOM     37  C   UNL     1       4.956   1.281   0.833  0.00  0.00    +0.004 A 
ENDBRANCH  31  32
ENDBRANCH   1  31
TORSDOF 13
