REMARK  Name = 
REMARK  16 active torsions:
REMARK  status: ('A' for Active; 'I' for Inactive)
REMARK    1  A    between atoms: C_1  and  C_2
REMARK    2  A    between atoms: C_6  and  C_7
REMARK    3  A    between atoms: C_7  and  O_8
REMARK    4  A    between atoms: O_8  and  P_9
REMARK    5  A    between atoms: P_9  and  O_10
REMARK    6  A    between atoms: P_9  and  O_11
REMARK    7  A    between atoms: C_13  and  C_14
REMARK    8  A    between atoms: C_14  and  N_15
REMARK    9  A    between atoms: N_15  and  CA_16
REMARK   10  A    between atoms: CA_16  and  CB_18
REMARK   11  A    between atoms: CA_16  and  C_23
REMARK   12  A    between atoms: CB_18  and  CG_19
REMARK   13  A    between atoms: CG_19  and  CD_20
REMARK   14  A    between atoms: CD_20  and  OE1_21
REMARK   15  A    between atoms: C_23  and  O_24
REMARK   16  A    between atoms: C_26  and  O_27
REMARK                            x       y       z     vdW  Elec       q    Type
REMARK                         _______ _______ _______ _____ _____    ______ ____
ROOT
ATOM      1  C   UNL     1       8.534  -3.439  -5.829  0.00  0.00    +0.126 C 
ATOM      2  C   UNL     1       8.204  -4.670  -5.048  0.00  0.00    +0.221 A 
ATOM      3  C   UNL     1       7.533  -4.631  -3.815  0.00  0.00    +0.189 A 
ATOM      4  C   UNL     1       7.175  -5.815  -3.144  0.00  0.00    +0.025 A 
ATOM      5  C   UNL     1       7.596  -7.037  -3.717  0.00  0.00    +0.050 A 
ATOM      6  C   UNL     1       8.271  -7.018  -4.945  0.00  0.00    +0.314 A 
ATOM      7  N   UNL     1       8.543  -5.863  -5.562  0.00  0.00    -0.212 N 
ATOM      8  H   UNL     1       9.019  -5.897  -6.464  0.00  0.00    +0.453 HD
ENDROOT
BRANCH   3   9
ATOM      9  O   UNL     1       7.232  -3.385  -3.345  0.00  0.00    -0.501 OA
ATOM     10  H   UNL     1       7.120  -3.369  -2.379  0.00  0.00    +0.292 HD
ENDBRANCH   3   9
BRANCH   4  11
ATOM     11  C   ACE A   0       6.230  -5.791  -1.953  0.00  0.00    +0.121 C 
BRANCH  11  12
ATOM     12  N   UNL     1       6.780  -6.452  -0.760  0.00  0.00    -0.300 NA
ATOM     13  H   UNL     1       7.659  -5.997  -0.510  0.00  0.00    +0.123 HD
BRANCH  12  14
ATOM     14  CA  UNL     1       5.842  -6.333   0.392  0.00  0.00    +0.164 C 
BRANCH  14  15
ATOM     15  C   UNL     1       4.463  -6.914   0.031  0.00  0.00    +0.322 C 
ATOM     16  OXT UNL     1       3.446  -6.240  -0.008  0.00  0.00    -0.249 OA
BRANCH  15  17
ATOM     17  O   UNL     1       4.490  -8.217  -0.337  0.00  0.00    -0.480 OA
ATOM     18  H   UNL     1       5.388  -8.604  -0.301  0.00  0.00    +0.295 HD
ENDBRANCH  15  17
ENDBRANCH  14  15
BRANCH  14  19
ATOM     19  CB  UNL     1       6.377  -7.032   1.658  0.00  0.00    +0.041 C 
BRANCH  19  20
ATOM     20  CG  UNL     1       7.713  -6.465   2.142  0.00  0.00    +0.122 C 
BRANCH  20  21
ATOM     21  CD  UNL     1       8.244  -7.185   3.355  0.00  0.00    +0.305 C 
ATOM     22  OE2 UNL     1       9.263  -7.858   3.334  0.00  0.00    -0.251 OA
BRANCH  21  23
ATOM     23  OE1 UNL     1       7.512  -7.002   4.471  0.00  0.00    -0.481 OA
ATOM     24  HE1 UNL     1       6.738  -6.416   4.384  0.00  0.00    +0.295 HD
ENDBRANCH  21  23
ENDBRANCH  20  21
ENDBRANCH  19  20
ENDBRANCH  14  19
ENDBRANCH  12  14
ENDBRANCH  11  12
ENDBRANCH   4  11
BRANCH   5  25
ATOM     25  C   UNL     1       7.294  -8.395  -3.130  0.00  0.00    +0.214 C 
BRANCH  25  26
ATOM     26  O   UNL     1       8.463  -9.178  -3.287  0.00  0.00    -0.282 OA
BRANCH  26  27
ATOM     27  P   UNL     1       8.233 -10.759  -3.206  0.00  0.00    +0.473 P 
ATOM     28  O   UNL     1       7.707 -11.317  -1.943  0.00  0.00    -0.228 OA
BRANCH  27  29
ATOM     29  O   UNL     1       9.679 -11.289  -3.630  0.00  0.00    -0.303 OA
ATOM     30  H   UNL     1      10.289 -11.316  -2.868  0.00  0.00    +0.222 HD
ENDBRANCH  27  29
BRANCH  27  31
ATOM     31  O   UNL     1       7.439 -11.058  -4.554  0.00  0.00    -0.303 OA
ATOM     32  H   UNL     1       7.853 -11.803  -5.028  0.00  0.00    +0.222 HD
ENDBRANCH  27  31
ENDBRANCH  26  27
ENDBRANCH  25  26
ENDBRANCH   5  25
TORSDOF 15
