REMARK  Name = 
REMARK  14 active torsions:
REMARK  status: ('A' for Active; 'I' for Inactive)
REMARK    1  A    between atoms: C_1  and  C_2
REMARK    2  A    between atoms: C_2  and  C_3
REMARK    3  A    between atoms: C_3  and  C_4
REMARK    4  A    between atoms: C_4  and  N_5
REMARK    5  A    between atoms: N_5  and  C_6
REMARK    6  A    between atoms: N_5  and  C_10
REMARK    7  A    between atoms: C_6  and  C_7
REMARK    8  A    between atoms: C_7  and  C_8
REMARK    9  A    between atoms: C_8  and  C_9
REMARK   10  A    between atoms: C_10  and  C_11
REMARK   11  A    between atoms: C_11  and  C_12
REMARK   12  A    between atoms: C_12  and  O_13
REMARK   13  A    between atoms: C_12  and  C_14
REMARK   14  A    between atoms: C_18  and  C_30
REMARK                            x       y       z     vdW  Elec       q    Type
REMARK                         _______ _______ _______ _____ _____    ______ ____
ROOT
ATOM      1  C   UNL     1       9.082   2.374  -5.118  0.00  0.00    -0.011 A 
ATOM      2  C   UNL     1       8.308   2.229  -6.285  0.00  0.00    +0.016 A 
ATOM      3  C   UNL     1       8.605   2.862  -7.501  0.00  0.00    +0.001 A 
ATOM      4  C   UNL     1       9.787   3.634  -7.576  0.00  0.00    -0.007 A 
ATOM      5  C   UNL     1      10.046   4.272  -8.818  0.00  0.00    +0.029 A 
ATOM      6  C   UNL     1       9.184   4.164  -9.911  0.00  0.00    +0.043 A 
ATOM      7  C   UNL     1       8.028   3.412  -9.825  0.00  0.00    +0.040 A 
ATOM      8 CL   UNL     1       9.559   4.973 -11.383  0.00  0.00    -0.083 Cl
ATOM      9  C   UNL     1      10.647   3.737  -6.417  0.00  0.00    -0.009 A 
ATOM     10  C   UNL     1      11.857   4.481  -6.424  0.00  0.00    +0.021 A 
ATOM     11  C   UNL     1      12.710   4.586  -5.311  0.00  0.00    +0.055 A 
ATOM     12  C   UNL     1      12.363   3.914  -4.146  0.00  0.00    +0.013 A 
ATOM     13  C   UNL     1      11.182   3.176  -4.097  0.00  0.00    +0.009 A 
ATOM     14  C   UNL     1       7.741   2.764  -8.628  0.00  0.00    +0.050 A 
ATOM     15 CL   UNL     1       6.257   1.858  -8.591  0.00  0.00    -0.083 Cl
ATOM     16  C   UNL     1      10.299   3.086  -5.199  0.00  0.00    -0.012 A 
ENDROOT
BRANCH  11  17
ATOM     17  C   UNL     1      13.964   5.416  -5.401  0.00  0.00    +0.417 C 
ATOM     18  F   UNL     1      13.705   6.717  -5.699  0.00  0.00    -0.166 F 
ATOM     19  F   UNL     1      14.814   4.974  -6.369  0.00  0.00    -0.166 F 
ATOM     20  F   UNL     1      14.693   5.436  -4.247  0.00  0.00    -0.166 F 
ENDBRANCH  11  17
BRANCH   1  21
ATOM     21  C   UNL     1       8.552   1.801  -3.801  0.00  0.00    +0.146 C 
BRANCH  21  22
ATOM     22  O   UNL     1       9.128   0.517  -3.584  0.00  0.00    -0.387 OA
ATOM     23  H   UNL     1       8.695  -0.107  -4.191  0.00  0.00    +0.210 HD
ENDBRANCH  21  22
BRANCH  21  24
ATOM     24  C   UNL     1       7.021   1.707  -3.760  0.00  0.00    +0.051 C 
BRANCH  24  25
ATOM     25  C   UNL     1       6.459   1.240  -2.420  0.00  0.00    +0.087 C 
BRANCH  25  26
ATOM     26  N   UNL     1       4.971   1.213  -2.420  0.00  0.00    -0.302 NA
BRANCH  26  27
ATOM     27  C   UNL     1       4.477   0.266  -3.451  0.00  0.00    +0.084 C 
BRANCH  27  28
ATOM     28  C   UNL     1       2.965   0.068  -3.609  0.00  0.00    +0.015 C 
BRANCH  28  30
ATOM     29  C   UNL     1       0.727   1.033  -4.173  0.00  0.00    +0.004 C 
ATOM     30  C   UNL     1       2.210   1.337  -4.003  0.00  0.00    -0.002 C 
ENDBRANCH  28  30
ENDBRANCH  27  28
ENDBRANCH  26  27
BRANCH  26  31
ATOM     31  C   UNL     1       4.465   0.855  -1.078  0.00  0.00    +0.084 C 
BRANCH  31  32
ATOM     32  C   UNL     1       4.896   1.773   0.081  0.00  0.00    +0.015 C 
BRANCH  32  33
ATOM     33  C   UNL     1       4.465   3.233  -0.077  0.00  0.00    -0.002 C 
ATOM     34  C   UNL     1       4.934   4.062   1.112  0.00  0.00    +0.004 C 
ENDBRANCH  32  33
ENDBRANCH  31  32
ENDBRANCH  26  31
ENDBRANCH  25  26
ENDBRANCH  24  25
ENDBRANCH  21  24
ENDBRANCH   1  21
TORSDOF 12
