REMARK  Name = 
REMARK  1 active torsions:
REMARK  status: ('A' for Active; 'I' for Inactive)
REMARK    1  A    between atoms: O_1  and  C_2
REMARK                            x       y       z     vdW  Elec       q    Type
REMARK                         _______ _______ _______ _____ _____    ______ ____
ROOT
ATOM      1  C   UNL     1       2.473  -0.052  -0.071  0.00  0.00    +0.118 A 
ATOM      2  C   UNL     1       3.138  -1.272  -0.133  0.00  0.00    +0.065 A 
ATOM      3  C   UNL     1       4.525  -1.285  -0.253  0.00  0.00    +0.044 A 
ATOM      4 CL   UNL     1       5.364  -2.785  -0.334  0.00  0.00    -0.083 Cl
ATOM      5  C   UNL     1       5.242  -0.089  -0.308  0.00  0.00    +0.020 A 
ATOM      6  C   UNL     1       4.565   1.130  -0.242  0.00  0.00    +0.005 A 
ATOM      7  C   UNL     1       3.174   1.151  -0.123  0.00  0.00    +0.045 A 
ENDROOT
BRANCH   1   8
ATOM      8  O   UNL     1       1.114  -0.076   0.041  0.00  0.00    -0.507 OA
ATOM      9  H   UNL     1       0.784   0.838   0.053  0.00  0.00    +0.292 HD
ENDBRANCH   1   8
TORSDOF 1
