REMARK  Name = 
REMARK  5 active torsions:
REMARK  status: ('A' for Active; 'I' for Inactive)
REMARK    1  A    between atoms: O_1  and  C_2
REMARK    2  A    between atoms: C_5  and  C_8
REMARK    3  A    between atoms: C_9  and  O_10
REMARK    4  A    between atoms: C_17  and  O_18
REMARK    5  A    between atoms: C_20  and  O_21
REMARK                            x       y       z     vdW  Elec       q    Type
REMARK                         _______ _______ _______ _____ _____    ______ ____
ROOT
ATOM      1  C   UNL     1       6.730  -0.136  -0.652  0.00  0.00    +0.181 A 
ATOM      2  O   UNL     1       7.390   1.088  -0.736  0.00  0.00    -0.451 OA
ATOM      3  C   UNL     1       8.721   1.116  -1.075  0.00  0.00    +0.147 A 
ATOM      4  C   UNL     1       9.299   2.383  -1.220  0.00  0.00    +0.092 A 
ATOM      5  C   UNL     1      10.645   2.486  -1.556  0.00  0.00    +0.124 A 
ATOM      6  C   UNL     1      11.425   1.352  -1.741  0.00  0.00    +0.091 A 
ATOM      7  C   UNL     1      10.846   0.091  -1.599  0.00  0.00    +0.135 A 
ATOM      8  C   UNL     1       9.490  -0.033  -1.269  0.00  0.00    +0.109 A 
ATOM      9  C   UNL     1       8.814  -1.342  -1.136  0.00  0.00    +0.238 A 
ATOM     10  O   UNL     1       9.400  -2.410  -1.257  0.00  0.00    -0.283 OA
ATOM     11  C   UNL     1       7.346  -1.317  -0.872  0.00  0.00    +0.208 A 
ENDROOT
BRANCH   1  15
ATOM     12  C   UNL     1       2.606   0.343   0.522  0.00  0.00    +0.117 A 
ATOM     13  C   UNL     1       3.245   1.337  -0.206  0.00  0.00    +0.046 A 
ATOM     14  C   UNL     1       4.577   1.164  -0.605  0.00  0.00    +0.015 A 
ATOM     15  C   UNL     1       5.292   0.001  -0.274  0.00  0.00    +0.021 A 
ATOM     16  C   UNL     1       4.617  -0.979   0.480  0.00  0.00    +0.015 A 
ATOM     17  C   UNL     1       3.278  -0.822   0.859  0.00  0.00    +0.046 A 
BRANCH  12  18
ATOM     18  O   UNL     1       1.316   0.558   0.906  0.00  0.00    -0.507 OA
ATOM     19  H   UNL     1       1.028  -0.184   1.463  0.00  0.00    +0.292 HD
ENDBRANCH  12  18
ENDBRANCH   1  15
BRANCH   7  20
ATOM     20  O   UNL     1      11.627  -1.011  -1.797  0.00  0.00    -0.506 OA
ATOM     21  H   UNL     1      12.538  -0.751  -1.994  0.00  0.00    +0.292 HD
ENDBRANCH   7  20
BRANCH   5  22
ATOM     22  O   UNL     1      11.257   3.693  -1.717  0.00  0.00    -0.507 OA
ATOM     23  H   UNL     1      10.612   4.405  -1.559  0.00  0.00    +0.292 HD
ENDBRANCH   5  22
BRANCH  11  24
ATOM     24  O   UNL     1       6.712  -2.548  -0.876  0.00  0.00    -0.501 OA
ATOM     25  H   UNL     1       5.877  -2.444  -1.365  0.00  0.00    +0.292 HD
ENDBRANCH  11  24
TORSDOF 5
