REMARK  Name = 
REMARK  2 active torsions:
REMARK  status: ('A' for Active; 'I' for Inactive)
REMARK    1  A    between atoms: C_1  and  N_2
REMARK    2  A    between atoms: C_8  and  C_15
REMARK                            x       y       z     vdW  Elec       q    Type
REMARK                         _______ _______ _______ _____ _____    ______ ____
ROOT
ATOM      1  C   UNL     1       0.889   0.064   0.093  0.00  0.00    +0.105 C 
ATOM      2  N   UNL     1       2.343   0.065   0.047  0.00  0.00    -0.301 NA
ATOM      3  C   UNL     1       2.899  -1.191  -0.465  0.00  0.00    +0.116 C 
ATOM      4  C   UNL     1       3.751  -1.086  -1.678  0.00  0.00    -0.040 C 
ATOM      5  C   UNL     1       4.265  -2.298  -2.436  0.00  0.00    +0.077 C 
ATOM      6  C   UNL     1       5.084  -1.617  -3.514  0.00  0.00    -0.028 A 
ATOM      7  C   UNL     1       4.988  -0.223  -3.372  0.00  0.00    -0.018 A 
ATOM      8  C   UNL     1       5.631   0.625  -4.258  0.00  0.00    +0.008 A 
ATOM      9  C   UNL     1       6.376   0.058  -5.297  0.00  0.00    +0.001 A 
ATOM     10  C   UNL     1       6.472  -1.337  -5.436  0.00  0.00    +0.000 A 
ATOM     11  C   UNL     1       5.827  -2.188  -4.537  0.00  0.00    +0.005 A 
ATOM     12  C   UNL     1       4.143   0.072  -2.225  0.00  0.00    -0.037 C 
ATOM     13  C   UNL     1       3.745   1.399  -1.720  0.00  0.00    +0.051 C 
ATOM     14  C   UNL     1       2.917   1.334  -0.418  0.00  0.00    +0.089 C 
ENDROOT
BRANCH   5  15
ATOM     15  C   UNL     1       3.150  -3.172  -2.980  0.00  0.00    -0.036 A 
ATOM     16  C   UNL     1       3.009  -4.495  -2.537  0.00  0.00    +0.004 A 
ATOM     17  C   UNL     1       1.966  -5.293  -3.009  0.00  0.00    +0.000 A 
ATOM     18  C   UNL     1       1.052  -4.782  -3.929  0.00  0.00    +0.000 A 
ATOM     19  C   UNL     1       1.181  -3.473  -4.381  0.00  0.00    +0.000 A 
ATOM     20  C   UNL     1       2.220  -2.672  -3.910  0.00  0.00    +0.004 A 
ENDBRANCH   5  15
TORSDOF 1
