REMARK  Name = 
REMARK  3 active torsions:
REMARK  status: ('A' for Active; 'I' for Inactive)
REMARK    1  A    between atoms: C_1  and  C_2
REMARK    2  A    between atoms: N_6  and  O_7
REMARK    3  A    between atoms: C_8  and  C_10
REMARK                            x       y       z     vdW  Elec       q    Type
REMARK                         _______ _______ _______ _____ _____    ______ ____
ROOT
ATOM      1  C   UNL     1       3.894   2.252   1.661  0.00  0.00    +0.044 C 
ATOM      2  C   UNL     1       3.602   0.926   1.023  0.00  0.00    -0.043 A 
ATOM      3  C   UNL     1       4.700  -0.011   0.829  0.00  0.00    +0.028 A 
ATOM      4  C   UNL     1       4.505  -1.229   0.270  0.00  0.00    +0.065 A 
ATOM      5  N   UNL     1       3.217  -1.546  -0.099  0.00  0.00    -0.151 N 
ATOM      6  C   UNL     1       2.112  -0.729   0.020  0.00  0.00    +0.284 A 
ATOM      7  O   UNL     1       0.984  -1.056  -0.338  0.00  0.00    -0.265 OA
ATOM      8  C   UNL     1       2.361   0.596   0.629  0.00  0.00    +0.076 A 
ENDROOT
BRANCH   4   9
ATOM      9  C   UNL     1       5.677  -2.187   0.027  0.00  0.00    +0.039 C 
ATOM     10  C   UNL     1       6.103  -2.269  -1.453  0.00  0.00    +0.010 C 
ATOM     11  C   UNL     1       5.553  -3.460  -2.227  0.00  0.00    +0.001 C 
ATOM     12  C   UNL     1       5.819  -4.766  -1.494  0.00  0.00    +0.000 C 
ATOM     13  C   UNL     1       5.201  -4.765  -0.103  0.00  0.00    +0.001 C 
ATOM     14  C   UNL     1       5.612  -3.557   0.741  0.00  0.00    +0.010 C 
ENDBRANCH   4   9
BRANCH   5  15
ATOM     15  O   UNL     1       2.974  -2.814  -0.653  0.00  0.00    -0.423 OA
ATOM     16  H   UNL     1       2.010  -2.771  -0.830  0.00  0.00    +0.326 HD
ENDBRANCH   5  15
TORSDOF 2
