REMARK  Name = 
REMARK  2 active torsions:
REMARK  status: ('A' for Active; 'I' for Inactive)
REMARK    1  A    between atoms: C_1  and  C_2
REMARK    2  A    between atoms: C_6  and  O_7
REMARK                            x       y       z     vdW  Elec       q    Type
REMARK                         _______ _______ _______ _____ _____    ______ ____
ROOT
ATOM      1  C   UNL     1       1.080   0.014   0.006  0.00  0.00    +0.044 C 
ATOM      2  C   UNL     1       2.575  -0.001  -0.110  0.00  0.00    -0.047 A 
ATOM      3  C   UNL     1       3.256  -1.223  -0.178  0.00  0.00    +0.048 A 
ATOM      4  C   UNL     1       4.643  -1.243  -0.289  0.00  0.00    +0.117 A 
ATOM      5  C   UNL     1       5.374  -0.060  -0.325  0.00  0.00    +0.045 A 
ATOM      6  C   UNL     1       4.702   1.160  -0.251  0.00  0.00    +0.004 A 
ATOM      7  C   UNL     1       3.309   1.191  -0.144  0.00  0.00    +0.003 A 
ENDROOT
BRANCH   4   8
ATOM      8  O   UNL     1       5.257  -2.459  -0.362  0.00  0.00    -0.507 OA
ATOM      9  H   UNL     1       6.210  -2.315  -0.476  0.00  0.00    +0.292 HD
ENDBRANCH   4   8
TORSDOF 1
