REMARK  Name = 
REMARK  9 active torsions:
REMARK  status: ('A' for Active; 'I' for Inactive)
REMARK    1  A    between atoms: C_1  and  C_2
REMARK    2  A    between atoms: C_2  and  C_3
REMARK    3  A    between atoms: C_2  and  C_4
REMARK    4  A    between atoms: C_2  and  N_5
REMARK    5  A    between atoms: N_5  and  C_6
REMARK    6  A    between atoms: C_6  and  C_7
REMARK    7  A    between atoms: C_7  and  O_8
REMARK    8  A    between atoms: C_7  and  C_9
REMARK    9  A    between atoms: C_13  and  N_14
REMARK                            x       y       z     vdW  Elec       q    Type
REMARK                         _______ _______ _______ _____ _____    ______ ____
ROOT
ATOM      1  C   UNL     1       6.581   2.695   1.231  0.00  0.00    -0.015 A 
ATOM      2  C   UNL     1       7.375   2.095   2.219  0.00  0.00    +0.028 A 
ATOM      3  C   UNL     1       8.770   2.084   2.106  0.00  0.00    +0.063 A 
ATOM      4 CL   UNL     1       9.678   1.285   3.346  0.00  0.00    -0.082 Cl
ATOM      5  C   UNL     1       9.423   2.699   1.024  0.00  0.00    +0.062 A 
ATOM      6  C   UNL     1       8.616   3.272   0.024  0.00  0.00    +0.063 A 
ATOM      7 CL   UNL     1       9.330   3.986  -1.383  0.00  0.00    -0.082 Cl
ATOM      8  C   UNL     1       7.220   3.287   0.132  0.00  0.00    +0.028 A 
ENDROOT
BRANCH   5   9
ATOM      9  N   UNL     1      10.815   2.536   0.828  0.00  0.00    -0.356 N 
ATOM     10  H   UNL     1      11.326   2.404   1.696  0.00  0.00    +0.142 HD
ATOM     11  H   UNL     1      11.218   3.246   0.219  0.00  0.00    +0.142 HD
ENDBRANCH   5   9
BRANCH   1  12
ATOM     12  C   UNL     1       5.065   2.613   1.264  0.00  0.00    +0.158 C 
BRANCH  12  13
ATOM     13  O   UNL     1       4.612   2.660   2.620  0.00  0.00    -0.386 OA
ATOM     14  H   UNL     1       4.500   1.746   2.925  0.00  0.00    +0.210 HD
ENDBRANCH  12  13
BRANCH  12  15
ATOM     15  C   UNL     1       4.595   1.317   0.551  0.00  0.00    +0.117 C 
BRANCH  15  16
ATOM     16  N   UNL     1       3.132   1.196   0.476  0.00  0.00    -0.309 NA
ATOM     17  H   UNL     1       2.722   1.347   1.398  0.00  0.00    +0.123 HD
BRANCH  16  19
ATOM     18  C   UNL     1       3.079  -1.298   0.679  0.00  0.00    +0.027 C 
ATOM     19  C   UNL     1       2.629  -0.060  -0.117  0.00  0.00    +0.011 C 
ATOM     20  C   UNL     1       1.090   0.002  -0.078  0.00  0.00    +0.027 C 
ATOM     21  C   UNL     1       3.062  -0.198  -1.588  0.00  0.00    +0.027 C 
ENDBRANCH  16  19
ENDBRANCH  15  16
ENDBRANCH  12  15
ENDBRANCH   1  12
TORSDOF 6
