REMARK  Name = 
REMARK  5 active torsions:
REMARK  status: ('A' for Active; 'I' for Inactive)
REMARK    1  A    between atoms: C_7  and  C_9
REMARK    2  A    between atoms: C_9  and  O_10
REMARK    3  A    between atoms: C_12  and  C_13
REMARK    4  A    between atoms: C_12  and  C_14
REMARK    5  A    between atoms: C_14  and  N_15
REMARK                            x       y       z     vdW  Elec       q    Type
REMARK                         _______ _______ _______ _____ _____    ______ ____
ROOT
ATOM      1  C   UNL     1       2.144   0.134   0.126  0.00  0.00    +0.229 C 
ATOM      2  S   UNL     1       2.727   1.832   0.306  0.00  0.00    -0.002 S 
ATOM      3  O   UNL     1       1.779   2.707  -0.354  0.00  0.00    -0.172 OA
ATOM      4  O   UNL     1       3.117   2.065   1.682  0.00  0.00    -0.172 OA
ATOM      5  C   UNL     1       4.240   1.732  -0.733  0.00  0.00    +0.135 C 
ATOM      6  C   UNL     1       4.531   3.130  -1.311  0.00  0.00    +0.040 C 
ATOM      7  C   UNL     1       3.834   0.598  -1.718  0.00  0.00    +0.215 C 
ATOM      8  N   UNL     1       3.039  -0.391  -0.944  0.00  0.00    -0.263 N 
ATOM      9  C   UNL     1       3.666  -1.269  -0.096  0.00  0.00    +0.221 C 
ATOM     10  O   UNL     1       4.739  -1.813  -0.203  0.00  0.00    -0.275 OA
ATOM     11  C   UNL     1       2.695  -0.963   1.041  0.00  0.00    +0.142 C 
ENDROOT
BRANCH   7  12
ATOM     12  C   UNL     1       2.969   1.028  -2.922  0.00  0.00    +0.328 C 
ATOM     13  O   UNL     1       3.259   1.905  -3.716  0.00  0.00    -0.249 OA
BRANCH  12  14
ATOM     14  O   UNL     1       1.852   0.273  -3.087  0.00  0.00    -0.479 OA
ATOM     15  H   UNL     1       1.842  -0.491  -2.476  0.00  0.00    +0.295 HD
ENDBRANCH  12  14
ENDBRANCH   7  12
BRANCH   5  16
ATOM     16  C   UNL     1       5.415   1.368   0.221  0.00  0.00    +0.177 C 
BRANCH  16  17
ATOM     17  N   UNL     1       6.676   0.993  -0.383  0.00  0.00    -0.250 N 
ATOM     18  N   UNL     1       6.852   0.993  -1.712  0.00  0.00    -0.066 NA
ATOM     19  N   UNL     1       8.062   0.522  -1.959  0.00  0.00    -0.138 NA
ATOM     20  C   UNL     1       8.662   0.258  -0.763  0.00  0.00    +0.156 A 
ATOM     21  C   UNL     1       7.804   0.577   0.260  0.00  0.00    +0.130 A 
ENDBRANCH  16  17
ENDBRANCH   5  16
TORSDOF 4
