REMARK  Name = 
REMARK  10 active torsions:
REMARK  status: ('A' for Active; 'I' for Inactive)
REMARK    1  A    between atoms: O_1  and  C_2
REMARK    2  A    between atoms: C_2  and  C_3
REMARK    3  A    between atoms: C_3  and  O_5
REMARK    4  A    between atoms: C_3  and  C_6
REMARK    5  A    between atoms: C_6  and  O_8
REMARK    6  A    between atoms: C_6  and  C_9
REMARK    7  A    between atoms: C_9  and  O_11
REMARK    8  A    between atoms: C_9  and  C_12
REMARK    9  A    between atoms: C_12  and  O_14
REMARK   10  A    between atoms: C_12  and  C_15
REMARK                            x       y       z     vdW  Elec       q    Type
REMARK                         _______ _______ _______ _____ _____    ______ ____
ROOT
ATOM      1  C   UNL     1       4.380  -0.755   1.322  0.00  0.00    +0.176 C 
ENDROOT
BRANCH   1   2
ATOM      2  O   UNL     1       4.834   0.604   1.218  0.00  0.00    -0.386 OA
ATOM      3  H   UNL     1       4.738   1.012   2.102  0.00  0.00    +0.210 HD
ENDBRANCH   1   2
BRANCH   1   4
ATOM      4  C   UNL     1       4.775  -1.525   0.048  0.00  0.00    +0.171 C 
BRANCH   4   5
ATOM      5  O   UNL     1       6.205  -1.668  -0.044  0.00  0.00    -0.387 OA
ATOM      6  H   UNL     1       6.366  -1.890  -0.985  0.00  0.00    +0.210 HD
ENDBRANCH   4   5
BRANCH   4   7
ATOM      7  C   UNL     1       4.256  -0.829  -1.214  0.00  0.00    +0.189 C 
BRANCH   7   8
ATOM      8  O   UNL     1       4.606  -1.631  -2.346  0.00  0.00    -0.392 OA
ATOM      9  H   UNL     1       4.206  -1.199  -3.122  0.00  0.00    +0.210 HD
ENDBRANCH   7   8
ENDBRANCH   4   7
ENDBRANCH   1   4
BRANCH   1  10
ATOM     10  C   UNL     1       4.935  -1.443   2.600  0.00  0.00    +0.181 C 
BRANCH  10  11
ATOM     11  O   UNL     1       6.373  -1.345   2.643  0.00  0.00    -0.386 OA
ATOM     12  H   UNL     1       6.678  -1.493   1.717  0.00  0.00    +0.210 HD
ENDBRANCH  10  11
BRANCH  10  13
ATOM     13  C   UNL     1       4.421  -0.799   3.896  0.00  0.00    +0.208 C 
BRANCH  13  14
ATOM     14  C   UNL     1       2.911  -0.901   4.026  0.00  0.00    +0.257 C 
ATOM     15  O   UNL     1       2.227  -1.733   3.436  0.00  0.00    -0.298 OA
ENDBRANCH  13  14
BRANCH  13  16
ATOM     16  O   UNL     1       4.832   0.572   3.943  0.00  0.00    -0.382 OA
ATOM     17  H   UNL     1       5.811   0.527   3.873  0.00  0.00    +0.210 HD
ENDBRANCH  13  16
ENDBRANCH  10  13
ENDBRANCH   1  10
TORSDOF 10
