REMARK  Name = 
REMARK  4 active torsions:
REMARK  status: ('A' for Active; 'I' for Inactive)
REMARK    1  A    between atoms: N_1  and  C_2
REMARK    2  A    between atoms: C_2  and  C_3
REMARK    3  A    between atoms: C_3  and  S_4
REMARK    4  A    between atoms: S_4  and  O_5
REMARK                            x       y       z     vdW  Elec       q    Type
REMARK                         _______ _______ _______ _____ _____    ______ ____
ROOT
ATOM      1  C   UNL     1       3.061  -1.376   0.302  0.00  0.00    +0.212 C 
ENDROOT
BRANCH   1   2
ATOM      2  S   UNL     1       4.846  -1.365   0.307  0.00  0.00    +0.081 S 
ATOM      3  O   UNL     1       5.326  -0.644   1.462  0.00  0.00    -0.147 OA
ATOM      4  O   UNL     1       5.339  -1.118  -1.028  0.00  0.00    -0.147 OA
BRANCH   2   5
ATOM      5  O   UNL     1       5.074  -2.941   0.568  0.00  0.00    -0.254 OA
ATOM      6  H   UNL     1       5.551  -3.311  -0.206  0.00  0.00    +0.244 HD
ENDBRANCH   2   5
ENDBRANCH   1   2
BRANCH   1   7
ATOM      7  C   UNL     1       2.532   0.027   0.059  0.00  0.00    +0.103 C 
BRANCH   7   8
ATOM      8  N   UNL     1       1.067   0.036   0.040  0.00  0.00    -0.328 NA
ATOM      9  H   UNL     1       0.704  -0.208   0.962  0.00  0.00    +0.118 HD
ATOM     10  H   UNL     1       0.740   0.986  -0.143  0.00  0.00    +0.118 HD
ENDBRANCH   7   8
ENDBRANCH   1   7
TORSDOF 4
