REMARK  Name = 
REMARK  5 active torsions:
REMARK  status: ('A' for Active; 'I' for Inactive)
REMARK    1  A    between atoms: C_2  and  N_3
REMARK    2  A    between atoms: C_2  and  C_4
REMARK    3  A    between atoms: C_2  and  C_12
REMARK    4  A    between atoms: C_4  and  C_5
REMARK    5  A    between atoms: N_14  and  O_15
REMARK                            x       y       z     vdW  Elec       q    Type
REMARK                         _______ _______ _______ _____ _____    ______ ____
ROOT
ATOM      1  C   UNL     1       2.191   0.145   0.110  0.00  0.00    +0.144 C 
ENDROOT
BRANCH   1   2
ATOM      2  C   UNL     1       2.776   0.721  -1.187  0.00  0.00    +0.253 C 
ATOM      3  N   UNL     1       4.150   0.819  -1.184  0.00  0.00    -0.196 N 
ATOM      4  H   UNL     1       4.610   0.969  -0.287  0.00  0.00    +0.182 HD
ATOM      5  O   UNL     1       2.092   1.042  -2.158  0.00  0.00    -0.272 OA
BRANCH   3   6
ATOM      6  O   UNL     1       4.719   1.462  -2.309  0.00  0.00    -0.295 OA
ATOM      7  H   UNL     1       3.933   1.646  -2.869  0.00  0.00    +0.241 HD
ENDBRANCH   3   6
ENDBRANCH   1   2
BRANCH   1   8
ATOM      8  N   UNL     1       2.724   0.922   1.257  0.00  0.00    -0.320 NA
ATOM      9  H   UNL     1       2.301   1.854   1.234  0.00  0.00    +0.119 HD
ATOM     10  H   UNL     1       2.374   0.496   2.119  0.00  0.00    +0.119 HD
ENDBRANCH   1   8
BRANCH   1  11
ATOM     11  C   UNL     1       2.552  -1.349   0.197  0.00  0.00    +0.063 C 
BRANCH  11  12
ATOM     12  C   UNL     1       1.973  -2.076   1.391  0.00  0.00    -0.045 A 
ATOM     13  C   UNL     1       2.827  -2.704   2.310  0.00  0.00    +0.005 A 
ATOM     14  C   UNL     1       2.307  -3.411   3.397  0.00  0.00    +0.014 A 
ATOM     15  C   UNL     1       0.927  -3.493   3.572  0.00  0.00    +0.013 A 
ATOM     16  I   UNL     1       0.150  -4.561   5.176  0.00  0.00    -0.044 I 
ATOM     17  C   UNL     1       0.066  -2.872   2.669  0.00  0.00    +0.014 A 
ATOM     18  C   UNL     1       0.588  -2.169   1.580  0.00  0.00    +0.005 A 
ENDBRANCH  11  12
ENDBRANCH   1  11
TORSDOF 5
