REMARK  Name = 
REMARK  17 active torsions:
REMARK  status: ('A' for Active; 'I' for Inactive)
REMARK    1  A    between atoms: N_10  and  C_11
REMARK    2  A    between atoms: C_14  and  C_16
REMARK    3  A    between atoms: C_16  and  O_17
REMARK    4  A    between atoms: O_17  and  P_18
REMARK    5  A    between atoms: P_18  and  O_19
REMARK    6  A    between atoms: P_18  and  O_21
REMARK    7  A    between atoms: O_21  and  P_22
REMARK    8  A    between atoms: P_22  and  O_23
REMARK    9  A    between atoms: P_22  and  O_25
REMARK   10  A    between atoms: O_25  and  C_26
REMARK   11  A    between atoms: C_29  and  C_31
REMARK   12  A    between atoms: C_31  and  O_32
REMARK   13  A    between atoms: C_33  and  O_35
REMARK   14  A    between atoms: C_36  and  O_38
REMARK   15  A    between atoms: C_39  and  O_41
REMARK   16  A    between atoms: C_42  and  O_44
REMARK   17  A    between atoms: C_45  and  O_47
REMARK                            x       y       z     vdW  Elec       q    Type
REMARK                         _______ _______ _______ _____ _____    ______ ____
ROOT
ATOM      1  P   UNL     1       9.077  -3.043   5.224  0.00  0.00    +0.483 P 
ATOM      2  O   UNL     1      10.411  -3.472   4.597  0.00  0.00    -0.227 OA
ENDROOT
BRANCH   1   3
ATOM      3  O   UNL     1       8.326  -3.405   3.708  0.00  0.00    -0.302 OA
ATOM      4  H   UNL     1       8.867  -4.142   3.359  0.00  0.00    +0.222 HD
ENDBRANCH   1   3
BRANCH   1   5
ATOM      5  O   UNL     1       9.829  -2.681   6.739  0.00  0.00    -0.186 OA
BRANCH   5   6
ATOM      6  P   UNL     1       9.179  -3.711   7.967  0.00  0.00    +0.486 P 
ATOM      7  O   UNL     1       9.170  -4.912   7.021  0.00  0.00    -0.227 OA
BRANCH   6   8
ATOM      8  O   UNL     1       7.728  -2.981   7.814  0.00  0.00    -0.302 OA
ATOM      9  H   UNL     1       7.569  -2.239   8.423  0.00  0.00    +0.222 HD
ENDBRANCH   6   8
BRANCH   6  10
ATOM     10  O   UNL     1       8.528  -4.742   9.194  0.00  0.00    -0.254 OA
BRANCH  10  11
ATOM     11  C   UNL     1       8.736  -4.476  10.550  0.00  0.00    +0.293 C 
ATOM     12  C   UNL     1      10.205  -4.352  10.950  0.00  0.00    +0.202 C 
ATOM     13  C   UNL     1      10.963  -5.633  10.616  0.00  0.00    +0.179 C 
ATOM     14  C   UNL     1      10.148  -6.944  10.737  0.00  0.00    +0.177 C 
ATOM     15  C   UNL     1       8.614  -6.846  10.963  0.00  0.00    +0.178 C 
ATOM     16  O   UNL     1       8.138  -5.533  11.312  0.00  0.00    -0.340 OA
BRANCH  14  17
ATOM     17  O   UNL     1      10.716  -7.656  11.862  0.00  0.00    -0.386 OA
ATOM     18  H   UNL     1      10.485  -7.158  12.669  0.00  0.00    +0.210 HD
ENDBRANCH  14  17
BRANCH  13  19
ATOM     19  O   UNL     1      11.498  -5.477   9.294  0.00  0.00    -0.386 OA
ATOM     20  H   UNL     1      12.169  -6.179   9.176  0.00  0.00    +0.210 HD
ENDBRANCH  13  19
BRANCH  12  21
ATOM     21  O   UNL     1      10.311  -4.056  12.348  0.00  0.00    -0.384 OA
ATOM     22  H   UNL     1      11.254  -3.962  12.571  0.00  0.00    +0.210 HD
ENDBRANCH  12  21
BRANCH  15  23
ATOM     23  C   UNL     1       7.772  -7.450   9.811  0.00  0.00    +0.190 C 
BRANCH  23  24
ATOM     24  O   UNL     1       6.422  -7.640  10.252  0.00  0.00    -0.392 OA
ATOM     25  H   UNL     1       6.119  -6.772  10.575  0.00  0.00    +0.210 HD
ENDBRANCH  23  24
ENDBRANCH  15  23
ENDBRANCH  10  11
ENDBRANCH   6  10
ENDBRANCH   5   6
ENDBRANCH   1   5
BRANCH   1  26
ATOM     26  O   UNL     1       8.896  -1.469   4.759  0.00  0.00    -0.284 OA
BRANCH  26  27
ATOM     27  C   UNL     1       9.818  -0.410   4.557  0.00  0.00    +0.206 C 
BRANCH  27  31
ATOM     28  C   UNL     1      11.310  -0.413   1.033  0.00  0.00    +0.253 C 
ATOM     29  C   UNL     1      12.130  -1.441   1.814  0.00  0.00    +0.195 C 
ATOM     30  C   UNL     1      12.080  -0.893   3.242  0.00  0.00    +0.178 C 
ATOM     31  C   UNL     1      10.739  -0.158   3.305  0.00  0.00    +0.178 C 
ATOM     32  O   UNL     1      10.188  -0.136   1.959  0.00  0.00    -0.346 OA
BRANCH  28  40
ATOM     33  N   UNL     1      15.484   3.756  -0.437  0.00  0.00    -0.341 N 
ATOM     34  H   UNL     1      14.792   4.496  -0.400  0.00  0.00    +0.144 HD
ATOM     35  H   UNL     1      16.255   3.861  -1.088  0.00  0.00    +0.144 HD
ATOM     36  C   UNL     1      14.948   2.487  -0.436  0.00  0.00    +0.147 A 
ATOM     37  C   UNL     1      13.659   2.173   0.044  0.00  0.00    +0.147 A 
ATOM     38  N   UNL     1      12.637   2.951   0.536  0.00  0.00    -0.231 NA
ATOM     39  C   UNL     1      11.689   2.099   0.876  0.00  0.00    +0.203 A 
ATOM     40  N   UNL     1      12.058   0.794   0.666  0.00  0.00    -0.286 N 
ATOM     41  C   UNL     1      13.289   0.836   0.053  0.00  0.00    +0.167 A 
ATOM     42  N   UNL     1      14.029  -0.197  -0.405  0.00  0.00    -0.216 NA
ATOM     43  C   UNL     1      15.221   0.221  -0.883  0.00  0.00    +0.225 A 
ATOM     44  N   UNL     1      15.717   1.475  -0.915  0.00  0.00    -0.219 NA
ENDBRANCH  28  40
BRANCH  30  45
ATOM     45  O   UNL     1      13.118   0.087   3.428  0.00  0.00    -0.386 OA
ATOM     46  H   UNL     1      13.976  -0.315   3.204  0.00  0.00    +0.210 HD
ENDBRANCH  30  45
BRANCH  29  47
ATOM     47  O   UNL     1      11.504  -2.728   1.735  0.00  0.00    -0.385 OA
ATOM     48  H   UNL     1      10.603  -2.643   2.104  0.00  0.00    +0.210 HD
ENDBRANCH  29  47
ENDBRANCH  27  31
ENDBRANCH  26  27
ENDBRANCH   1  26
TORSDOF 17
