REMARK  Name = 
REMARK  7 active torsions:
REMARK  status: ('A' for Active; 'I' for Inactive)
REMARK    1  A    between atoms: C_1  and  C_2
REMARK    2  A    between atoms: N_5  and  C_18
REMARK    3  A    between atoms: C_8  and  C_9
REMARK    4  A    between atoms: C_8  and  C_12
REMARK    5  A    between atoms: C_9  and  O_10
REMARK    6  A    between atoms: C_21  and  C_24
REMARK    7  A    between atoms: C_21  and  C_26
REMARK                            x       y       z     vdW  Elec       q    Type
REMARK                         _______ _______ _______ _____ _____    ______ ____
ROOT
ATOM      1  C   UNL     1       2.741   0.589   1.377  0.00  0.00    +0.010 C 
ATOM      2  C   UNL     1       2.414   0.459  -0.122  0.00  0.00    +0.021 C 
ATOM      3  C   UNL     1       3.130   1.456  -1.104  0.00  0.00    +0.097 C 
ATOM      4  C   UNL     1       2.614   1.019  -2.510  0.00  0.00    +0.038 C 
ATOM      5  C   UNL     1       2.920  -0.450  -2.854  0.00  0.00    +0.086 C 
ATOM      6  N   UNL     1       2.424  -1.441  -1.894  0.00  0.00    -0.299 NA
ATOM      7  C   UNL     1       2.617  -1.007  -0.495  0.00  0.00    +0.089 C 
ENDROOT
BRANCH   3   8
ATOM      8  C   UNL     1       4.684   1.496  -1.006  0.00  0.00    -0.030 A 
ATOM      9  C   UNL     1       5.332   1.836   0.195  0.00  0.00    +0.005 A 
ATOM     10  C   UNL     1       6.726   1.783   0.324  0.00  0.00    +0.000 A 
ATOM     11  C   UNL     1       7.520   1.442  -0.763  0.00  0.00    +0.000 A 
ATOM     12  C   UNL     1       6.920   1.211  -1.991  0.00  0.00    +0.000 A 
ATOM     13  C   UNL     1       5.527   1.266  -2.112  0.00  0.00    +0.005 A 
ENDBRANCH   3   8
BRANCH   6  14
ATOM     14  C   UNL     1       3.112  -2.763  -2.046  0.00  0.00    +0.057 C 
ATOM     15  C   UNL     1       3.273  -3.338  -3.472  0.00  0.00    +0.021 C 
ATOM     16  C   UNL     1       2.052  -4.066  -4.048  0.00  0.00    +0.028 C 
ATOM     17  C   UNL     1       1.329  -5.031  -3.072  0.00  0.00    +0.082 C 
ATOM     18  C   UNL     1       1.094  -4.282  -1.741  0.00  0.00    +0.028 C 
ATOM     19  C   UNL     1       2.440  -3.832  -1.158  0.00  0.00    +0.021 C 
BRANCH  17  20
ATOM     20  C   UNL     1       2.080  -6.366  -2.724  0.00  0.00    -0.027 A 
ATOM     21  C   UNL     1       3.362  -6.693  -3.201  0.00  0.00    +0.008 A 
ATOM     22  C   UNL     1       4.050  -7.815  -2.712  0.00  0.00    +0.038 A 
ATOM     23  C   UNL     1       3.452  -8.652  -1.783  0.00  0.00    +0.123 A 
ATOM     24  F   UNL     1       4.127  -9.699  -1.294  0.00  0.00    -0.205 F 
ATOM     25  C   UNL     1       2.159  -8.406  -1.347  0.00  0.00    +0.038 A 
ATOM     26  C   UNL     1       1.479  -7.279  -1.819  0.00  0.00    +0.008 A 
ENDBRANCH  17  20
BRANCH  17  27
ATOM     27  C   UNL     1       0.022  -5.448  -3.726  0.00  0.00    +0.074 C 
ATOM     28  N   UNL     1      -1.062  -5.794  -4.269  0.00  0.00    -0.196 NA
ENDBRANCH  17  27
ENDBRANCH   6  14
BRANCH   3  29
ATOM     29  C   UNL     1       2.515   2.863  -0.873  0.00  0.00    +0.316 C 
ATOM     30  O   UNL     1       1.415   3.057  -0.367  0.00  0.00    -0.250 OA
BRANCH  29  31
ATOM     31  O   UNL     1       3.246   3.912  -1.325  0.00  0.00    -0.480 OA
ATOM     32  H   UNL     1       4.111   3.663  -1.692  0.00  0.00    +0.295 HD
ENDBRANCH  29  31
ENDBRANCH   3  29
TORSDOF 6
