REMARK  Name = 
REMARK  9 active torsions:
REMARK  status: ('A' for Active; 'I' for Inactive)
REMARK    1  A    between atoms: N_1  and  CA_2
REMARK    2  A    between atoms: CA_2  and  C_4
REMARK    3  A    between atoms: CA_2  and  C_22
REMARK    4  A    between atoms: C_4  and  C_5
REMARK    5  A    between atoms: C_8  and  N_9
REMARK    6  A    between atoms: N_9  and  N_10
REMARK    7  A    between atoms: N_10  and  C_11
REMARK    8  A    between atoms: C_17  and  O_18
REMARK    9  A    between atoms: C_22  and  O_23
REMARK                            x       y       z     vdW  Elec       q    Type
REMARK                         _______ _______ _______ _____ _____    ______ ____
ROOT
ATOM      1  C   UNL     1       2.312   0.043  -2.531  0.00  0.00    +0.086 C 
ATOM      2  C   UNL     1       1.801  -1.377  -2.279  0.00  0.00    +0.166 C 
ATOM      3  O   UNL     1       0.772  -1.582  -1.632  0.00  0.00    -0.292 OA
ATOM      4  C   UNL     1       2.563  -2.529  -2.804  0.00  0.00    +0.094 C 
ATOM      5  C   UNL     1       3.544  -2.320  -3.685  0.00  0.00    +0.142 C 
ATOM      6  C   UNL     1       3.939  -0.999  -4.157  0.00  0.00    +0.083 C 
ATOM      7  C   UNL     1       3.353   0.088  -3.627  0.00  0.00    +0.012 C 
ENDROOT
BRANCH   5   8
ATOM      8  O   UNL     1       4.183  -3.394  -4.271  0.00  0.00    -0.505 OA
ATOM      9  H   UNL     1       4.458  -3.100  -5.161  0.00  0.00    +0.292 HD
ENDBRANCH   5   8
BRANCH   6  10
ATOM     10  N   UNL     1       4.959  -0.893  -5.095  0.00  0.00    -0.262 N 
ATOM     11  H   UNL     1       5.728  -1.524  -4.845  0.00  0.00    +0.170 HD
BRANCH  10  12
ATOM     12  N   UNL     1       4.731  -0.883  -6.456  0.00  0.00    -0.250 N 
ATOM     13  H   UNL     1       3.769  -0.742  -6.775  0.00  0.00    +0.171 HD
BRANCH  12  14
ATOM     14  C   UNL     1       5.543  -0.179  -7.372  0.00  0.00    +0.135 A 
ATOM     15  N   UNL     1       4.944   0.221  -8.515  0.00  0.00    -0.239 NA
ATOM     16  C   UNL     1       5.700   0.885  -9.423  0.00  0.00    +0.113 A 
ATOM     17  C   UNL     1       7.043   1.171  -9.250  0.00  0.00    +0.020 A 
ATOM     18  C   UNL     1       7.648   0.747  -8.078  0.00  0.00    +0.005 A 
ATOM     19  C   UNL     1       6.892   0.059  -7.128  0.00  0.00    +0.045 A 
ENDBRANCH  12  14
ENDBRANCH  10  12
ENDBRANCH   6  10
BRANCH   1  20
ATOM     20  C   UNL     1       2.879   0.655  -1.235  0.00  0.00    +0.045 C 
BRANCH  20  21
ATOM     21  CA  UNL     1       1.911   0.714  -0.040  0.00  0.00    +0.162 C 
BRANCH  21  22
ATOM     22  N   UNL     1       0.673   1.493  -0.343  0.00  0.00    -0.318 NA
ATOM     23  H1  UNL     1       0.882   2.196  -1.058  0.00  0.00    +0.119 HD
ATOM     24  H2  UNL     1       0.020   0.843  -0.799  0.00  0.00    +0.119 HD
ENDBRANCH  21  22
BRANCH  21  25
ATOM     25  C   UNL     1       2.611   1.371   1.166  0.00  0.00    +0.322 C 
ATOM     26  OXT UNL     1       3.699   1.047   1.613  0.00  0.00    -0.249 OA
BRANCH  25  27
ATOM     27  O   UNL     1       1.854   2.372   1.689  0.00  0.00    -0.480 OA
ATOM     28  H   UNL     1       1.022   2.376   1.149  0.00  0.00    +0.295 HD
ENDBRANCH  25  27
ENDBRANCH  21  25
ENDBRANCH  20  21
ENDBRANCH   1  20
TORSDOF 9
