REMARK  Name = 
REMARK  9 active torsions:
REMARK  status: ('A' for Active; 'I' for Inactive)
REMARK    1  A    between atoms: C_1  and  O_2
REMARK    2  A    between atoms: O_2  and  N_3
REMARK    3  A    between atoms: C_4  and  C_5
REMARK    4  A    between atoms: C_4  and  C_29
REMARK    5  A    between atoms: N_7  and  CA_8
REMARK    6  A    between atoms: C_17  and  C_18
REMARK    7  A    between atoms: C_18  and  N_19
REMARK    8  A    between atoms: N_19  and  C_20
REMARK    9  A    between atoms: CA_25  and  C_26
REMARK                            x       y       z     vdW  Elec       q    Type
REMARK                         _______ _______ _______ _____ _____    ______ ____
ROOT
ATOM      1  CA  UNL     1       5.523   1.609  -1.849  0.00  0.00    +0.191 C 
ATOM      2  C   UNL     1       4.593   2.733  -2.398  0.00  0.00    +0.168 C 
ATOM      3  S   UNL     1       2.829   2.642  -2.017  0.00  0.00    -0.131 S 
ATOM      4  C   UNL     1       2.579   4.408  -2.247  0.00  0.00    +0.109 C 
ATOM      5  C   UNL     1       3.553   5.321  -1.551  0.00  0.00    +0.008 C 
ATOM      6  CA  UNL     1       4.801   4.908  -1.191  0.00  0.00    +0.065 C 
ATOM      7  N   UNL     1       5.196   3.616  -1.424  0.00  0.00    -0.253 N 
ATOM      8  C   UNL     1       6.156   2.768  -0.997  0.00  0.00    +0.244 C 
ATOM      9  O   UNL     1       7.021   2.836  -0.151  0.00  0.00    -0.273 OA
ENDROOT
BRANCH   1  11
ATOM     10  C   UNL     1       4.059  -0.424  -1.605  0.00  0.00    +0.268 C 
ATOM     11  N   UNL     1       4.905   0.512  -1.034  0.00  0.00    -0.296 N 
ATOM     12  H   UNL     1       4.775   0.681  -0.037  0.00  0.00    +0.150 HD
ATOM     13  O   UNL     1       3.921  -0.547  -2.818  0.00  0.00    -0.268 OA
BRANCH  10  15
ATOM     14  N   UNL     1       2.890  -2.493  -0.759  0.00  0.00    -0.078 NA
ATOM     15  C   UNL     1       3.209  -1.238  -0.607  0.00  0.00    +0.190 C 
BRANCH  15  16
ATOM     16  C   UNL     1       2.685  -0.601   0.610  0.00  0.00    +0.107 A 
ATOM     17  N   UNL     1       3.282   0.541   1.150  0.00  0.00    -0.223 NA
ATOM     18  C   UNL     1       2.630   0.943   2.213  0.00  0.00    +0.156 A 
ATOM     19  N   UNL     1       2.954   2.050   2.896  0.00  0.00    -0.338 N 
ATOM     20  H   UNL     1       3.873   2.449   2.729  0.00  0.00    +0.144 HD
ATOM     21  H   UNL     1       2.598   2.178   3.835  0.00  0.00    +0.144 HD
ATOM     22  S   UNL     1       1.302  -0.040   2.675  0.00  0.00    -0.060 S 
ATOM     23  C   UNL     1       1.593  -1.056   1.329  0.00  0.00    +0.078 A 
ENDBRANCH  15  16
BRANCH  14  25
ATOM     24  C   UNL     1       3.012  -4.402  -2.018  0.00  0.00    +0.313 C 
ATOM     25  O   UNL     1       3.427  -3.044  -1.930  0.00  0.00    -0.396 OA
ENDBRANCH  14  25
ENDBRANCH  10  15
ENDBRANCH   1  11
BRANCH   6  26
ATOM     26  C   UNL     1       5.835   5.915  -0.557  0.00  0.00    +0.086 C 
ATOM     27  OXT UNL     1       5.343   6.623   0.378  0.00  0.00    -0.543 OA
ATOM     28  O   UNL     1       6.921   6.013  -1.177  0.00  0.00    -0.543 OA
ENDBRANCH   6  26
BRANCH   5  29
ATOM     29  C   UNL     1       3.085   6.770  -1.431  0.00  0.00    +0.168 C 
BRANCH  29  30
ATOM     30  N   UNL     1       1.929   7.144  -0.425  0.00  0.00    +0.244 N 
ATOM     31  C   UNL     1       1.705   8.671  -0.496  0.00  0.00    +0.133 C 
ATOM     32  C   UNL     1       0.535   8.871  -1.470  0.00  0.00    +0.056 C 
ATOM     33  C   UNL     1       0.109   7.482  -1.916  0.00  0.00    +0.056 C 
ATOM     34  C   UNL     1       0.533   6.637  -0.738  0.00  0.00    +0.133 C 
ATOM     35  C   UNL     1       2.371   6.734   0.973  0.00  0.00    +0.193 C 
ENDBRANCH  29  30
ENDBRANCH   5  29
TORSDOF 7
