REMARK  Name = 
REMARK  5 active torsions:
REMARK  status: ('A' for Active; 'I' for Inactive)
REMARK    1  A    between atoms: O_1  and  C_2
REMARK    2  A    between atoms: C_2  and  C_4
REMARK    3  A    between atoms: C_5  and  C_6
REMARK    4  A    between atoms: C_7  and  O_8
REMARK    5  A    between atoms: C_10  and  O_11
REMARK                            x       y       z     vdW  Elec       q    Type
REMARK                         _______ _______ _______ _____ _____    ______ ____
ROOT
ATOM      1  C   UNL     1       5.267   0.924  -2.447  0.00  0.00    +0.017 A 
ATOM      2  C   UNL     1       5.843  -0.032  -3.295  0.00  0.00    +0.015 A 
ATOM      3  C   UNL     1       6.425   0.358  -4.503  0.00  0.00    +0.046 A 
ATOM      4  C   UNL     1       6.428   1.700  -4.866  0.00  0.00    +0.120 A 
ATOM      5  C   UNL     1       5.879   2.667  -4.031  0.00  0.00    +0.091 A 
ATOM      6  C   UNL     1       5.305   2.275  -2.823  0.00  0.00    +0.127 A 
ENDROOT
BRANCH   1   8
ATOM      7  C   UNL     1       3.287   0.134  -1.273  0.00  0.00    +0.092 C 
ATOM      8  C   UNL     1       4.586   0.467  -1.234  0.00  0.00    +0.018 C 
BRANCH   7   9
ATOM      9  C   UNL     1       2.615  -0.320  -0.042  0.00  0.00    +0.330 C 
ATOM     10  O   UNL     1       3.151  -0.384   1.050  0.00  0.00    -0.246 OA
BRANCH   9  11
ATOM     11  O   UNL     1       1.327  -0.648  -0.259  0.00  0.00    -0.478 OA
ATOM     12  H   UNL     1       1.014  -0.556  -1.176  0.00  0.00    +0.295 HD
ENDBRANCH   9  11
ENDBRANCH   7   9
ENDBRANCH   1   8
BRANCH   4  13
ATOM     13  O   UNL     1       6.980   2.030  -6.068  0.00  0.00    -0.507 OA
ATOM     14  H   UNL     1       6.866   2.985  -6.209  0.00  0.00    +0.292 HD
ENDBRANCH   4  13
BRANCH   6  15
ATOM     15  O   UNL     1       4.779   3.273  -2.048  0.00  0.00    -0.506 OA
ATOM     16  H   UNL     1       4.553   2.905  -1.177  0.00  0.00    +0.292 HD
ENDBRANCH   6  15
TORSDOF 5
