REMARK  Name = 
REMARK  7 active torsions:
REMARK  status: ('A' for Active; 'I' for Inactive)
REMARK    1  A    between atoms: N_8  and  C_9
REMARK    2  A    between atoms: C_9  and  O_10
REMARK    3  A    between atoms: O_10  and  C_11
REMARK    4  A    between atoms: C_11  and  C_12
REMARK    5  A    between atoms: C_11  and  C_14
REMARK    6  A    between atoms: C_12  and  O_13
REMARK    7  A    between atoms: C_14  and  O_15
REMARK                            x       y       z     vdW  Elec       q    Type
REMARK                         _______ _______ _______ _____ _____    ______ ____
ROOT
ATOM      1  N   UNL     1       3.163  -0.803   4.060  0.00  0.00    -0.329 N 
ATOM      2  H   UNL     1       2.572  -0.050   4.387  0.00  0.00    +0.145 HD
ATOM      3  H   UNL     1       2.723  -1.716   4.107  0.00  0.00    +0.145 HD
ATOM      4  C   UNL     1       3.887  -0.610   2.930  0.00  0.00    +0.195 A 
ATOM      5  N   UNL     1       4.246   0.693   2.651  0.00  0.00    -0.293 N 
ATOM      6  H   UNL     1       4.000   1.436   3.281  0.00  0.00    +0.172 HD
ATOM      7  C   UNL     1       5.013   1.083   1.560  0.00  0.00    +0.280 A 
ATOM      8  O   UNL     1       5.315   2.257   1.371  0.00  0.00    -0.265 OA
ATOM      9  C   UNL     1       5.385  -0.036   0.723  0.00  0.00    +0.172 A 
ATOM     10  N   UNL     1       6.134  -0.088  -0.426  0.00  0.00    -0.229 NA
ATOM     11  C   UNL     1       6.151  -1.366  -0.749  0.00  0.00    +0.203 A 
ATOM     12  N   UNL     1       5.439  -2.129   0.140  0.00  0.00    -0.291 N 
ATOM     13  C   UNL     1       4.947  -1.286   1.096  0.00  0.00    +0.171 A 
ATOM     14  N   UNL     1       4.202  -1.630   2.174  0.00  0.00    -0.196 NA
ENDROOT
BRANCH  12  15
ATOM     15  C   UNL     1       5.199  -3.551   0.046  0.00  0.00    +0.287 C 
BRANCH  15  16
ATOM     16  O   UNL     1       6.414  -4.310   0.068  0.00  0.00    -0.351 OA
BRANCH  16  17
ATOM     17  C   UNL     1       7.240  -4.152   1.245  0.00  0.00    +0.171 C 
BRANCH  17  18
ATOM     18  C   UNL     1       8.490  -5.022   1.028  0.00  0.00    +0.189 C 
BRANCH  18  19
ATOM     19  O   UNL     1       9.191  -4.598  -0.142  0.00  0.00    -0.392 OA
ATOM     20  H   UNL     1       8.556  -4.685  -0.877  0.00  0.00    +0.210 HD
ENDBRANCH  18  19
ENDBRANCH  17  18
BRANCH  17  21
ATOM     21  C   UNL     1       6.529  -4.574   2.540  0.00  0.00    +0.189 C 
BRANCH  21  22
ATOM     22  O   UNL     1       6.104  -5.934   2.481  0.00  0.00    -0.392 OA
ATOM     23  H   UNL     1       5.638  -6.056   1.635  0.00  0.00    +0.210 HD
ENDBRANCH  21  22
ENDBRANCH  17  21
ENDBRANCH  16  17
ENDBRANCH  15  16
ENDBRANCH  12  15
TORSDOF 7
