REMARK  Name = 
REMARK  10 active torsions:
REMARK  status: ('A' for Active; 'I' for Inactive)
REMARK    1  A    between atoms: C_4  and  C_6
REMARK    2  A    between atoms: C_7  and  O_8
REMARK    3  A    between atoms: C_7  and  C_13
REMARK    4  A    between atoms: O_8  and  C_9
REMARK    5  A    between atoms: C_9  and  C_11
REMARK    6  A    between atoms: C_11  and  C_12
REMARK    7  A    between atoms: C_13  and  C_15
REMARK    8  A    between atoms: C_17  and  C_18
REMARK    9  A    between atoms: C_20  and  O_22
REMARK   10  A    between atoms: C_35  and  C_36
REMARK                            x       y       z     vdW  Elec       q    Type
REMARK                         _______ _______ _______ _____ _____    ______ ____
ROOT
ATOM      1  C   UNL     1      -0.000  -0.000   0.000  0.00  0.00    +0.006 C 
ATOM      2  C   UNL     1      -0.000  -0.000  -0.000  0.00  0.00    +0.034 C 
ATOM      3  C   UNL     1      -0.000  -0.000  -0.000  0.00  0.00    +0.011 C 
ATOM      4  C   UNL     1      -0.000  -0.000  -0.000  0.00  0.00    +0.032 C 
ATOM      5  C   UNL     1      -0.000  -0.000  -0.000  0.00  0.00    -0.053 C 
ATOM      6  C   UNL     1      -0.000  -0.000   0.000  0.00  0.00    +0.044 C 
ATOM      7  C   UNL     1      -0.000  -0.000  -0.000  0.00  0.00    +0.023 C 
ATOM      8  C   UNL     1      -0.000  -0.000  -0.000  0.00  0.00    -0.009 C 
ATOM      9  C   UNL     1      -0.000  -0.000  -0.000  0.00  0.00    +0.047 C 
ATOM     10  C   UNL     1      -0.000  -0.000  -0.000  0.00  0.00    +0.179 C 
ATOM     11  O   UNL     1      -0.000  -0.000  -0.000  0.00  0.00    -0.288 OA
ATOM     12  C   UNL     1      -0.000  -0.000  -0.000  0.00  0.00    +0.051 C 
ATOM     13  C   UNL     1      -0.000  -0.000   0.000  0.00  0.00    +0.153 C 
ATOM     14  F   UNL     1      -0.000  -0.000  -0.000  0.00  0.00    -0.238 F 
ATOM     15  C   UNL     1      -0.000  -0.000   0.000  0.00  0.00    +0.154 C 
ATOM     16  C   UNL     1      -0.000  -0.000  -0.000  0.00  0.00    +0.045 C 
ATOM     17  C   UNL     1      -0.000  -0.000  -0.000  0.00  0.00    +0.021 C 
ATOM     18  C   UNL     1      -0.000  -0.000  -0.000  0.00  0.00    +0.016 C 
ATOM     19  C   UNL     1      -0.000  -0.000   0.000  0.00  0.00    +0.180 C 
ATOM     20  C   UNL     1      -0.000  -0.000  -0.000  0.00  0.00    +0.038 C 
ATOM     21  C   UNL     1      -0.000  -0.000  -0.000  0.00  0.00    +0.012 C 
ATOM     22  C   UNL     1      -0.000  -0.000  -0.000  0.00  0.00    +0.012 C 
ENDROOT
BRANCH  15  23
ATOM     23  O   UNL     1      -0.000  -0.000  -0.000  0.00  0.00    -0.389 OA
ATOM     24  H   UNL     1       0.000   0.000   0.000  0.00  0.00    +0.210 HD
ENDBRANCH  15  23
BRANCH  19  25
ATOM     25  C   UNL     1      -0.000  -0.000  -0.000  0.00  0.00    +0.192 C 
ATOM     26  O   UNL     1      -0.000  -0.000  -0.000  0.00  0.00    -0.292 OA
BRANCH  25  27
ATOM     27  C   UNL     1      -0.000  -0.000   0.000  0.00  0.00    +0.187 C 
ATOM     28 CL   UNL     1      -0.000  -0.000   0.000  0.00  0.00    -0.117 Cl
ENDBRANCH  25  27
ENDBRANCH  19  25
BRANCH  19  29
ATOM     29  O   UNL     1      -0.000  -0.000  -0.000  0.00  0.00    -0.449 OA
BRANCH  29  30
ATOM     30  C   UNL     1      -0.000  -0.000   0.000  0.00  0.00    +0.308 C 
ATOM     31  O   UNL     1      -0.000  -0.000   0.000  0.00  0.00    -0.251 OA
BRANCH  30  32
ATOM     32  C   UNL     1      -0.000  -0.000   0.000  0.00  0.00    +0.117 C 
ATOM     33  C   UNL     1      -0.000  -0.000   0.000  0.00  0.00    +0.015 C 
ENDBRANCH  30  32
ENDBRANCH  29  30
ENDBRANCH  19  29
TORSDOF 6
