REMARK  Name = 
REMARK  17 active torsions:
REMARK  status: ('A' for Active; 'I' for Inactive)
REMARK    1  A    between atoms: C_1  and  C_2
REMARK    2  A    between atoms: C_5  and  O_7
REMARK    3  A    between atoms: O_7  and  C_8
REMARK    4  A    between atoms: C_8  and  C_9
REMARK    5  A    between atoms: C_12  and  O_14
REMARK    6  A    between atoms: O_14  and  C_15
REMARK    7  A    between atoms: C_16  and  C_28
REMARK    8  A    between atoms: C_20  and  O_21
REMARK    9  A    between atoms: C_23  and  O_24
REMARK   10  A    between atoms: C_31  and  O_32
REMARK   11  A    between atoms: C_33  and  O_34
REMARK   12  A    between atoms: C_36  and  O_38
REMARK   13  A    between atoms: C_39  and  O_41
REMARK   14  A    between atoms: C_42  and  O_44
REMARK   15  A    between atoms: C_45  and  O_47
REMARK   16  A    between atoms: C_48  and  O_50
REMARK   17  A    between atoms: C_51  and  O_53
REMARK                            x       y       z     vdW  Elec       q    Type
REMARK                         _______ _______ _______ _____ _____    ______ ____
ROOT
ATOM      1  C   UNL     1       2.908  -4.835  -3.801  0.00  0.00    +0.179 C 
ATOM      2  C   UNL     1       2.417  -6.276  -3.586  0.00  0.00    +0.177 C 
ATOM      3  C   UNL     1       2.024  -6.458  -2.113  0.00  0.00    +0.180 C 
ATOM      4  C   UNL     1       3.126  -5.979  -1.164  0.00  0.00    +0.214 C 
ATOM      5  C   UNL     1       3.636  -4.572  -1.570  0.00  0.00    +0.340 C 
ATOM      6  O   UNL     1       4.056  -4.606  -2.953  0.00  0.00    -0.331 OA
ENDROOT
BRANCH   3   7
ATOM      7  O   UNL     1       1.733  -7.836  -1.832  0.00  0.00    -0.386 OA
ATOM      8  H   UNL     1       1.752  -7.920  -0.858  0.00  0.00    +0.210 HD
ENDBRANCH   3   7
BRANCH   4   9
ATOM      9  O   UNL     1       2.599  -6.068   0.175  0.00  0.00    -0.383 OA
ATOM     10  H   UNL     1       2.010  -5.289   0.296  0.00  0.00    +0.210 HD
ENDBRANCH   4   9
BRANCH   2  11
ATOM     11  O   UNL     1       1.320  -6.578  -4.453  0.00  0.00    -0.386 OA
ATOM     12  H   UNL     1       0.542  -6.073  -4.164  0.00  0.00    +0.210 HD
ENDBRANCH   2  11
BRANCH   5  13
ATOM     13  O   UNL     1       4.711  -4.186  -0.697  0.00  0.00    -0.453 OA
BRANCH  13  14
ATOM     14  C   UNL     1       4.366  -3.597   0.518  0.00  0.00    +0.214 A 
ATOM     15  C   UNL     1       2.999  -3.045   0.814  0.00  0.00    +0.238 A 
ATOM     16  O   UNL     1       1.984  -3.485   0.279  0.00  0.00    -0.283 OA
ATOM     17  C   UNL     1       2.876  -2.109   1.928  0.00  0.00    +0.109 A 
ATOM     18  C   UNL     1       3.807  -2.237   2.949  0.00  0.00    +0.147 A 
ATOM     19  C   UNL     1       3.613  -1.561   4.153  0.00  0.00    +0.092 A 
ATOM     20  C   UNL     1       2.493  -0.742   4.298  0.00  0.00    +0.124 A 
ATOM     21  C   UNL     1       1.596  -0.551   3.251  0.00  0.00    +0.091 A 
ATOM     22  O   UNL     1       4.909  -3.051   2.833  0.00  0.00    -0.451 OA
ATOM     23  C   UNL     1       1.791  -1.233   2.058  0.00  0.00    +0.135 A 
ATOM     24  C   UNL     1       5.197  -3.597   1.586  0.00  0.00    +0.181 A 
BRANCH  24  25
ATOM     25  C   UNL     1       6.467  -4.344   1.589  0.00  0.00    +0.025 A 
ATOM     26  C   UNL     1       7.687  -3.743   1.257  0.00  0.00    +0.060 A 
ATOM     27  C   UNL     1       8.857  -4.496   1.334  0.00  0.00    +0.159 A 
ATOM     28  C   UNL     1       8.834  -5.830   1.737  0.00  0.00    +0.158 A 
ATOM     29  C   UNL     1       7.631  -6.439   2.068  0.00  0.00    +0.050 A 
ATOM     30  C   UNL     1       6.451  -5.694   1.992  0.00  0.00    +0.015 A 
BRANCH  28  31
ATOM     31  O   UNL     1      10.022  -6.501   1.799  0.00  0.00    -0.503 OA
ATOM     32  H   UNL     1       9.839  -7.416   2.080  0.00  0.00    +0.292 HD
ENDBRANCH  28  31
BRANCH  27  33
ATOM     33  O   UNL     1      10.052  -3.909   1.024  0.00  0.00    -0.503 OA
ATOM     34  H   UNL     1      10.712  -4.618   1.150  0.00  0.00    +0.292 HD
ENDBRANCH  27  33
ENDBRANCH  24  25
BRANCH  23  35
ATOM     35  O   UNL     1       0.932  -1.037   1.014  0.00  0.00    -0.506 OA
ATOM     36  H   UNL     1       0.221  -0.430   1.281  0.00  0.00    +0.292 HD
ENDBRANCH  23  35
BRANCH  20  37
ATOM     37  O   UNL     1       2.225  -0.100   5.471  0.00  0.00    -0.507 OA
ATOM     38  H   UNL     1       2.870  -0.379   6.143  0.00  0.00    +0.292 HD
ENDBRANCH  20  37
ENDBRANCH  13  14
ENDBRANCH   5  13
BRANCH   1  39
ATOM     39  C   UNL     1       3.236  -4.570  -5.277  0.00  0.00    +0.197 C 
BRANCH  39  40
ATOM     40  O   UNL     1       3.506  -3.174  -5.470  0.00  0.00    -0.346 OA
BRANCH  40  46
ATOM     41  C   UNL     1       1.377  -3.225  -9.689  0.00  0.00    +0.041 C 
ATOM     42  C   UNL     1       2.677  -2.837  -8.993  0.00  0.00    +0.149 C 
ATOM     43  C   UNL     1       3.027  -1.362  -9.242  0.00  0.00    +0.174 C 
ATOM     44  C   UNL     1       4.294  -1.010  -8.452  0.00  0.00    +0.179 C 
ATOM     45  C   UNL     1       4.153  -1.386  -6.974  0.00  0.00    +0.201 C 
ATOM     46  C   UNL     1       3.725  -2.867  -6.851  0.00  0.00    +0.282 C 
ATOM     47  O   UNL     1       2.529  -3.100  -7.597  0.00  0.00    -0.343 OA
BRANCH  45  48
ATOM     48  O   UNL     1       5.409  -1.082  -6.338  0.00  0.00    -0.384 OA
ATOM     49  H   UNL     1       6.007  -1.841  -6.455  0.00  0.00    +0.210 HD
ENDBRANCH  45  48
BRANCH  44  50
ATOM     50  O   UNL     1       4.592   0.387  -8.577  0.00  0.00    -0.386 OA
ATOM     51  H   UNL     1       5.154   0.612  -7.806  0.00  0.00    +0.210 HD
ENDBRANCH  44  50
BRANCH  43  52
ATOM     52  O   UNL     1       3.199  -1.149 -10.646  0.00  0.00    -0.387 OA
ATOM     53  H   UNL     1       4.143  -0.991 -10.821  0.00  0.00    +0.210 HD
ENDBRANCH  43  52
ENDBRANCH  40  46
ENDBRANCH  39  40
ENDBRANCH   1  39
TORSDOF 16
