REMARK  Name = 
REMARK  7 active torsions:
REMARK  status: ('A' for Active; 'I' for Inactive)
REMARK    1  A    between atoms: CD1_1  and  CG_2
REMARK    2  A    between atoms: CG_2  and  CD2_3
REMARK    3  A    between atoms: CG_2  and  CB_4
REMARK    4  A    between atoms: CB_4  and  CA_5
REMARK    5  A    between atoms: CA_5  and  N_7
REMARK    6  A    between atoms: CA_5  and  C_8
REMARK    7  A    between atoms: C_8  and  O_9
REMARK                            x       y       z     vdW  Elec       q    Type
REMARK                         _______ _______ _______ _____ _____    ______ ____
ROOT
ATOM      1  CA  LEU A   1       4.420  -1.363   0.017  0.00  0.00    +0.161 C 
ENDROOT
BRANCH   1   2
ATOM      2  N   LEU A   1       3.776  -2.597  -0.532  0.00  0.00    -0.318 NA
ATOM      3  H1  LEU A   1       4.483  -3.113  -1.062  0.00  0.00    +0.119 HD
ATOM      4  H2  LEU A   1       3.558  -3.213   0.260  0.00  0.00    +0.119 HD
ENDBRANCH   1   2
BRANCH   1   5
ATOM      5  C   LEU A   1       3.336  -0.560   0.759  0.00  0.00    +0.322 C 
ATOM      6  OXT LEU A   1       3.544   0.271   1.629  0.00  0.00    -0.249 OA
BRANCH   5   7
ATOM      7  O   LEU A   1       2.094  -0.887   0.315  0.00  0.00    -0.480 OA
ATOM      8  H   LEU A   1       2.228  -1.598  -0.362  0.00  0.00    +0.295 HD
ENDBRANCH   5   7
ENDBRANCH   1   5
BRANCH   1   9
ATOM      9  CB  LEU A   1       5.010  -0.551  -1.149  0.00  0.00    +0.033 C 
BRANCH   9  11
ATOM     10  CD1 LEU A   1       6.829   0.598   0.234  0.00  0.00    +0.007 C 
ATOM     11  CG  LEU A   1       5.679   0.783  -0.754  0.00  0.00    -0.015 C 
ATOM     12  CD2 LEU A   1       6.185   1.501  -2.008  0.00  0.00    +0.007 C 
ENDBRANCH   9  11
ENDBRANCH   1   9
TORSDOF 5
