REMARK  Name = 
REMARK  25 active torsions:
REMARK  status: ('A' for Active; 'I' for Inactive)
REMARK    1  A    between atoms: C_1  and  C_2
REMARK    2  A    between atoms: C_2  and  C_3
REMARK    3  A    between atoms: C_3  and  C_5
REMARK    4  A    between atoms: C_3  and  C_42
REMARK    5  A    between atoms: C_12  and  C_14
REMARK    6  A    between atoms: C_14  and  O_16
REMARK    7  A    between atoms: O_16  and  C_17
REMARK    8  A    between atoms: C_17  and  C_19
REMARK    9  A    between atoms: C_17  and  C_31
REMARK   10  A    between atoms: C_19  and  C_20
REMARK   11  A    between atoms: C_20  and  C_21
REMARK   12  A    between atoms: C_24  and  O_25
REMARK   13  A    between atoms: O_25  and  C_26
REMARK   14  A    between atoms: C_27  and  O_28
REMARK   15  A    between atoms: O_28  and  C_29
REMARK   16  A    between atoms: C_35  and  O_36
REMARK   17  A    between atoms: O_36  and  C_37
REMARK   18  A    between atoms: C_37  and  C_38
REMARK   19  A    between atoms: C_38  and  O_39
REMARK   20  A    between atoms: C_44  and  O_45
REMARK   21  A    between atoms: O_45  and  C_46
REMARK   22  A    between atoms: C_47  and  O_48
REMARK   23  A    between atoms: O_48  and  C_49
REMARK   24  A    between atoms: C_50  and  O_51
REMARK   25  A    between atoms: O_51  and  C_52
REMARK                            x       y       z     vdW  Elec       q    Type
REMARK                         _______ _______ _______ _____ _____    ______ ____
ROOT
ATOM      1  O   UNL     1      -0.184   0.339  -0.048  0.00  0.00    -0.455 OA
ENDROOT
BRANCH   1   2
ATOM      2  C   UNL     1      -0.955   0.387  -1.173  0.00  0.00    +0.328 C 
ATOM      3  O   UNL     1      -2.176   0.314  -1.166  0.00  0.00    -0.249 OA
BRANCH   2   6
ATOM      4  C   UNL     1       2.368   1.051  -2.296  0.00  0.00    +0.224 C 
ATOM      5  N   UNL     1       1.014   1.352  -2.345  0.00  0.00    -0.288 N 
ATOM      6  C   UNL     1      -0.092   0.386  -2.451  0.00  0.00    +0.185 C 
ATOM      7  C   UNL     1      -0.885   0.676  -3.735  0.00  0.00    +0.034 C 
ATOM      8  C   UNL     1      -1.361   2.126  -3.831  0.00  0.00    +0.004 C 
ATOM      9  C   UNL     1      -0.218   3.112  -3.608  0.00  0.00    +0.019 C 
ATOM     10  C   UNL     1       0.589   2.767  -2.361  0.00  0.00    +0.108 C 
ATOM     11  O   UNL     1       3.188   1.981  -2.371  0.00  0.00    -0.275 OA
BRANCH   4  12
ATOM     12  C   UNL     1       2.870  -0.425  -2.182  0.00  0.00    +0.105 C 
BRANCH  12  13
ATOM     13  C   UNL     1       3.853  -0.720  -1.032  0.00  0.00    -0.028 A 
ATOM     14  C   UNL     1       4.292  -2.028  -0.743  0.00  0.00    +0.054 A 
ATOM     15  C   UNL     1       5.247  -2.299   0.268  0.00  0.00    +0.165 A 
ATOM     16  C   UNL     1       5.777  -1.239   1.019  0.00  0.00    +0.204 A 
ATOM     17  C   UNL     1       5.356   0.064   0.733  0.00  0.00    +0.165 A 
ATOM     18  C   UNL     1       4.374   0.298  -0.242  0.00  0.00    +0.054 A 
BRANCH  17  19
ATOM     19  O   UNL     1       5.992   1.056   1.446  0.00  0.00    -0.491 OA
ATOM     20  C   UNL     1       5.661   2.370   1.053  0.00  0.00    +0.277 C 
ENDBRANCH  17  19
BRANCH  16  21
ATOM     21  O   UNL     1       6.784  -1.311   1.949  0.00  0.00    -0.488 OA
ATOM     22  C   UNL     1       6.825  -2.425   2.823  0.00  0.00    +0.277 C 
ENDBRANCH  16  21
BRANCH  15  23
ATOM     23  O   UNL     1       5.723  -3.555   0.542  0.00  0.00    -0.491 OA
ATOM     24  C   UNL     1       5.395  -4.604  -0.338  0.00  0.00    +0.277 C 
ENDBRANCH  15  23
ENDBRANCH  12  13
BRANCH  12  26
ATOM     25  C   UNL     1       4.645  -0.096  -4.058  0.00  0.00    +0.005 C 
ATOM     26  C   UNL     1       3.426  -0.873  -3.557  0.00  0.00    +0.014 C 
ENDBRANCH  12  26
ENDBRANCH   4  12
ENDBRANCH   2   6
ENDBRANCH   1   2
BRANCH   1  27
ATOM     27  C   UNL     1      -0.365   1.382   0.932  0.00  0.00    +0.207 C 
BRANCH  27  28
ATOM     28  C   UNL     1       0.539   1.073   2.111  0.00  0.00    -0.004 A 
ATOM     29  C   UNL     1       1.507   2.023   2.465  0.00  0.00    +0.053 A 
ATOM     30  C   UNL     1       2.429   1.787   3.486  0.00  0.00    +0.122 A 
ATOM     31  C   UNL     1       2.336   0.607   4.213  0.00  0.00    +0.046 A 
ATOM     32  C   UNL     1       1.316  -0.313   3.935  0.00  0.00    +0.004 A 
ATOM     33  C   UNL     1       0.428  -0.087   2.880  0.00  0.00    +0.007 A 
BRANCH  30  34
ATOM     34  O   UNL     1       3.516   2.589   3.679  0.00  0.00    -0.481 OA
BRANCH  34  35
ATOM     35  C   UNL     1       3.267   3.973   3.915  0.00  0.00    +0.349 C 
BRANCH  35  36
ATOM     36  C   UNL     1       3.505   4.917   2.737  0.00  0.00    +0.343 C 
ATOM     37  O   UNL     1       3.697   6.114   2.864  0.00  0.00    -0.247 OA
BRANCH  36  38
ATOM     38  O   UNL     1       3.394   4.335   1.518  0.00  0.00    -0.478 OA
ATOM     39  H   UNL     1       3.315   3.370   1.666  0.00  0.00    +0.295 HD
ENDBRANCH  36  38
ENDBRANCH  35  36
ENDBRANCH  34  35
ENDBRANCH  30  34
ENDBRANCH  27  28
BRANCH  27  40
ATOM     40  C   UNL     1      -1.792   1.659   1.388  0.00  0.00    +0.054 C 
BRANCH  40  41
ATOM     41  C   UNL     1      -1.883   2.838   2.361  0.00  0.00    +0.039 C 
BRANCH  41  42
ATOM     42  C   UNL     1      -3.322   3.052   2.728  0.00  0.00    -0.044 A 
ATOM     43  C   UNL     1      -4.163   3.766   1.870  0.00  0.00    +0.053 A 
ATOM     44  C   UNL     1      -5.534   3.813   2.110  0.00  0.00    +0.162 A 
ATOM     45  C   UNL     1      -6.073   3.160   3.239  0.00  0.00    +0.161 A 
ATOM     46  C   UNL     1      -5.223   2.484   4.108  0.00  0.00    +0.049 A 
ATOM     47  C   UNL     1      -3.851   2.424   3.856  0.00  0.00    +0.007 A 
BRANCH  45  48
ATOM     48  O   UNL     1      -7.439   3.229   3.393  0.00  0.00    -0.491 OA
ATOM     49  C   UNL     1      -8.000   2.522   4.494  0.00  0.00    +0.277 C 
ENDBRANCH  45  48
BRANCH  44  50
ATOM     50  O   UNL     1      -6.439   4.441   1.284  0.00  0.00    -0.491 OA
ATOM     51  C   UNL     1      -5.928   5.061   0.108  0.00  0.00    +0.277 C 
ENDBRANCH  44  50
ENDBRANCH  41  42
ENDBRANCH  40  41
ENDBRANCH  27  40
ENDBRANCH   1  27
TORSDOF 19
