REMARK  Name = 
REMARK  6 active torsions:
REMARK  status: ('A' for Active; 'I' for Inactive)
REMARK    1  A    between atoms: O_1  and  C_2
REMARK    2  A    between atoms: C_2  and  C_3
REMARK    3  A    between atoms: C_6  and  S_8
REMARK    4  A    between atoms: C_9  and  O_11
REMARK    5  A    between atoms: C_12  and  O_14
REMARK    6  A    between atoms: C_15  and  S_17
REMARK                            x       y       z     vdW  Elec       q    Type
REMARK                         _______ _______ _______ _____ _____    ______ ____
ROOT
ATOM      1  C   UNL     1       3.262  -1.263   0.025  0.00  0.00    +0.160 C 
ATOM      2  C   UNL     1       2.814  -2.739   0.078  0.00  0.00    +0.105 C 
ATOM      3  C   UNL     1       2.326  -3.191   1.466  0.00  0.00    +0.161 C 
ATOM      4  C   UNL     1       3.175  -2.643   2.621  0.00  0.00    +0.183 C 
ATOM      5  C   UNL     1       3.463  -1.141   2.486  0.00  0.00    +0.204 C 
ATOM      6  O   UNL     1       3.946  -0.780   1.191  0.00  0.00    -0.357 OA
ENDROOT
BRANCH   2   7
ATOM      7  S   UNL     1       4.198  -3.798  -0.547  0.00  0.00    -0.170 S 
ATOM      8  H   UNL     1       3.945  -4.884   0.198  0.00  0.00    +0.102 HD
ENDBRANCH   2   7
BRANCH   3   9
ATOM      9  O   UNL     1       0.944  -2.855   1.647  0.00  0.00    -0.388 OA
ATOM     10  H   UNL     1       0.772  -1.981   1.241  0.00  0.00    +0.210 HD
ENDBRANCH   3   9
BRANCH   4  11
ATOM     11  O   UNL     1       4.420  -3.379   2.680  0.00  0.00    -0.386 OA
ATOM     12  H   UNL     1       5.126  -2.827   2.296  0.00  0.00    +0.210 HD
ENDBRANCH   4  11
BRANCH   5  13
ATOM     13  S   UNL     1       2.193  -0.030   3.149  0.00  0.00    -0.145 S 
ATOM     14  H   UNL     1       1.297  -0.228   2.172  0.00  0.00    +0.104 HD
ENDBRANCH   5  13
BRANCH   1  15
ATOM     15  C   UNL     1       2.143  -0.305  -0.426  0.00  0.00    +0.188 C 
BRANCH  15  16
ATOM     16  O   UNL     1       0.970  -0.413   0.377  0.00  0.00    -0.392 OA
ATOM     17  H   UNL     1       0.439   0.384   0.177  0.00  0.00    +0.210 HD
ENDBRANCH  15  16
ENDBRANCH   1  15
TORSDOF 6
