REMARK  Name = 
REMARK  14 active torsions:
REMARK  status: ('A' for Active; 'I' for Inactive)
REMARK    1  A    between atoms: N_8  and  C_9
REMARK    2  A    between atoms: C_12  and  C_14
REMARK    3  A    between atoms: C_14  and  O_15
REMARK    4  A    between atoms: O_15  and  P_16
REMARK    5  A    between atoms: P_16  and  O_17
REMARK    6  A    between atoms: P_16  and  O_19
REMARK    7  A    between atoms: O_19  and  P_20
REMARK    8  A    between atoms: P_20  and  O_21
REMARK    9  A    between atoms: P_20  and  O_23
REMARK   10  A    between atoms: O_23  and  P_24
REMARK   11  A    between atoms: P_24  and  O_25
REMARK   12  A    between atoms: P_24  and  O_26
REMARK   13  A    between atoms: C_28  and  O_30
REMARK   14  A    between atoms: C_31  and  O_33
REMARK                            x       y       z     vdW  Elec       q    Type
REMARK                         _______ _______ _______ _____ _____    ______ ____
ROOT
ATOM      1  C   UNL     1       9.334  -5.791  -4.633  0.00  0.00    +0.253 C 
ATOM      2  C   UNL     1      10.632  -5.449  -3.874  0.00  0.00    +0.195 C 
ATOM      3  C   UNL     1      10.225  -5.416  -2.394  0.00  0.00    +0.178 C 
ATOM      4  C   UNL     1       8.719  -5.663  -2.410  0.00  0.00    +0.178 C 
ATOM      5  O   UNL     1       8.478  -6.405  -3.617  0.00  0.00    -0.346 OA
ENDROOT
BRANCH   1  17
ATOM      6  N   UNL     1      11.799  -2.435  -7.981  0.00  0.00    -0.329 N 
ATOM      7  H   UNL     1      12.134  -1.488  -8.108  0.00  0.00    +0.145 HD
ATOM      8  H   UNL     1      12.514  -3.076  -7.659  0.00  0.00    +0.145 HD
ATOM      9  C   UNL     1      10.609  -2.604  -7.353  0.00  0.00    +0.195 A 
ATOM     10  N   UNL     1       9.682  -1.599  -7.543  0.00  0.00    -0.293 N 
ATOM     11  H   UNL     1       9.897  -0.816  -8.136  0.00  0.00    +0.172 HD
ATOM     12  C   UNL     1       8.397  -1.608  -7.034  0.00  0.00    +0.280 A 
ATOM     13  O   UNL     1       7.600  -0.700  -7.253  0.00  0.00    -0.265 OA
ATOM     14  C   UNL     1       8.133  -2.787  -6.235  0.00  0.00    +0.172 A 
ATOM     15  N   UNL     1       6.990  -3.185  -5.602  0.00  0.00    -0.229 NA
ATOM     16  C   UNL     1       7.311  -4.334  -5.048  0.00  0.00    +0.203 A 
ATOM     17  N   UNL     1       8.637  -4.653  -5.226  0.00  0.00    -0.285 N 
ATOM     18  C   UNL     1       9.152  -3.704  -6.075  0.00  0.00    +0.171 A 
ATOM     19  N   UNL     1      10.396  -3.665  -6.615  0.00  0.00    -0.196 NA
ENDBRANCH   1  17
BRANCH   2  20
ATOM     20  O   UNL     1      11.628  -6.475  -4.073  0.00  0.00    -0.385 OA
ATOM     21  H   UNL     1      11.296  -7.314  -3.708  0.00  0.00    +0.210 HD
ENDBRANCH   2  20
BRANCH   3  22
ATOM     22  O   UNL     1      10.542  -4.160  -1.803  0.00  0.00    -0.386 OA
ATOM     23  H   UNL     1      10.101  -4.122  -0.935  0.00  0.00    +0.210 HD
ENDBRANCH   3  22
BRANCH   4  24
ATOM     24  C   UNL     1       8.174  -6.353  -1.149  0.00  0.00    +0.206 C 
BRANCH  24  25
ATOM     25  O   UNL     1       8.442  -5.531  -0.018  0.00  0.00    -0.284 OA
BRANCH  25  26
ATOM     26  P   UNL     1       7.964  -6.008   1.443  0.00  0.00    +0.483 P 
ATOM     27  O   UNL     1       8.380  -7.378   1.849  0.00  0.00    -0.227 OA
BRANCH  26  28
ATOM     28  O   UNL     1       8.662  -4.895   2.365  0.00  0.00    -0.302 OA
ATOM     29  H   UNL     1       9.611  -5.090   2.490  0.00  0.00    +0.222 HD
ENDBRANCH  26  28
BRANCH  26  30
ATOM     30  O   UNL     1       6.420  -5.624   1.572  0.00  0.00    -0.186 OA
BRANCH  30  31
ATOM     31  P   UNL     1       5.735  -5.595   3.161  0.00  0.00    +0.490 P 
ATOM     32  O   UNL     1       5.196  -7.000   2.903  0.00  0.00    -0.227 OA
BRANCH  31  33
ATOM     33  O   UNL     1       4.621  -4.534   2.630  0.00  0.00    -0.302 OA
ATOM     34  H   UNL     1       3.833  -4.957   2.239  0.00  0.00    +0.222 HD
ENDBRANCH  31  33
BRANCH  31  35
ATOM     35  O   UNL     1       5.050  -5.567   4.749  0.00  0.00    -0.211 OA
BRANCH  35  36
ATOM     36  P   UNL     1       3.642  -6.571   4.788  0.00  0.00    +0.312 P 
ATOM     37  S   UNL     1       2.097  -7.671   4.830  0.00  0.00    +0.023 S 
BRANCH  36  38
ATOM     38  O   UNL     1       2.837  -5.151   4.975  0.00  0.00    -0.327 OA
ATOM     39  H   UNL     1       2.923  -4.887   5.910  0.00  0.00    +0.219 HD
ENDBRANCH  36  38
BRANCH  36  40
ATOM     40  O   UNL     1       3.971  -6.708   6.395  0.00  0.00    -0.327 OA
ATOM     41  H   UNL     1       4.921  -6.853   6.548  0.00  0.00    +0.219 HD
ENDBRANCH  36  40
ENDBRANCH  35  36
ENDBRANCH  31  35
ENDBRANCH  30  31
ENDBRANCH  26  30
ENDBRANCH  25  26
ENDBRANCH  24  25
ENDBRANCH   4  24
TORSDOF 14
