REMARK  Name = 
REMARK  18 active torsions:
REMARK  status: ('A' for Active; 'I' for Inactive)
REMARK    1  A    between atoms: C_1  and  C_2
REMARK    2  A    between atoms: C_2  and  C_3
REMARK    3  A    between atoms: C_2  and  C_4
REMARK    4  A    between atoms: C_4  and  C_5
REMARK    5  A    between atoms: C_5  and  N_7
REMARK    6  A    between atoms: C_5  and  C_36
REMARK    7  A    between atoms: C_8  and  C_10
REMARK    8  A    between atoms: C_10  and  N_12
REMARK    9  A    between atoms: C_10  and  C_28
REMARK   10  A    between atoms: N_15  and  C_16
REMARK   11  A    between atoms: C_16  and  C_18
REMARK   12  A    between atoms: C_16  and  C_25
REMARK   13  A    between atoms: C_18  and  C_19
REMARK   14  A    between atoms: C_25  and  O_26
REMARK   15  A    between atoms: N_38  and  CA_39
REMARK   16  A    between atoms: CA_39  and  CB_41
REMARK   17  A    between atoms: CA_39  and  C_48
REMARK   18  A    between atoms: CB_41  and  CG_42
REMARK                            x       y       z     vdW  Elec       q    Type
REMARK                         _______ _______ _______ _____ _____    ______ ____
ROOT
ATOM      1  C   UNK A   1       8.668   1.038  13.921  0.00  0.00    +0.195 C 
ENDROOT
BRANCH   1   2
ATOM      2  C   UNK A   1       7.794   0.818  15.194  0.00  0.00    +0.168 C 
ATOM      3  N   UNK A   1       6.715   1.816  15.298  0.00  0.00    -0.234 N 
ATOM      4  H   UNK A   1       6.039   1.459  15.974  0.00  0.00    +0.245 HD
ATOM      5  C   UNK A   1       7.036   3.082  15.664  0.00  0.00    +0.362 C 
ATOM      6  N   UNK A   1       6.603   4.089  15.005  0.00  0.00    -0.133 NA
ATOM      7  H   UNK A   1       6.947   4.957  15.414  0.00  0.00    +0.306 HD
ATOM      8  N   UNK A   1       7.828   3.168  16.753  0.00  0.00    -0.238 N 
ATOM      9  H   UNK A   1       8.025   4.117  17.052  0.00  0.00    +0.244 HD
ATOM     10  C   UNK A   1       8.987   2.298  16.862  0.00  0.00    +0.188 C 
ATOM     11  C   UNK A   1       8.603   0.867  16.508  0.00  0.00    +0.075 C 
ENDBRANCH   1   2
BRANCH   1  12
ATOM     12  N   UNK A   1       9.775   0.048  13.842  0.00  0.00    -0.285 N 
ATOM     13  H   UNK A   1      10.559   0.313  13.260  0.00  0.00    +0.151 HD
ATOM     14  C   UNK A   0       9.483  -1.293  13.767  0.00  0.00    +0.301 C 
ATOM     15  N   UNK A   1      10.604  -2.074  13.858  0.00  0.00    -0.286 N 
ATOM     16  H   UNK A   1      11.365  -1.641  14.362  0.00  0.00    +0.151 HD
ATOM     17  O   UNK A   0       8.348  -1.739  13.707  0.00  0.00    -0.253 OA
BRANCH  15  18
ATOM     18  C   UNK A   1      10.433  -3.528  14.052  0.00  0.00    +0.187 C 
BRANCH  18  19
ATOM     19  C   UNK A   1      10.178  -4.261  12.732  0.00  0.00    +0.326 C 
ATOM     20  O   UNK A   1      10.354  -3.847  11.598  0.00  0.00    -0.249 OA
BRANCH  19  21
ATOM     21  O   UNK A   1       9.729  -5.522  12.931  0.00  0.00    -0.479 OA
ATOM     22  H   UNK A   1       9.548  -5.865  12.029  0.00  0.00    +0.295 HD
ENDBRANCH  19  21
ENDBRANCH  18  19
BRANCH  18  23
ATOM     23  C   UNK A   1      11.640  -4.171  14.758  0.00  0.00    +0.069 C 
BRANCH  23  24
ATOM     24  C   UNK A   1      11.887  -3.589  16.134  0.00  0.00    -0.045 A 
ATOM     25  C   UNK A   1      13.118  -2.999  16.445  0.00  0.00    +0.004 A 
ATOM     26  C   UNK A   1      13.334  -2.438  17.705  0.00  0.00    +0.000 A 
ATOM     27  C   UNK A   1      12.325  -2.467  18.667  0.00  0.00    +0.000 A 
ATOM     28  C   UNK A   1      11.102  -3.066  18.374  0.00  0.00    +0.000 A 
ATOM     29  C   UNK A   1      10.887  -3.633  17.118  0.00  0.00    +0.004 A 
ENDBRANCH  23  24
ENDBRANCH  18  23
ENDBRANCH  15  18
ENDBRANCH   1  12
BRANCH   1  32
ATOM     30  N   UNK A   1       6.648   1.634  12.534  0.00  0.00    -0.302 N 
ATOM     31  H   UNK A   1       6.277   2.008  13.412  0.00  0.00    +0.150 HD
ATOM     32  C   UNK A   1       7.899   1.062  12.558  0.00  0.00    +0.237 C 
ATOM     33  O   UNK A   1       8.413   0.634  11.520  0.00  0.00    -0.274 OA
BRANCH  30  34
ATOM     34  C   UNK A   1       5.843   1.774  11.311  0.00  0.00    +0.159 C 
BRANCH  34  35
ATOM     35  C   UNK A   1       5.083   0.467  10.898  0.00  0.00    +0.234 C 
ATOM     36  N   UNK A   1       5.524  -0.719  11.445  0.00  0.00    -0.304 N 
ATOM     37  H   UNK A   1       6.513  -0.703  11.681  0.00  0.00    +0.149 HD
ATOM     38  O   UNK A   1       4.171   0.494  10.070  0.00  0.00    -0.274 OA
BRANCH  36  39
ATOM     39  C   UNK A   1       4.958  -2.023  11.062  0.00  0.00    +0.140 C 
BRANCH  39  40
ATOM     40  C   UNK A   1       5.595  -3.128  11.903  0.00  0.00    +0.245 C 
ATOM     41  O   UNK A   1       5.221  -4.301  11.907  0.00  0.00    -0.299 OA
ENDBRANCH  39  40
BRANCH  39  42
ATOM     42  C   UNK A   1       3.417  -2.165  11.078  0.00  0.00    +0.064 C 
BRANCH  42  43
ATOM     43  C   UNK A   1       2.716  -1.944  12.402  0.00  0.00    -0.045 A 
ATOM     44  C   UNK A   1       2.369  -3.035  13.212  0.00  0.00    +0.004 A 
ATOM     45  C   UNK A   1       1.668  -2.841  14.405  0.00  0.00    +0.000 A 
ATOM     46  C   UNK A   1       1.312  -1.555  14.805  0.00  0.00    +0.000 A 
ATOM     47  C   UNK A   1       1.651  -0.463  14.010  0.00  0.00    +0.000 A 
ATOM     48  C   UNK A   1       2.343  -0.658  12.812  0.00  0.00    +0.004 A 
ENDBRANCH  42  43
ENDBRANCH  39  42
ENDBRANCH  36  39
ENDBRANCH  34  35
BRANCH  34  49
ATOM     49  C   UNK A   1       4.758   2.878  11.425  0.00  0.00    +0.034 C 
BRANCH  49  51
ATOM     50  C   UNK A   1       6.175   4.905  10.731  0.00  0.00    +0.007 C 
ATOM     51  C   UNK A   1       5.191   4.320  11.741  0.00  0.00    -0.015 C 
ATOM     52  C   UNK A   1       3.951   5.230  11.835  0.00  0.00    +0.007 C 
ENDBRANCH  49  51
ENDBRANCH  34  49
ENDBRANCH  30  34
ENDBRANCH   1  32
TORSDOF 16
