REMARK  Name = 
REMARK  12 active torsions:
REMARK  status: ('A' for Active; 'I' for Inactive)
REMARK    1  A    between atoms: C_1  and  C_2
REMARK    2  A    between atoms: C_2  and  C_3
REMARK    3  A    between atoms: C_2  and  N_4
REMARK    4  A    between atoms: N_4  and  C_5
REMARK    5  A    between atoms: C_5  and  C_6
REMARK    6  A    between atoms: C_6  and  O_7
REMARK    7  A    between atoms: C_6  and  C_8
REMARK    8  A    between atoms: C_8  and  O_9
REMARK    9  A    between atoms: O_9  and  C_10
REMARK   10  A    between atoms: C_15  and  O_16
REMARK   11  A    between atoms: O_16  and  C_17
REMARK   12  A    between atoms: C_17  and  C_18
REMARK                            x       y       z     vdW  Elec       q    Type
REMARK                         _______ _______ _______ _____ _____    ______ ____
ROOT
ATOM      1  O   UNL     1       7.091  -2.985  -2.912  0.00  0.00    -0.486 OA
ENDROOT
BRANCH   1   2
ATOM      2  C   UNL     1       7.178  -2.479  -4.186  0.00  0.00    +0.162 A 
ATOM      3  C   UNL     1       6.868  -3.328  -5.257  0.00  0.00    +0.162 A 
ATOM      4  C   UNL     1       6.799  -2.787  -6.552  0.00  0.00    +0.049 A 
ATOM      5  C   UNL     1       7.134  -1.453  -6.789  0.00  0.00    +0.004 A 
ATOM      6  C   UNL     1       7.555  -0.649  -5.738  0.00  0.00    +0.004 A 
ATOM      7  C   UNL     1       7.586  -1.162  -4.444  0.00  0.00    +0.049 A 
BRANCH   3   8
ATOM      8  O   UNL     1       6.646  -4.664  -4.994  0.00  0.00    -0.484 OA
BRANCH   8   9
ATOM      9  C   UNL     1       6.830  -5.533  -6.116  0.00  0.00    +0.256 C 
BRANCH   9  10
ATOM     10  C   UNL     1       7.060  -6.940  -5.650  0.00  0.00    +0.006 C 
ATOM     11  C   UNL     1       8.177  -7.635  -5.911  0.00  0.00    +0.007 C 
ENDBRANCH   9  10
ENDBRANCH   8   9
ENDBRANCH   3   8
ENDBRANCH   1   2
BRANCH   1  12
ATOM     12  C   UNL     1       6.571  -2.096  -1.912  0.00  0.00    +0.261 C 
BRANCH  12  13
ATOM     13  C   UNL     1       5.028  -2.068  -1.857  0.00  0.00    +0.166 C 
BRANCH  13  14
ATOM     14  O   UNL     1       4.422  -1.669  -3.098  0.00  0.00    -0.387 OA
ATOM     15  H   UNL     1       5.017  -1.045  -3.544  0.00  0.00    +0.210 HD
ENDBRANCH  13  14
BRANCH  13  16
ATOM     16  C   UNL     1       4.574  -1.067  -0.771  0.00  0.00    +0.115 C 
BRANCH  16  17
ATOM     17  N   UNL     1       3.115  -1.098  -0.613  0.00  0.00    -0.311 NA
ATOM     18  H   UNL     1       2.699  -1.003  -1.545  0.00  0.00    +0.122 HD
BRANCH  17  20
ATOM     19  C   UNL     1       1.064  -0.166   0.289  0.00  0.00    +0.023 C 
ATOM     20  C   UNL     1       2.592  -0.074   0.295  0.00  0.00    +0.048 C 
ATOM     21  C   UNL     1       3.110  -0.264   1.722  0.00  0.00    +0.023 C 
ENDBRANCH  17  20
ENDBRANCH  16  17
ENDBRANCH  13  16
ENDBRANCH  12  13
ENDBRANCH   1  12
TORSDOF 10
