REMARK  Name = 
REMARK  5 active torsions:
REMARK  status: ('A' for Active; 'I' for Inactive)
REMARK    1  A    between atoms: C_1  and  C_2
REMARK    2  A    between atoms: C_10  and  C_11
REMARK    3  A    between atoms: C_11  and  O_12
REMARK    4  A    between atoms: C_20  and  N_21
REMARK    5  A    between atoms: N_24  and  C_25
REMARK                            x       y       z     vdW  Elec       q    Type
REMARK                         _______ _______ _______ _____ _____    ______ ____
ROOT
ATOM      1  C   UNL     1       3.280  -0.030   1.366  0.00  0.00    +0.034 C 
ATOM      2  C   UNL     1       2.488  -0.108   0.059  0.00  0.00    +0.122 C 
ATOM      3  N   UNL     1       2.818  -1.348  -0.663  0.00  0.00    -0.337 N 
ATOM      4  C   UNL     1       2.435  -2.601  -0.210  0.00  0.00    +0.105 A 
ATOM      5  C   UNL     1       2.780  -3.778  -0.751  0.00  0.00    +0.122 A 
ATOM      6  C   UNL     1       3.633  -3.734  -1.952  0.00  0.00    +0.204 A 
ATOM      7  C   UNL     1       4.035  -2.411  -2.480  0.00  0.00    +0.052 A 
ATOM      8  C   UNL     1       4.834  -2.361  -3.614  0.00  0.00    +0.054 A 
ATOM      9  C   UNL     1       5.258  -1.131  -4.090  0.00  0.00    +0.149 A 
ATOM     10  C   UNL     1       4.918   0.096  -3.466  0.00  0.00    +0.110 A 
ATOM     11  C   UNL     1       4.114   0.002  -2.293  0.00  0.00    +0.168 A 
ATOM     12  O   UNL     1       3.846   1.165  -1.606  0.00  0.00    -0.486 OA
ATOM     13  F   UNL     1       6.091  -1.156  -5.144  0.00  0.00    -0.203 F 
ATOM     14  O   UNL     1       4.002  -4.779  -2.483  0.00  0.00    -0.286 OA
ATOM     15  C   UNL     1       3.646  -1.239  -1.802  0.00  0.00    +0.097 A 
ATOM     16  C   UNL     1       2.668   1.140  -0.806  0.00  0.00    +0.254 C 
ENDROOT
BRANCH  10  17
ATOM     17  N   UNL     1       5.406   1.288  -3.994  0.00  0.00    -0.322 N 
ATOM     18  C   UNL     1       5.388   1.544  -5.449  0.00  0.00    +0.120 C 
ATOM     19  C   UNL     1       6.680   2.286  -5.869  0.00  0.00    +0.103 C 
ATOM     20  N   UNL     1       6.969   3.524  -5.106  0.00  0.00    -0.302 NA
ATOM     21  C   UNL     1       6.044   4.598  -5.452  0.00  0.00    +0.105 C 
ATOM     22  C   UNL     1       6.917   3.212  -3.660  0.00  0.00    +0.103 C 
ATOM     23  C   UNL     1       5.645   2.476  -3.175  0.00  0.00    +0.120 C 
ENDBRANCH  10  17
BRANCH   5  24
ATOM     24  C   UNL     1       2.327  -5.032  -0.113  0.00  0.00    +0.342 C 
ATOM     25  O   UNL     1       1.614  -5.058   0.882  0.00  0.00    -0.245 OA
BRANCH  24  26
ATOM     26  O   UNL     1       2.778  -6.156  -0.706  0.00  0.00    -0.477 OA
ATOM     27  H   UNL     1       3.348  -5.994  -1.497  0.00  0.00    +0.295 HD
ENDBRANCH  24  26
ENDBRANCH   5  24
TORSDOF 3
