REMARK  Name = 
REMARK  4 active torsions:
REMARK  status: ('A' for Active; 'I' for Inactive)
REMARK    1  A    between atoms: N_8  and  C_9
REMARK    2  A    between atoms: C_12  and  C_14
REMARK    3  A    between atoms: C_14  and  O_15
REMARK    4  A    between atoms: N_19  and  C_20
REMARK                            x       y       z     vdW  Elec       q    Type
REMARK                         _______ _______ _______ _____ _____    ______ ____
ROOT
ATOM      1  N   UNL     1       4.482  -1.892   0.336  0.00  0.00    -0.327 N 
ATOM      2  H   UNL     1       4.681  -2.801  -0.059  0.00  0.00    +0.145 HD
ATOM      3  H   UNL     1       3.624  -1.437   0.068  0.00  0.00    +0.145 HD
ATOM      4  C   UNL     1       5.563  -1.057   0.127  0.00  0.00    +0.216 A 
ATOM      5  N   UNL     1       6.738  -1.660  -0.095  0.00  0.00    -0.198 NA
ATOM      6  C   UNL     1       7.869  -0.919  -0.269  0.00  0.00    +0.152 A 
ATOM      7  N   UNL     1       9.099  -1.582  -0.468  0.00  0.00    -0.324 N 
ATOM      8  H   UNL     1       9.867  -0.928  -0.586  0.00  0.00    +0.148 HD
ATOM      9  C   UNL     1       7.733   0.483  -0.246  0.00  0.00    +0.148 A 
ATOM     10  N   UNL     1       8.617   1.532  -0.418  0.00  0.00    -0.231 NA
ATOM     11  C   UNL     1       7.881   2.625  -0.335  0.00  0.00    +0.202 A 
ATOM     12  N   UNL     1       6.562   2.330  -0.110  0.00  0.00    -0.308 N 
ATOM     13  C   UNL     1       6.452   0.969  -0.053  0.00  0.00    +0.168 A 
ATOM     14  N   UNL     1       5.329   0.259   0.132  0.00  0.00    -0.195 NA
ENDROOT
BRANCH  12  15
ATOM     15  C   UNL     1       5.424   3.234   0.007  0.00  0.00    +0.113 C 
ATOM     16  C   UNL     1       5.756   4.627   0.441  0.00  0.00    -0.006 C 
ATOM     17  C   UNL     1       5.446   5.539  -0.483  0.00  0.00    -0.023 C 
ATOM     18  C   UNL     1       4.885   4.917  -1.732  0.00  0.00    +0.039 C 
ATOM     19  C   UNL     1       4.685   3.444  -1.330  0.00  0.00    +0.039 C 
BRANCH  18  20
ATOM     20  C   UNL     1       5.826   5.084  -2.929  0.00  0.00    +0.163 C 
BRANCH  20  21
ATOM     21  O   UNL     1       5.995   6.459  -3.261  0.00  0.00    -0.394 OA
ATOM     22  H   UNL     1       5.127   6.893  -3.216  0.00  0.00    +0.209 HD
ENDBRANCH  20  21
ENDBRANCH  18  20
ENDBRANCH  12  15
BRANCH   7  23
ATOM     23  C   UNL     1       9.071  -2.845  -1.211  0.00  0.00    +0.072 C 
ATOM     24  C   UNL     1      10.279  -3.419  -1.888  0.00  0.00    +0.024 C 
ATOM     25  C   UNL     1       9.163  -2.846  -2.712  0.00  0.00    +0.024 C 
ENDBRANCH   7  23
TORSDOF 4
