REMARK  Name = 
REMARK  5 active torsions:
REMARK  status: ('A' for Active; 'I' for Inactive)
REMARK    1  A    between atoms: O_1  and  C_2
REMARK    2  A    between atoms: C_2  and  C_3
REMARK    3  A    between atoms: C_3  and  C_4
REMARK    4  A    between atoms: C_4  and  C_5
REMARK    5  A    between atoms: C_5  and  O_6
REMARK                            x       y       z     vdW  Elec       q    Type
REMARK                         _______ _______ _______ _____ _____    ______ ____
ROOT
ATOM      1  C   UNL     1       2.854   1.337   0.115  0.00  0.00    +0.030 C 
ENDROOT
BRANCH   1   2
ATOM      2  C   UNL     1       2.330  -0.088   0.012  0.00  0.00    +0.156 C 
BRANCH   2   3
ATOM      3  O   UNL     1       0.910  -0.053   0.023  0.00  0.00    -0.395 OA
ATOM      4  H   UNL     1       0.600  -0.972  -0.063  0.00  0.00    +0.209 HD
ENDBRANCH   2   3
ENDBRANCH   1   2
BRANCH   1   5
ATOM      5  C   UNL     1       4.377   1.377   0.120  0.00  0.00    +0.030 C 
BRANCH   5   6
ATOM      6  C   UNL     1       4.900   2.804   0.215  0.00  0.00    +0.156 C 
BRANCH   6   7
ATOM      7  O   UNL     1       6.322   2.792   0.210  0.00  0.00    -0.395 OA
ATOM      8  H   UNL     1       6.614   2.318   1.007  0.00  0.00    +0.209 HD
ENDBRANCH   6   7
ENDBRANCH   5   6
ENDBRANCH   1   5
TORSDOF 5
