REMARK  Name = 
REMARK  4 active torsions:
REMARK  status: ('A' for Active; 'I' for Inactive)
REMARK    1  A    between atoms: O_1  and  C_2
REMARK    2  A    between atoms: C_2  and  C_4
REMARK    3  A    between atoms: CA_9  and  C_10
REMARK    4  A    between atoms: C_10  and  O_11
REMARK                            x       y       z     vdW  Elec       q    Type
REMARK                         _______ _______ _______ _____ _____    ______ ____
ROOT
ATOM      1  C   UNL     1       3.072  -1.290   0.223  0.00  0.00    +0.091 A 
ATOM      2  CA  UNL     1       2.442  -2.516   0.061  0.00  0.00    +0.161 A 
ATOM      3  N   UNL     1       3.064  -3.736   0.234  0.00  0.00    -0.248 NA
ATOM      4  C   UNL     1       4.367  -3.717   0.584  0.00  0.00    +0.112 A 
ATOM      5  C   UNL     1       5.086  -2.553   0.767  0.00  0.00    +0.021 A 
ATOM      6  C   UNL     1       4.432  -1.335   0.581  0.00  0.00    +0.019 A 
ENDROOT
BRANCH   1   7
ATOM      7  C   UNL     1       2.505   0.069   0.031  0.00  0.00    +0.339 C 
ATOM      8  O   UNL     1       3.233   0.995  -0.296  0.00  0.00    -0.245 OA
BRANCH   7   9
ATOM      9  O   UNL     1       1.237   0.280   0.421  0.00  0.00    -0.477 OA
ATOM     10  H   UNL     1       0.591  -0.439   0.222  0.00  0.00    +0.295 HD
ENDBRANCH   7   9
ENDBRANCH   1   7
BRANCH   2  11
ATOM     11  C   UNL     1       1.015  -2.674  -0.337  0.00  0.00    +0.356 C 
ATOM     12  OXT UNL     1       0.224  -1.759  -0.483  0.00  0.00    -0.243 OA
BRANCH  11  13
ATOM     13  O   UNL     1       0.691  -3.981  -0.480  0.00  0.00    -0.476 OA
ATOM     14  H   UNL     1       1.485  -4.533  -0.277  0.00  0.00    +0.295 HD
ENDBRANCH  11  13
ENDBRANCH   2  11
TORSDOF 4
