REMARK  Name = 
REMARK  10 active torsions:
REMARK  status: ('A' for Active; 'I' for Inactive)
REMARK    1  A    between atoms: C_1  and  C_2
REMARK    2  A    between atoms: C_2  and  C_3
REMARK    3  A    between atoms: C_3  and  N_5
REMARK    4  A    between atoms: C_3  and  C_9
REMARK    5  A    between atoms: N_5  and  C_6
REMARK    6  A    between atoms: C_6  and  C_7
REMARK    7  A    between atoms: C_6  and  C_8
REMARK    8  A    between atoms: C_9  and  O_11
REMARK    9  A    between atoms: C_9  and  C_12
REMARK   10  A    between atoms: C_20  and  O_21
REMARK                            x       y       z     vdW  Elec       q    Type
REMARK                         _______ _______ _______ _____ _____    ______ ____
ROOT
ATOM      1  C   UNL     1       4.955  -1.121  -2.761  0.00  0.00    -0.008 A 
ATOM      2  C   UNL     1       6.331  -1.202  -3.078  0.00  0.00    +0.010 A 
ATOM      3  C   UNL     1       6.777  -1.714  -4.295  0.00  0.00    +0.048 A 
ATOM      4  C   UNL     1       5.858  -2.171  -5.226  0.00  0.00    +0.141 A 
ATOM      5  C   UNL     1       4.486  -2.112  -4.952  0.00  0.00    +0.091 A 
ATOM      6  N   UNL     1       3.554  -2.600  -5.890  0.00  0.00    -0.319 N 
ATOM      7  H   UNL     1       3.840  -3.045  -6.747  0.00  0.00    +0.169 HD
ATOM      8  C   UNL     1       2.203  -2.573  -5.709  0.00  0.00    +0.249 A 
ATOM      9  O   UNL     1       1.424  -3.005  -6.551  0.00  0.00    -0.268 OA
ATOM     10  C   UNL     1       1.714  -1.993  -4.446  0.00  0.00    +0.071 A 
ATOM     11  C   UNL     1       2.562  -1.532  -3.518  0.00  0.00    +0.016 A 
ATOM     12  C   UNL     1       4.020  -1.575  -3.723  0.00  0.00    +0.008 A 
ENDROOT
BRANCH   4  13
ATOM     13  O   UNL     1       6.381  -2.663  -6.389  0.00  0.00    -0.505 OA
ATOM     14  H   UNL     1       5.677  -2.734  -7.048  0.00  0.00    +0.292 HD
ENDBRANCH   4  13
BRANCH   1  15
ATOM     15  C   UNL     1       4.574  -0.578  -1.384  0.00  0.00    +0.162 C 
BRANCH  15  16
ATOM     16  O   UNL     1       5.192  -1.450  -0.427  0.00  0.00    -0.386 OA
ATOM     17  H   UNL     1       4.601  -1.495   0.343  0.00  0.00    +0.210 HD
ENDBRANCH  15  16
BRANCH  15  18
ATOM     18  C   UNL     1       5.021   0.911  -1.145  0.00  0.00    +0.087 C 
BRANCH  18  20
ATOM     19  C   UNL     1       3.480   1.443   0.892  0.00  0.00    +0.005 C 
ATOM     20  C   UNL     1       4.894   1.344   0.338  0.00  0.00    +0.018 C 
ENDBRANCH  18  20
BRANCH  18  21
ATOM     21  N   UNL     1       4.327   1.815  -2.084  0.00  0.00    -0.308 NA
ATOM     22  H   UNL     1       3.325   1.824  -1.900  0.00  0.00    +0.123 HD
BRANCH  21  23
ATOM     23  C   UNL     1       4.833   3.190  -2.162  0.00  0.00    +0.048 C 
ATOM     24  C   UNL     1       4.017   3.931  -3.226  0.00  0.00    +0.023 C 
ATOM     25  C   UNL     1       6.318   3.271  -2.526  0.00  0.00    +0.023 C 
ENDBRANCH  21  23
ENDBRANCH  18  21
ENDBRANCH  15  18
ENDBRANCH   1  15
TORSDOF 7
