REMARK  Name = 
REMARK  15 active torsions:
REMARK  status: ('A' for Active; 'I' for Inactive)
REMARK    1  A    between atoms: C_1  and  C_2
REMARK    2  A    between atoms: C_2  and  C_3
REMARK    3  A    between atoms: C_2  and  N_4
REMARK    4  A    between atoms: N_4  and  C_5
REMARK    5  A    between atoms: C_5  and  C_6
REMARK    6  A    between atoms: C_6  and  O_7
REMARK    7  A    between atoms: C_6  and  C_8
REMARK    8  A    between atoms: C_8  and  O_9
REMARK    9  A    between atoms: O_9  and  C_10
REMARK   10  A    between atoms: C_11  and  C_12
REMARK   11  A    between atoms: C_13  and  C_14
REMARK   12  A    between atoms: C_15  and  O_16
REMARK   13  A    between atoms: O_16  and  C_17
REMARK   14  A    between atoms: C_17  and  C_18
REMARK   15  A    between atoms: C_20  and  C_21
REMARK                            x       y       z     vdW  Elec       q    Type
REMARK                         _______ _______ _______ _____ _____    ______ ____
ROOT
ATOM      1  C   UNL     1       8.340   3.570   2.450  0.00  0.00    +0.124 A 
ATOM      2  C   UNL     1       9.188   2.470   2.291  0.00  0.00    +0.053 A 
ATOM      3  C   UNL     1      10.584   2.612   2.255  0.00  0.00    -0.004 A 
ATOM      4  C   UNL     1      11.395   1.381   1.978  0.00  0.00    +0.048 C 
ATOM      5  C   UNL     1      11.120   3.886   2.469  0.00  0.00    +0.138 A 
ATOM      6  C   UNL     1      10.285   5.029   2.582  0.00  0.00    -0.001 A 
ATOM      7  C   UNL     1      10.930   6.382   2.751  0.00  0.00    +0.048 C 
ATOM      8  C   UNL     1       8.878   4.868   2.536  0.00  0.00    -0.002 A 
ATOM      9  C   UNL     1       7.967   6.070   2.557  0.00  0.00    +0.048 C 
ENDROOT
BRANCH   1  10
ATOM     10  O   UNL     1       6.973   3.454   2.465  0.00  0.00    -0.489 OA
BRANCH  10  11
ATOM     11  C   UNL     1       6.448   2.221   2.983  0.00  0.00    +0.261 C 
BRANCH  11  12
ATOM     12  C   UNL     1       5.062   2.495   3.584  0.00  0.00    +0.166 C 
BRANCH  12  13
ATOM     13  O   UNL     1       4.171   2.965   2.565  0.00  0.00    -0.387 OA
ATOM     14  H   UNL     1       4.645   3.674   2.095  0.00  0.00    +0.210 HD
ENDBRANCH  12  13
BRANCH  12  15
ATOM     15  C   UNL     1       5.161   3.544   4.710  0.00  0.00    +0.115 C 
BRANCH  15  16
ATOM     16  N   UNL     1       3.872   3.702   5.394  0.00  0.00    -0.311 NA
ATOM     17  H   UNL     1       3.163   3.905   4.684  0.00  0.00    +0.122 HD
BRANCH  16  19
ATOM     18  C   UNL     1       2.472   4.927   6.957  0.00  0.00    +0.023 C 
ATOM     19  C   UNL     1       3.892   4.756   6.414  0.00  0.00    +0.048 C 
ATOM     20  C   UNL     1       4.845   4.419   7.564  0.00  0.00    +0.023 C 
ENDBRANCH  16  19
ENDBRANCH  15  16
ENDBRANCH  12  15
ENDBRANCH  11  12
ENDBRANCH  10  11
ENDBRANCH   1  10
BRANCH   5  21
ATOM     21  O   UNL     1      12.516   4.160   2.440  0.00  0.00    -0.425 OA
BRANCH  21  22
ATOM     22  C   UNL     1      13.486   3.468   3.169  0.00  0.00    +0.309 C 
ATOM     23  O   UNL     1      13.318   2.481   3.867  0.00  0.00    -0.251 OA
ATOM     24  C   UNL     1      14.801   4.186   3.027  0.00  0.00    +0.136 C 
ENDBRANCH  21  22
ENDBRANCH   5  21
TORSDOF 9
