REMARK  Name = 
REMARK  14 active torsions:
REMARK  status: ('A' for Active; 'I' for Inactive)
REMARK    1  A    between atoms: N_1  and  C_2
REMARK    2  A    between atoms: C_2  and  C_4
REMARK    3  A    between atoms: C_2  and  C_8
REMARK    4  A    between atoms: C_4  and  C_5
REMARK    5  A    between atoms: C_5  and  O_6
REMARK    6  A    between atoms: C_8  and  O_10
REMARK    7  A    between atoms: O_10  and  P_11
REMARK    8  A    between atoms: P_11  and  O_12
REMARK    9  A    between atoms: P_11  and  O_14
REMARK   10  A    between atoms: O_14  and  C_15
REMARK   11  A    between atoms: C_15  and  C_16
REMARK   12  A    between atoms: C_19  and  N_27
REMARK   13  A    between atoms: C_21  and  O_23
REMARK   14  A    between atoms: C_24  and  O_26
REMARK                            x       y       z     vdW  Elec       q    Type
REMARK                         _______ _______ _______ _____ _____    ______ ____
ROOT
ATOM      1  C   UNL     1       6.563   3.998  -5.493  0.00  0.00    +0.178 C 
ATOM      2  C   UNL     1       8.081   4.142  -5.488  0.00  0.00    +0.178 C 
ATOM      3  C   UNL     1       8.348   5.620  -5.756  0.00  0.00    +0.195 C 
ATOM      4  C   UNL     1       6.952   6.259  -5.811  0.00  0.00    +0.253 C 
ATOM      5  O   UNL     1       6.046   5.313  -5.208  0.00  0.00    -0.346 OA
ENDROOT
BRANCH   4   6
ATOM      6  N   UNL     1       6.883   7.523  -5.098  0.00  0.00    -0.286 N 
ATOM      7  C   UNL     1       7.670   8.613  -5.363  0.00  0.00    +0.167 A 
ATOM      8  N   UNL     1       8.623   8.729  -6.306  0.00  0.00    -0.216 NA
ATOM      9  C   UNL     1       9.186   9.958  -6.255  0.00  0.00    +0.225 A 
ATOM     10  N   UNL     1       8.918  10.974  -5.406  0.00  0.00    -0.219 NA
ATOM     11  C   UNL     1       7.972  10.788  -4.458  0.00  0.00    +0.147 A 
ATOM     12  N   UNL     1       7.715  11.823  -3.569  0.00  0.00    -0.341 N 
ATOM     13  H   UNL     1       6.804  11.761  -3.127  0.00  0.00    +0.144 HD
ATOM     14  H   UNL     1       8.005  12.723  -3.929  0.00  0.00    +0.144 HD
ATOM     15  C   UNL     1       7.287   9.562  -4.430  0.00  0.00    +0.147 A 
ATOM     16  N   UNL     1       6.266   9.083  -3.635  0.00  0.00    -0.231 NA
ATOM     17  C   UNL     1       6.039   7.862  -4.076  0.00  0.00    +0.203 A 
ENDBRANCH   4   6
BRANCH   2  18
ATOM     18  O   UNL     1       8.581   3.792  -4.185  0.00  0.00    -0.386 OA
ATOM     19  H   UNL     1       8.050   4.256  -3.512  0.00  0.00    +0.210 HD
ENDBRANCH   2  18
BRANCH   3  20
ATOM     20  O   UNL     1       9.068   5.803  -6.980  0.00  0.00    -0.385 OA
ATOM     21  H   UNL     1       9.230   6.767  -7.053  0.00  0.00    +0.210 HD
ENDBRANCH   3  20
BRANCH   1  22
ATOM     22  C   UNL     1       6.000   3.460  -6.812  0.00  0.00    +0.207 C 
BRANCH  22  23
ATOM     23  O   UNL     1       6.399   4.249  -7.933  0.00  0.00    -0.274 OA
BRANCH  23  24
ATOM     24  P   UNL     1       5.827   3.623  -9.441  0.00  0.00    +0.533 P 
ATOM     25  O   UNL     1       4.376   3.923  -9.043  0.00  0.00    -0.215 OA
BRANCH  24  26
ATOM     26  O   UNL     1       6.386   4.960 -10.198  0.00  0.00    -0.293 OA
ATOM     27  H   UNL     1       7.321   4.902 -10.455  0.00  0.00    +0.223 HD
ENDBRANCH  24  26
BRANCH  24  28
ATOM     28  O   UNL     1       5.255   2.996 -10.949  0.00  0.00    -0.370 OA
BRANCH  28  29
ATOM     29  C   UNL     1       5.280   1.651 -11.007  0.00  0.00    +0.332 C 
ATOM     30  O   UNL     1       5.645   0.955 -10.066  0.00  0.00    -0.249 OA
BRANCH  29  31
ATOM     31  C   UNL     1       4.814   1.120 -12.365  0.00  0.00    +0.172 C 
BRANCH  31  32
ATOM     32  N   UNL     1       5.565  -0.122 -12.654  0.00  0.00    -0.318 NA
ATOM     33  H   UNL     1       5.496  -0.762 -11.861  0.00  0.00    +0.119 HD
ATOM     34  H   UNL     1       5.124  -0.600 -13.450  0.00  0.00    +0.119 HD
ENDBRANCH  31  32
BRANCH  31  35
ATOM     35  C   UNL     1       3.293   0.935 -12.330  0.00  0.00    +0.150 C 
BRANCH  35  36
ATOM     36  C   UNL     1       2.735   0.508 -13.666  0.00  0.00    +0.307 C 
ATOM     37  O   UNL     1       3.341  -0.172 -14.480  0.00  0.00    -0.251 OA
BRANCH  36  38
ATOM     38  O   UNL     1       1.455   0.887 -13.865  0.00  0.00    -0.481 OA
ATOM     39  H   UNL     1       1.052   1.398 -13.137  0.00  0.00    +0.295 HD
ENDBRANCH  36  38
ENDBRANCH  35  36
ENDBRANCH  31  35
ENDBRANCH  29  31
ENDBRANCH  28  29
ENDBRANCH  24  28
ENDBRANCH  23  24
ENDBRANCH  22  23
ENDBRANCH   1  22
TORSDOF 14
