REMARK  Name = 
REMARK  21 active torsions:
REMARK  status: ('A' for Active; 'I' for Inactive)
REMARK    1  A    between atoms: C_1  and  C_2
REMARK    2  A    between atoms: C_2  and  C_3
REMARK    3  A    between atoms: C_3  and  C_4
REMARK    4  A    between atoms: C_4  and  C_5
REMARK    5  A    between atoms: C_5  and  C_6
REMARK    6  A    between atoms: C_6  and  C_7
REMARK    7  A    between atoms: C_7  and  C_8
REMARK    8  A    between atoms: C_8  and  O_10
REMARK    9  A    between atoms: C_8  and  C_11
REMARK   10  A    between atoms: C_11  and  C_12
REMARK   11  A    between atoms: C_15  and  C_16
REMARK   12  A    between atoms: C_15  and  O_18
REMARK   13  A    between atoms: C_16  and  O_17
REMARK   14  A    between atoms: O_18  and  C_19
REMARK   15  A    between atoms: C_22  and  C_24
REMARK   16  A    between atoms: C_24  and  O_25
REMARK   17  A    between atoms: C_26  and  O_28
REMARK   18  A    between atoms: C_29  and  O_31
REMARK   19  A    between atoms: C_32  and  O_34
REMARK   20  A    between atoms: C_35  and  O_37
REMARK   21  A    between atoms: C_38  and  O_40
REMARK                            x       y       z     vdW  Elec       q    Type
REMARK                         _______ _______ _______ _____ _____    ______ ____
ROOT
ATOM      1  C   UNL     1      10.533   4.627   3.062  0.00  0.00    +0.155 C 
ATOM      2  C   UNL     1      11.169   3.253   3.254  0.00  0.00    +0.177 C 
ATOM      3  C   UNL     1      12.460   3.497   4.037  0.00  0.00    +0.207 C 
ATOM      4  C   UNL     1      12.533   5.037   4.241  0.00  0.00    +0.225 C 
ATOM      5  O   UNL     1      11.194   5.505   3.990  0.00  0.00    -0.338 OA
ENDROOT
BRANCH   3   6
ATOM      6  O   UNL     1      13.563   2.918   3.331  0.00  0.00    -0.384 OA
ATOM      7  H   UNL     1      14.360   3.097   3.863  0.00  0.00    +0.210 HD
ENDBRANCH   3   6
BRANCH   2   8
ATOM      8  O   UNL     1      10.276   2.431   4.029  0.00  0.00    -0.386 OA
ATOM      9  H   UNL     1      10.102   2.877   4.878  0.00  0.00    +0.210 HD
ENDBRANCH   2   8
BRANCH   4  10
ATOM     10  C   UNL     1      13.523   5.721   3.256  0.00  0.00    +0.223 C 
BRANCH  10  11
ATOM     11  O   UNL     1      14.890   5.419   3.526  0.00  0.00    -0.390 OA
ATOM     12  H   UNL     1      15.370   5.637   2.702  0.00  0.00    +0.210 HD
ENDBRANCH  10  11
ENDBRANCH   4  10
BRANCH   1  13
ATOM     13  C   UNL     1      10.639   5.245   1.666  0.00  0.00    +0.065 C 
BRANCH  13  14
ATOM     14  C   UNL     1      10.051   4.438   0.513  0.00  0.00    +0.117 C 
BRANCH  14  15
ATOM     15  O   UNL     1      10.351   5.176  -0.676  0.00  0.00    -0.392 OA
ATOM     16  H   UNL     1      10.185   4.594  -1.437  0.00  0.00    +0.210 HD
ENDBRANCH  14  15
BRANCH  14  17
ATOM     17  C   UNL     1       8.544   4.281   0.658  0.00  0.00    +0.031 C 
BRANCH  17  18
ATOM     18  C   UNL     1       7.943   3.492  -0.498  0.00  0.00    +0.002 C 
BRANCH  18  19
ATOM     19  C   UNL     1       6.446   3.342  -0.287  0.00  0.00    +0.000 C 
BRANCH  19  20
ATOM     20  C   UNL     1       5.819   2.557  -1.428  0.00  0.00    -0.000 C 
BRANCH  20  21
ATOM     21  C   UNL     1       4.315   2.427  -1.196  0.00  0.00    -0.000 C 
BRANCH  21  23
ATOM     22  C   UNL     1       2.167   1.517  -2.082  0.00  0.00    +0.004 C 
ATOM     23  C   UNL     1       3.663   1.641  -2.322  0.00  0.00    -0.003 C 
ENDBRANCH  21  23
ENDBRANCH  20  21
ENDBRANCH  19  20
ENDBRANCH  18  19
ENDBRANCH  17  18
ENDBRANCH  14  17
ENDBRANCH  13  14
ENDBRANCH   1  13
BRANCH   4  24
ATOM     24  O   UNL     1      12.884   5.261   5.629  0.00  0.00    -0.313 OA
BRANCH  24  25
ATOM     25  C   UNL     1      12.966   6.638   6.022  0.00  0.00    +0.285 C 
ATOM     26  C   UNL     1      13.748   6.767   7.357  0.00  0.00    +0.201 C 
ATOM     27  C   UNL     1      12.892   6.315   8.553  0.00  0.00    +0.179 C 
ATOM     28  C   UNL     1      11.514   6.993   8.527  0.00  0.00    +0.177 C 
ATOM     29  C   UNL     1      10.821   6.854   7.157  0.00  0.00    +0.178 C 
ATOM     30  O   UNL     1      11.680   7.262   6.086  0.00  0.00    -0.340 OA
BRANCH  28  31
ATOM     31  O   UNL     1      11.709   8.395   8.806  0.00  0.00    -0.386 OA
ATOM     32  H   UNL     1      10.832   8.819   8.796  0.00  0.00    +0.210 HD
ENDBRANCH  28  31
BRANCH  27  33
ATOM     33  O   UNL     1      12.768   4.889   8.618  0.00  0.00    -0.386 OA
ATOM     34  H   UNL     1      12.870   4.529   7.722  0.00  0.00    +0.210 HD
ENDBRANCH  27  33
BRANCH  26  35
ATOM     35  O   UNL     1      14.210   8.117   7.547  0.00  0.00    -0.384 OA
ATOM     36  H   UNL     1      13.565   8.570   8.131  0.00  0.00    +0.210 HD
ENDBRANCH  26  35
BRANCH  29  37
ATOM     37  C   UNL     1      10.148   5.493   6.917  0.00  0.00    +0.190 C 
BRANCH  37  38
ATOM     38  O   UNL     1       9.217   5.173   7.944  0.00  0.00    -0.392 OA
ATOM     39  H   UNL     1       8.424   5.720   7.809  0.00  0.00    +0.210 HD
ENDBRANCH  37  38
ENDBRANCH  29  37
ENDBRANCH  24  25
ENDBRANCH   4  24
TORSDOF 20
