REMARK  Name = 
REMARK  12 active torsions:
REMARK  status: ('A' for Active; 'I' for Inactive)
REMARK    1  A    between atoms: C_2  and  C_3
REMARK    2  A    between atoms: C_2  and  N_4
REMARK    3  A    between atoms: C_2  and  C_27
REMARK    4  A    between atoms: C_5  and  C_7
REMARK    5  A    between atoms: C_7  and  C_9
REMARK    6  A    between atoms: C_7  and  N_16
REMARK    7  A    between atoms: C_9  and  C_10
REMARK    8  A    between atoms: C_17  and  O_19
REMARK    9  A    between atoms: O_19  and  C_20
REMARK   10  A    between atoms: C_20  and  C_21
REMARK   11  A    between atoms: C_28  and  C_29
REMARK   12  A    between atoms: C_29  and  C_31
REMARK                            x       y       z     vdW  Elec       q    Type
REMARK                         _______ _______ _______ _____ _____    ______ ____
ROOT
ATOM      1  C   UNL     1       2.729   3.466  -1.894  0.00  0.00    +0.166 C 
ENDROOT
BRANCH   1   4
ATOM      2  N   UNL     1       0.927   2.050  -0.992  0.00  0.00    -0.308 N 
ATOM      3  H   UNL     1       0.469   2.940  -0.814  0.00  0.00    +0.149 HD
ATOM      4  C   UNL     1       2.125   2.057  -1.683  0.00  0.00    +0.234 C 
ATOM      5  O   UNL     1       2.618   1.042  -2.171  0.00  0.00    -0.274 OA
BRANCH   2   6
ATOM      6  C   UNL     1       0.211   0.826  -0.671  0.00  0.00    +0.093 C 
ATOM      7  C   UNL     1       0.024   0.708   0.843  0.00  0.00    +0.032 C 
BRANCH   6   8
ATOM      8  C   UNL     1      -1.121   0.806  -1.377  0.00  0.00    -0.001 C 
ATOM      9  C   UNL     1      -1.416   1.434  -2.527  0.00  0.00    +0.052 C 
BRANCH   9  10
ATOM     10  C   UNL     1      -2.760   1.296  -3.140  0.00  0.00    +0.218 C 
ATOM     11  O   UNL     1      -3.684   0.670  -2.641  0.00  0.00    -0.285 OA
BRANCH  10  12
ATOM     12  C   UNL     1      -2.988   1.977  -4.470  0.00  0.00    +0.301 C 
ATOM     13  O   UNL     1      -2.108   2.610  -5.035  0.00  0.00    -0.292 OA
ENDBRANCH  10  12
ENDBRANCH   9  10
ENDBRANCH   6   8
ENDBRANCH   2   6
ENDBRANCH   1   4
BRANCH   1  14
ATOM     14  N   UNL     1       2.227   4.027  -3.150  0.00  0.00    -0.269 N 
ATOM     15  H   UNL     1       2.648   3.742  -4.026  0.00  0.00    +0.153 HD
ATOM     16  C   UNL     1       1.019   4.642  -3.266  0.00  0.00    +0.401 C 
ATOM     17  O   UNL     1       0.247   4.815  -2.335  0.00  0.00    -0.226 OA
BRANCH  16  18
ATOM     18  O   UNL     1       0.805   4.965  -4.562  0.00  0.00    -0.446 OA
BRANCH  18  19
ATOM     19  C   UNL     1      -0.543   5.299  -4.918  0.00  0.00    +0.269 C 
BRANCH  19  20
ATOM     20  C   UNL     1      -0.690   6.731  -5.368  0.00  0.00    -0.010 A 
ATOM     21  C   UNL     1      -0.951   7.746  -4.437  0.00  0.00    +0.007 A 
ATOM     22  C   UNL     1      -1.171   9.059  -4.862  0.00  0.00    +0.000 A 
ATOM     23  C   UNL     1      -1.125   9.374  -6.218  0.00  0.00    +0.000 A 
ATOM     24  C   UNL     1      -0.852   8.376  -7.153  0.00  0.00    +0.000 A 
ATOM     25  C   UNL     1      -0.633   7.063  -6.731  0.00  0.00    +0.007 A 
ENDBRANCH  19  20
ENDBRANCH  18  19
ENDBRANCH  16  18
ENDBRANCH   1  14
BRANCH   1  26
ATOM     26  C   UNL     1       4.265   3.399  -1.952  0.00  0.00    +0.067 C 
BRANCH  26  27
ATOM     27  C   UNL     1       4.947   2.946  -0.683  0.00  0.00    -0.045 A 
ATOM     28  C   UNL     1       4.815   3.666   0.512  0.00  0.00    +0.004 A 
ATOM     29  C   UNL     1       5.499   3.265   1.661  0.00  0.00    +0.000 A 
ATOM     30  C   UNL     1       6.328   2.144   1.628  0.00  0.00    +0.000 A 
ATOM     31  C   UNL     1       6.466   1.418   0.447  0.00  0.00    +0.000 A 
ATOM     32  C   UNL     1       5.778   1.815  -0.701  0.00  0.00    +0.004 A 
ENDBRANCH  26  27
ENDBRANCH   1  26
TORSDOF 11
