REMARK  Name = 
REMARK  4 active torsions:
REMARK  status: ('A' for Active; 'I' for Inactive)
REMARK    1  A    between atoms: C_1  and  C_2
REMARK    2  A    between atoms: C_2  and  N_3
REMARK    3  A    between atoms: C_2  and  C_4
REMARK    4  A    between atoms: C_4  and  C_5
REMARK                            x       y       z     vdW  Elec       q    Type
REMARK                         _______ _______ _______ _____ _____    ______ ____
ROOT
ATOM      1  C   UNL     1       4.503  -1.095   0.923  0.00  0.00    -0.021 A 
ATOM      2  C   UNL     1       5.350  -1.619  -0.108  0.00  0.00    +0.003 A 
ATOM      3  C   UNL     1       6.671  -1.435   0.304  0.00  0.00    +0.047 A 
ATOM      4  C   UNL     1       7.769  -1.812  -0.478  0.00  0.00    +0.026 A 
ATOM      5  C   UNL     1       7.511  -2.406  -1.716  0.00  0.00    +0.002 A 
ATOM      6  C   UNL     1       6.205  -2.613  -2.153  0.00  0.00    +0.001 A 
ATOM      7  N   UNL     1       6.630  -0.847   1.545  0.00  0.00    -0.360 N 
ATOM      8  H   UNL     1       7.445  -0.596   2.087  0.00  0.00    +0.165 HD
ATOM      9  C   UNL     1       5.118  -2.223  -1.361  0.00  0.00    +0.010 A 
ATOM     10  C   UNL     1       5.333  -0.649   1.933  0.00  0.00    +0.087 A 
ENDROOT
BRANCH   1  11
ATOM     11  C   UNL     1       3.003  -1.025   0.910  0.00  0.00    +0.055 C 
BRANCH  11  13
ATOM     12  C   UNL     1       2.906   1.251  -0.251  0.00  0.00    +0.024 C 
ATOM     13  C   UNL     1       2.458   0.419   0.953  0.00  0.00    +0.052 C 
BRANCH  13  14
ATOM     14  N   UNL     1       0.988   0.404   1.008  0.00  0.00    -0.327 NA
ATOM     15  H   UNL     1       0.643   1.364   1.029  0.00  0.00    +0.118 HD
ATOM     16  H   UNL     1       0.619  -0.006   0.150  0.00  0.00    +0.118 HD
ENDBRANCH  13  14
ENDBRANCH  11  13
ENDBRANCH   1  11
TORSDOF 3
