REMARK  Name = 
REMARK  11 active torsions:
REMARK  status: ('A' for Active; 'I' for Inactive)
REMARK    1  A    between atoms: C_6  and  O_7
REMARK    2  A    between atoms: C_10  and  N_11
REMARK    3  A    between atoms: N_11  and  C_12
REMARK    4  A    between atoms: N_11  and  C_13
REMARK    5  A    between atoms: C_17  and  O_18
REMARK    6  A    between atoms: C_19  and  O_20
REMARK    7  A    between atoms: C_23  and  C_24
REMARK    8  A    between atoms: C_27  and  O_28
REMARK    9  A    between atoms: C_29  and  N_31
REMARK   10  A    between atoms: N_31  and  C_32
REMARK   11  A    between atoms: N_31  and  C_33
REMARK                            x       y       z     vdW  Elec       q    Type
REMARK                         _______ _______ _______ _____ _____    ______ ____
ROOT
ATOM      1  C   UNL     1       2.048  -0.025  -0.210  0.00  0.00    +0.031 C 
ATOM      2  C   UNL     1       2.640   1.362  -0.074  0.00  0.00    +0.018 C 
ATOM      3  C   UNL     1       2.428   2.261  -1.287  0.00  0.00    +0.061 C 
ATOM      4  C   UNL     1       2.865   1.555  -2.603  0.00  0.00    +0.190 C 
ATOM      5  C   UNL     1       4.057   2.326  -3.225  0.00  0.00    +0.211 C 
ATOM      6  C   UNL     1       3.978   3.825  -3.207  0.00  0.00    +0.121 C 
ATOM      7  C   UNL     1       3.963   4.288  -1.947  0.00  0.00    +0.127 C 
ATOM      8  O   UNL     1       5.082   1.803  -3.660  0.00  0.00    -0.288 OA
ATOM      9  C   UNL     1       2.996   0.013  -2.495  0.00  0.00    +0.141 C 
ATOM     10  C   UNL     1       3.193   3.573  -0.868  0.00  0.00    +0.129 C 
ATOM     11  C   UNL     1       2.623  -0.701  -1.405  0.00  0.00    +0.044 C 
ATOM     12  C   UNL     1       2.641  -2.200  -1.344  0.00  0.00    +0.197 C 
ATOM     13  O   UNL     1       2.873  -2.858  -2.360  0.00  0.00    -0.287 OA
ATOM     14  C   UNL     1       2.371  -2.890  -0.037  0.00  0.00    +0.068 A 
ATOM     15  C   UNL     1       2.242  -4.285   0.000  0.00  0.00    +0.128 A 
ATOM     16  C   UNL     1       2.042  -4.939   1.209  0.00  0.00    +0.048 A 
ATOM     17  C   UNL     1       2.000  -4.212   2.402  0.00  0.00    +0.027 A 
ATOM     18  C   UNL     1       2.129  -2.813   2.438  0.00  0.00    +0.033 A 
ATOM     19  C   UNL     1       2.276  -2.165   1.176  0.00  0.00    -0.011 A 
ATOM     20  C   UNL     1       2.376  -0.683   1.116  0.00  0.00    +0.046 C 
ENDROOT
BRANCH   6  21
ATOM     21  C   UNL     1       2.991   4.603  -4.008  0.00  0.00    +0.248 C 
ATOM     22  O   UNL     1       2.506   5.671  -3.646  0.00  0.00    -0.270 OA
ATOM     23  N   UNL     1       2.652   4.125  -5.226  0.00  0.00    -0.325 N 
ATOM     24  H   UNL     1       1.939   4.647  -5.721  0.00  0.00    +0.145 HD
ATOM     25  H   UNL     1       2.974   3.252  -5.613  0.00  0.00    +0.145 HD
ENDBRANCH   6  21
BRANCH  10  26
ATOM     26  N   UNL     1       2.276   4.382  -0.028  0.00  0.00    -0.299 NA
ATOM     27  C   UNL     1       2.975   5.220   0.943  0.00  0.00    +0.105 C 
ATOM     28  C   UNL     1       1.308   5.186  -0.775  0.00  0.00    +0.105 C 
ENDBRANCH  10  26
BRANCH  18  29
ATOM     29  N   UNL     1       2.136  -2.168   3.675  0.00  0.00    -0.336 N 
ATOM     30  C   UNL     1       1.186  -2.556   4.720  0.00  0.00    +0.129 C 
ATOM     31  C   UNL     1       2.876  -0.943   3.978  0.00  0.00    +0.129 C 
ENDBRANCH  18  29
BRANCH   7  32
ATOM     32  O   UNL     1       5.063   5.004  -1.467  0.00  0.00    -0.509 OA
ATOM     33  H   UNL     1       5.663   5.208  -2.208  0.00  0.00    +0.292 HD
ENDBRANCH   7  32
BRANCH   4  34
ATOM     34  O   UNL     1       1.818   1.732  -3.591  0.00  0.00    -0.373 OA
ATOM     35  H   UNL     1       2.001   1.054  -4.275  0.00  0.00    +0.211 HD
ENDBRANCH   4  34
BRANCH   9  36
ATOM     36  O   UNL     1       3.353  -0.610  -3.683  0.00  0.00    -0.507 OA
ATOM     37  H   UNL     1       3.363  -1.584  -3.539  0.00  0.00    +0.292 HD
ENDBRANCH   9  36
BRANCH  15  38
ATOM     38  O   UNL     1       2.319  -5.080  -1.107  0.00  0.00    -0.506 OA
ATOM     39  H   UNL     1       2.537  -4.521  -1.877  0.00  0.00    +0.292 HD
ENDBRANCH  15  38
TORSDOF 7
