REMARK  Name = 
REMARK  9 active torsions:
REMARK  status: ('A' for Active; 'I' for Inactive)
REMARK    1  A    between atoms: O_1  and  C_2
REMARK    2  A    between atoms: C_2  and  C_4
REMARK    3  A    between atoms: C_2  and  C_13
REMARK    4  A    between atoms: C_4  and  C_6
REMARK    5  A    between atoms: C_4  and  C_10
REMARK    6  A    between atoms: C_6  and  C_7
REMARK    7  A    between atoms: C_7  and  O_8
REMARK    8  A    between atoms: C_10  and  O_11
REMARK    9  A    between atoms: C_13  and  O_14
REMARK                            x       y       z     vdW  Elec       q    Type
REMARK                         _______ _______ _______ _____ _____    ______ ____
ROOT
ATOM      1  C   UNL     1       2.992   1.645   0.404  0.00  0.00    +0.147 C 
ENDROOT
BRANCH   1   2
ATOM      2  C   UNL     1       2.420   2.497  -0.710  0.00  0.00    +0.311 C 
ATOM      3  O   UNL     1       1.654   2.067  -1.557  0.00  0.00    -0.251 OA
BRANCH   2   4
ATOM      4  O   UNL     1       2.816   3.790  -0.691  0.00  0.00    -0.480 OA
ATOM      5  H   UNL     1       3.381   4.019   0.078  0.00  0.00    +0.295 HD
ENDBRANCH   2   4
ENDBRANCH   1   2
BRANCH   1   6
ATOM      6  C   UNL     1       2.484   2.199   1.732  0.00  0.00    +0.237 C 
BRANCH   6   7
ATOM      7  O   UNL     1       2.993   3.531   1.959  0.00  0.00    -0.380 OA
ATOM      8  H   UNL     1       2.261   4.025   2.390  0.00  0.00    +0.211 HD
ENDBRANCH   6   7
BRANCH   6   9
ATOM      9  C   UNL     1       2.885   1.299   2.903  0.00  0.00    +0.334 C 
ATOM     10  O   UNL     1       2.593   0.124   3.012  0.00  0.00    -0.248 OA
BRANCH   9  11
ATOM     11  O   UNL     1       3.635   1.970   3.815  0.00  0.00    -0.479 OA
ATOM     12  H   UNL     1       3.803   2.886   3.502  0.00  0.00    +0.295 HD
ENDBRANCH   9  11
ENDBRANCH   6   9
ENDBRANCH   1   6
BRANCH   1  13
ATOM     13  C   UNL     1       4.513   1.539   0.281  0.00  0.00    +0.138 C 
BRANCH  13  14
ATOM     14  C   UNL     1       4.865   0.926  -1.047  0.00  0.00    +0.306 C 
ATOM     15  O   UNL     1       4.935  -0.263  -1.293  0.00  0.00    -0.251 OA
BRANCH  14  16
ATOM     16  O   UNL     1       5.009   1.855  -2.008  0.00  0.00    -0.481 OA
ATOM     17  H   UNL     1       5.063   1.345  -2.846  0.00  0.00    +0.295 HD
ENDBRANCH  14  16
ENDBRANCH  13  14
ENDBRANCH   1  13
TORSDOF 9
