REMARK  Name = 
REMARK  13 active torsions:
REMARK  status: ('A' for Active; 'I' for Inactive)
REMARK    1  A    between atoms: C_1  and  C_2
REMARK    2  A    between atoms: C_2  and  C_3
REMARK    3  A    between atoms: C_3  and  C_5
REMARK    4  A    between atoms: C_3  and  C_6
REMARK    5  A    between atoms: C_6  and  N_8
REMARK    6  A    between atoms: C_6  and  C_9
REMARK    7  A    between atoms: N_11  and  S_12
REMARK    8  A    between atoms: S_12  and  N_15
REMARK    9  A    between atoms: N_15  and  C_16
REMARK   10  A    between atoms: C_16  and  C_17
REMARK   11  A    between atoms: C_20  and  N_28
REMARK   12  A    between atoms: C_22  and  O_24
REMARK   13  A    between atoms: C_25  and  O_27
REMARK                            x       y       z     vdW  Elec       q    Type
REMARK                         _______ _______ _______ _____ _____    ______ ____
ROOT
ATOM      1  C   UNL     1      10.938   2.895   5.645  0.00  0.00    +0.167 C 
ATOM      2  C   UNL     1      12.176   2.384   6.386  0.00  0.00    +0.177 C 
ATOM      3  C   UNL     1      12.287   3.256   7.635  0.00  0.00    +0.195 C 
ATOM      4  C   UNL     1      11.127   4.252   7.520  0.00  0.00    +0.253 C 
ATOM      5  O   UNL     1      10.180   3.646   6.619  0.00  0.00    -0.347 OA
ENDROOT
BRANCH   4   6
ATOM      6  N   UNL     1      10.469   4.566   8.777  0.00  0.00    -0.286 N 
ATOM      7  C   UNL     1      11.077   4.737   9.995  0.00  0.00    +0.167 A 
ATOM      8  N   UNL     1      12.386   4.617  10.288  0.00  0.00    -0.216 NA
ATOM      9  C   UNL     1      12.598   4.808  11.610  0.00  0.00    +0.225 A 
ATOM     10  N   UNL     1      11.697   5.096  12.573  0.00  0.00    -0.219 NA
ATOM     11  C   UNL     1      10.395   5.207  12.224  0.00  0.00    +0.147 A 
ATOM     12  N   UNL     1       9.472   5.484  13.223  0.00  0.00    -0.341 N 
ATOM     13  H   UNL     1       8.605   5.882  12.883  0.00  0.00    +0.144 HD
ATOM     14  H   UNL     1       9.896   5.897  14.043  0.00  0.00    +0.144 HD
ATOM     15  C   UNL     1      10.046   5.034  10.873  0.00  0.00    +0.147 A 
ATOM     16  N   UNL     1       8.842   5.107  10.205  0.00  0.00    -0.231 NA
ATOM     17  C   UNL     1       9.134   4.832   8.951  0.00  0.00    +0.203 A 
ENDBRANCH   4   6
BRANCH   2  18
ATOM     18  O   UNL     1      11.985   1.012   6.767  0.00  0.00    -0.386 OA
ATOM     19  H   UNL     1      11.182   0.944   7.313  0.00  0.00    +0.210 HD
ENDBRANCH   2  18
BRANCH   3  20
ATOM     20  O   UNL     1      13.544   3.935   7.673  0.00  0.00    -0.385 OA
ATOM     21  H   UNL     1      13.606   4.332   8.568  0.00  0.00    +0.210 HD
ENDBRANCH   3  20
BRANCH   1  22
ATOM     22  C   UNL     1      11.334   3.773   4.439  0.00  0.00    +0.141 C 
BRANCH  22  23
ATOM     23  N   UNL     1      10.125   4.182   3.673  0.00  0.00    -0.175 NA
ATOM     24  H   UNL     1       9.643   3.361   3.289  0.00  0.00    +0.149 HD
BRANCH  23  25
ATOM     25  S   UNL     1      10.453   5.199   2.372  0.00  0.00    +0.111 S 
ATOM     26  O   UNL     1      10.891   6.468   2.895  0.00  0.00    -0.138 OA
ATOM     27  O   UNL     1      11.245   4.454   1.425  0.00  0.00    -0.138 OA
BRANCH  25  29
ATOM     28  C   UNL     1       8.082   4.353   1.413  0.00  0.00    +0.250 C 
ATOM     29  N   UNL     1       8.944   5.400   1.769  0.00  0.00    -0.174 N 
ATOM     30  H   UNL     1       8.683   6.349   1.507  0.00  0.00    +0.178 HD
ATOM     31  O   UNL     1       8.352   3.178   1.631  0.00  0.00    -0.272 OA
BRANCH  28  32
ATOM     32  C   UNL     1       6.734   4.799   0.800  0.00  0.00    +0.142 C 
BRANCH  32  33
ATOM     33  N   UNL     1       6.437   6.206   1.182  0.00  0.00    -0.320 NA
ATOM     34  H   UNL     1       5.499   6.438   0.848  0.00  0.00    +0.119 HD
ATOM     35  H   UNL     1       6.373   6.256   2.203  0.00  0.00    +0.119 HD
ENDBRANCH  32  33
BRANCH  32  36
ATOM     36  C   UNL     1       6.625   4.592  -0.734  0.00  0.00    +0.011 C 
ATOM     37  C   UNL     1       6.798   3.113  -1.107  0.00  0.00    +0.009 C 
BRANCH  36  39
ATOM     38  C   UNL     1       7.298   5.447  -3.055  0.00  0.00    +0.004 C 
ATOM     39  C   UNL     1       7.573   5.494  -1.554  0.00  0.00    +0.002 C 
ENDBRANCH  36  39
ENDBRANCH  32  36
ENDBRANCH  28  32
ENDBRANCH  25  29
ENDBRANCH  23  25
ENDBRANCH  22  23
ENDBRANCH   1  22
TORSDOF 11
