REMARK  Name = 
REMARK  8 active torsions:
REMARK  status: ('A' for Active; 'I' for Inactive)
REMARK    1  A    between atoms: C_1  and  C_2
REMARK    2  A    between atoms: C_2  and  C_3
REMARK    3  A    between atoms: C_2  and  N_4
REMARK    4  A    between atoms: N_4  and  C_5
REMARK    5  A    between atoms: C_5  and  C_6
REMARK    6  A    between atoms: C_11  and  C_12
REMARK    7  A    between atoms: C_12  and  O_13
REMARK    8  A    between atoms: C_14  and  N_18
REMARK                            x       y       z     vdW  Elec       q    Type
REMARK                         _______ _______ _______ _____ _____    ______ ____
ROOT
ATOM      1  C   UNL     1       5.038  -1.929  -2.273  0.00  0.00    +0.084 C 
ATOM      2  N   UNL     1       6.391  -1.680  -2.800  0.00  0.00    -0.339 N 
ATOM      3  H   UNL     1       6.485  -0.738  -3.169  0.00  0.00    +0.146 HD
ATOM      4  C   UNL     1       6.822  -2.630  -3.746  0.00  0.00    +0.037 A 
ATOM      5  C   UNL     1       6.310  -3.933  -3.770  0.00  0.00    -0.026 A 
ATOM      6  C   UNL     1       6.785  -4.853  -4.719  0.00  0.00    +0.018 A 
ATOM      7  C   UNL     1       7.806  -4.521  -5.632  0.00  0.00    +0.055 A 
ATOM      8  C   UNL     1       8.356  -3.225  -5.555  0.00  0.00    +0.280 A 
ATOM      9  C   UNL     1       5.196  -4.345  -2.839  0.00  0.00    +0.039 C 
ATOM     10  C   UNL     1       7.876  -2.303  -4.603  0.00  0.00    +0.107 A 
ATOM     11  C   UNL     1       4.990  -3.346  -1.702  0.00  0.00    +0.028 C 
ENDROOT
BRANCH   8  12
ATOM     12  N   UNL     1       9.429  -2.753  -6.455  0.00  0.00    +0.080 N 
ATOM     13  O   UNL     1       9.836  -1.592  -6.312  0.00  0.00    +0.041 OA
ATOM     14  O   UNL     1       9.865  -3.524  -7.322  0.00  0.00    -0.576 OA
ENDBRANCH   8  12
BRANCH   1  15
ATOM     15  C   UNL     1       4.668  -0.877  -1.196  0.00  0.00    +0.103 C 
BRANCH  15  16
ATOM     16  N   UNL     1       4.681   0.482  -1.764  0.00  0.00    -0.312 NA
ATOM     17  H   UNL     1       5.635   0.687  -2.059  0.00  0.00    +0.122 HD
BRANCH  16  19
ATOM     18  C   UNL     1       4.413   2.875  -1.542  0.00  0.00    +0.023 C 
ATOM     19  C   UNL     1       4.269   1.530  -0.820  0.00  0.00    +0.048 C 
ATOM     20  C   UNL     1       2.829   1.371  -0.331  0.00  0.00    +0.023 C 
ENDBRANCH  16  19
ENDBRANCH  15  16
ENDBRANCH   1  15
BRANCH   7  21
ATOM     21  C   UNL     1       8.226  -5.582  -6.615  0.00  0.00    +0.197 C 
BRANCH  21  22
ATOM     22  O   UNL     1       9.565  -5.970  -6.360  0.00  0.00    -0.390 OA
ATOM     23  H   UNL     1      10.121  -5.369  -6.897  0.00  0.00    +0.210 HD
ENDBRANCH  21  22
ENDBRANCH   7  21
TORSDOF 6
