REMARK  Name = 
REMARK  8 active torsions:
REMARK  status: ('A' for Active; 'I' for Inactive)
REMARK    1  A    between atoms: C_4  and  C_5
REMARK    2  A    between atoms: C_4  and  C_6
REMARK    3  A    between atoms: CA_7  and  C_30
REMARK    4  A    between atoms: CA_12  and  N_14
REMARK    5  A    between atoms: C_15  and  C_17
REMARK    6  A    between atoms: C_18  and  C_19
REMARK    7  A    between atoms: C_22  and  C_23
REMARK    8  A    between atoms: C_30  and  O_31
REMARK                            x       y       z     vdW  Elec       q    Type
REMARK                         _______ _______ _______ _____ _____    ______ ____
ROOT
ATOM      1  N   UNL     1       3.488  -0.822   2.203  0.00  0.00    -0.298 N 
ATOM      2  H   UNL     1       4.342  -0.280   2.170  0.00  0.00    +0.150 HD
ATOM      3  C   UNL     1       2.865  -0.937   3.431  0.00  0.00    +0.250 C 
ATOM      4  O   UNL     1       1.720  -1.360   3.530  0.00  0.00    -0.270 OA
ENDROOT
BRANCH   1   6
ATOM      5  C   UNL     1       1.924   0.029   0.337  0.00  0.00    +0.165 C 
ATOM      6  CA  UNL     1       2.781  -1.119   0.928  0.00  0.00    +0.190 C 
ATOM      7  C   UNL     1       3.620  -0.957  -0.369  0.00  0.00    +0.240 C 
ATOM      8  O   UNL     1       4.728  -1.272  -0.742  0.00  0.00    -0.273 OA
ATOM      9  N   UNL     1       2.725  -0.068  -0.904  0.00  0.00    -0.271 N 
ATOM     10  CA  UNL     1       3.207   1.208  -1.479  0.00  0.00    +0.201 C 
ATOM     11  C   UNL     1       3.481   2.167  -0.294  0.00  0.00    +0.042 C 
ATOM     12  C   UNL     1       4.880   1.939   0.316  0.00  0.00    +0.025 C 
ATOM     13  C   UNL     1       3.379   3.666  -0.597  0.00  0.00    +0.025 C 
ATOM     14  S   UNL     1       2.226   1.720   0.992  0.00  0.00    -0.127 S 
BRANCH  10  15
ATOM     15  C   UNL     1       2.169   1.697  -2.506  0.00  0.00    +0.327 C 
ATOM     16  OXT UNL     1       2.215   2.770  -3.088  0.00  0.00    -0.249 OA
BRANCH  15  17
ATOM     17  O   UNL     1       1.209   0.779  -2.790  0.00  0.00    -0.479 OA
ATOM     18  H   UNL     1       1.385  -0.059  -2.316  0.00  0.00    +0.295 HD
ENDBRANCH  15  17
ENDBRANCH  10  15
ENDBRANCH   1   6
BRANCH   3  19
ATOM     19  C   UNL     1       3.657  -0.474   4.554  0.00  0.00    +0.106 A 
ATOM     20  C   UNL     1       3.253   0.131   5.803  0.00  0.00    +0.127 A 
ATOM     21  N   UNL     1       4.353   0.474   6.497  0.00  0.00    -0.077 NA
ATOM     22  O   UNL     1       5.438   0.020   5.808  0.00  0.00    -0.359 OA
ATOM     23  C   UNL     1       5.038  -0.552   4.651  0.00  0.00    +0.147 A 
ATOM     24  C   UNL     1       6.137  -1.095   3.825  0.00  0.00    +0.090 C 
BRANCH  20  25
ATOM     25  C   UNL     1       1.926   0.503   6.339  0.00  0.00    +0.023 A 
ATOM     26  C   UNL     1       1.646   0.557   7.725  0.00  0.00    +0.050 A 
ATOM     27 CL   UNL     1       2.724  -0.022   8.956  0.00  0.00    -0.083 Cl
ATOM     28  C   UNL     1       0.422   1.059   8.197  0.00  0.00    +0.020 A 
ATOM     29  C   UNL     1      -0.565   1.469   7.308  0.00  0.00    +0.001 A 
ATOM     30  C   UNL     1      -0.333   1.370   5.941  0.00  0.00    +0.001 A 
ATOM     31  C   UNL     1       0.902   0.910   5.463  0.00  0.00    +0.011 A 
ENDBRANCH  20  25
ENDBRANCH   3  19
TORSDOF 5
