REMARK  Name = 
REMARK  8 active torsions:
REMARK  status: ('A' for Active; 'I' for Inactive)
REMARK    1  A    between atoms: O_1  and  C_2
REMARK    2  A    between atoms: C_2  and  C_3
REMARK    3  A    between atoms: C_6  and  O_8
REMARK    4  A    between atoms: C_9  and  O_11
REMARK    5  A    between atoms: C_12  and  O_14
REMARK    6  A    between atoms: O_14  and  S_15
REMARK    7  A    between atoms: S_15  and  O_16
REMARK    8  A    between atoms: C_19  and  O_21
REMARK                            x       y       z     vdW  Elec       q    Type
REMARK                         _______ _______ _______ _____ _____    ______ ____
ROOT
ATOM      1  C   UNL     1       2.568  -1.560  -0.109  0.00  0.00    +0.178 C 
ATOM      2  C   UNL     1       2.599  -3.057   0.240  0.00  0.00    +0.179 C 
ATOM      3  C   UNL     1       2.627  -3.336   1.746  0.00  0.00    +0.216 C 
ATOM      4  C   UNL     1       3.483  -2.338   2.534  0.00  0.00    +0.204 C 
ATOM      5  C   UNL     1       3.334  -0.895   2.006  0.00  0.00    +0.279 C 
ATOM      6  O   UNL     1       3.564  -0.835   0.605  0.00  0.00    -0.341 OA
ENDROOT
BRANCH   2   7
ATOM      7  O   UNL     1       1.419  -3.683  -0.278  0.00  0.00    -0.386 OA
ATOM      8  H   UNL     1       1.300  -3.362  -1.200  0.00  0.00    +0.210 HD
ENDBRANCH   2   7
BRANCH   4   9
ATOM      9  O   UNL     1       3.123  -2.420   3.931  0.00  0.00    -0.384 OA
ATOM     10  H   UNL     1       2.210  -2.102   4.037  0.00  0.00    +0.210 HD
ENDBRANCH   4   9
BRANCH   5  11
ATOM     11  O   UNL     1       4.289  -0.061   2.645  0.00  0.00    -0.365 OA
ATOM     12  H   UNL     1       3.964   0.848   2.553  0.00  0.00    +0.213 HD
ENDBRANCH   5  11
BRANCH   1  13
ATOM     13  C   UNL     1       2.781  -1.382  -1.624  0.00  0.00    +0.190 C 
BRANCH  13  14
ATOM     14  O   UNL     1       1.755  -2.072  -2.340  0.00  0.00    -0.392 OA
ATOM     15  H   UNL     1       2.057  -2.168  -3.262  0.00  0.00    +0.210 HD
ENDBRANCH  13  14
ENDBRANCH   1  13
BRANCH   3  16
ATOM     16  O   UNL     1       3.155  -4.646   2.015  0.00  0.00    -0.207 OA
BRANCH  16  17
ATOM     17  S   UNL     1       2.424  -5.964   1.410  0.00  0.00    +0.208 S 
ATOM     18  O   UNL     1       2.816  -6.142   0.031  0.00  0.00    -0.118 OA
ATOM     19  O   UNL     1       1.049  -5.966   1.855  0.00  0.00    -0.118 OA
BRANCH  17  20
ATOM     20  O   UNL     1       3.138  -7.139   2.248  0.00  0.00    -0.231 OA
ATOM     21  H   UNL     1       2.674  -7.211   3.105  0.00  0.00    +0.247 HD
ENDBRANCH  17  20
ENDBRANCH  16  17
ENDBRANCH   3  16
TORSDOF 8
