REMARK  Name = 
REMARK  16 active torsions:
REMARK  status: ('A' for Active; 'I' for Inactive)
REMARK    1  A    between atoms: C_1  and  C_2
REMARK    2  A    between atoms: N_4  and  C_5
REMARK    3  A    between atoms: C_5  and  C_7
REMARK    4  A    between atoms: C_5  and  C_23
REMARK    5  A    between atoms: C_7  and  C_8
REMARK    6  A    between atoms: C_11  and  O_12
REMARK    7  A    between atoms: O_12  and  C_13
REMARK    8  A    between atoms: C_13  and  C_14
REMARK    9  A    between atoms: C_14  and  O_15
REMARK   10  A    between atoms: C_17  and  P_19
REMARK   11  A    between atoms: P_19  and  O_20
REMARK   12  A    between atoms: P_19  and  O_21
REMARK   13  A    between atoms: N_25  and  C_26
REMARK   14  A    between atoms: N_32  and  C_33
REMARK   15  A    between atoms: C_33  and  C_34
REMARK   16  A    between atoms: C_37  and  C_40
REMARK                            x       y       z     vdW  Elec       q    Type
REMARK                         _______ _______ _______ _____ _____    ______ ____
ROOT
ATOM      1  C   UNL     1      10.371   0.007  -3.207  0.00  0.00    +0.163 C 
ENDROOT
BRANCH   1   4
ATOM      2  C   UNL     1      13.998   0.928  -3.822  0.00  0.00    +0.109 C 
ATOM      3  C   UNL     1      12.758   0.084  -3.776  0.00  0.00    +0.211 C 
ATOM      4  N   UNL     1      11.559   0.770  -3.634  0.00  0.00    -0.304 N 
ATOM      5  H   UNL     1      11.529   1.776  -3.749  0.00  0.00    +0.149 HD
ATOM      6  O   UNL     1      12.831  -1.144  -3.771  0.00  0.00    -0.276 OA
ENDBRANCH   1   4
BRANCH   1   7
ATOM      7  C   UNL     1       8.923   0.612  -3.422  0.00  0.00    +0.234 C 
ATOM      8  N   UNL     1       8.765   1.981  -3.488  0.00  0.00    -0.302 N 
ATOM      9  H   UNL     1       9.365   2.489  -2.852  0.00  0.00    +0.150 HD
ATOM     10  O   UNL     1       7.935  -0.128  -3.471  0.00  0.00    -0.274 OA
BRANCH   8  11
ATOM     11  C   UNL     1       7.420   2.608  -3.658  0.00  0.00    +0.159 C 
ATOM     12  C   UNL     1       7.602   4.134  -3.616  0.00  0.00    +0.236 C 
ATOM     13  O   UNL     1       6.862   4.880  -2.975  0.00  0.00    -0.274 OA
ATOM     14  N   UNL     1       8.447   4.592  -4.652  0.00  0.00    -0.296 N 
ATOM     15  C   UNL     1       7.661   5.330  -5.639  0.00  0.00    +0.108 C 
ATOM     16  C   UNL     1       6.511   4.469  -6.200  0.00  0.00    +0.019 C 
ATOM     17  C   UNL     1       6.860   2.975  -6.256  0.00  0.00    +0.004 C 
ATOM     18  C   UNL     1       6.612   2.210  -4.935  0.00  0.00    +0.032 C 
BRANCH  14  19
ATOM     19  C   UNL     1       9.737   5.171  -4.245  0.00  0.00    +0.143 C 
BRANCH  19  20
ATOM     20  C   UNL     1      11.016   4.703  -4.959  0.00  0.00    -0.030 A 
ATOM     21  C   UNL     1      12.266   5.051  -4.410  0.00  0.00    +0.006 A 
ATOM     22  C   UNL     1      13.502   4.707  -5.025  0.00  0.00    +0.009 A 
ATOM     23  C   UNL     1      13.573   3.961  -6.216  0.00  0.00    -0.018 A 
ATOM     24  C   UNL     1      12.310   3.623  -6.753  0.00  0.00    +0.009 A 
ATOM     25  C   UNL     1      11.067   3.991  -6.157  0.00  0.00    +0.006 A 
BRANCH  23  26
ATOM     26  C   UNL     1      14.886   3.498  -6.827  0.00  0.00    -0.018 A 
ATOM     27  C   UNL     1      16.111   3.491  -6.114  0.00  0.00    +0.008 A 
ATOM     28  C   UNL     1      17.295   2.938  -6.638  0.00  0.00    +0.001 A 
ATOM     29  C   UNL     1      17.308   2.368  -7.902  0.00  0.00    +0.000 A 
ATOM     30  C   UNL     1      16.145   2.405  -8.660  0.00  0.00    +0.001 A 
ATOM     31  C   UNL     1      14.966   2.969  -8.133  0.00  0.00    +0.008 A 
ENDBRANCH  23  26
ENDBRANCH  19  20
ENDBRANCH  14  19
ENDBRANCH   8  11
ENDBRANCH   1   7
BRANCH   1  32
ATOM     32  C   UNL     1      10.656  -0.519  -1.770  0.00  0.00    +0.067 C 
BRANCH  32  33
ATOM     33  C   UNL     1       9.531  -1.250  -1.111  0.00  0.00    -0.044 A 
ATOM     34  C   UNL     1       8.887  -0.673  -0.020  0.00  0.00    +0.023 A 
ATOM     35  C   UNL     1       7.656  -1.161   0.422  0.00  0.00    +0.105 A 
ATOM     36  C   UNL     1       7.143  -2.320  -0.174  0.00  0.00    +0.136 A 
ATOM     37  C   UNL     1       7.885  -3.000  -1.148  0.00  0.00    +0.047 A 
ATOM     38  C   UNL     1       9.058  -2.449  -1.641  0.00  0.00    +0.007 A 
BRANCH  35  39
ATOM     39  P   UNL     1       6.777  -0.130   1.550  0.00  0.00    +0.362 P 
ATOM     40  O   UNL     1       7.439   1.166   1.947  0.00  0.00    -0.253 OA
BRANCH  39  41
ATOM     41  O   UNL     1       6.407  -1.024   2.833  0.00  0.00    -0.321 OA
ATOM     42  H   UNL     1       6.549  -1.969   2.694  0.00  0.00    +0.220 HD
ENDBRANCH  39  41
BRANCH  39  43
ATOM     43  O   UNL     1       5.328   0.076   0.910  0.00  0.00    -0.321 OA
ATOM     44  H   UNL     1       5.159  -0.452   0.114  0.00  0.00    +0.220 HD
ENDBRANCH  39  43
ENDBRANCH  35  39
BRANCH  36  45
ATOM     45  O   UNL     1       5.893  -2.750   0.201  0.00  0.00    -0.480 OA
BRANCH  45  46
ATOM     46  C   UNL     1       5.084  -3.107  -0.939  0.00  0.00    +0.349 C 
BRANCH  46  47
ATOM     47  C   UNL     1       3.661  -3.365  -0.487  0.00  0.00    +0.343 C 
ATOM     48  O   UNL     1       2.687  -3.275  -1.220  0.00  0.00    -0.247 OA
BRANCH  47  49
ATOM     49  O   UNL     1       3.577  -3.768   0.802  0.00  0.00    -0.478 OA
ATOM     50  H   UNL     1       4.459  -3.768   1.228  0.00  0.00    +0.295 HD
ENDBRANCH  47  49
ENDBRANCH  46  47
ENDBRANCH  45  46
ENDBRANCH  36  45
ENDBRANCH  32  33
ENDBRANCH   1  32
TORSDOF 15
