REMARK  Name = 
REMARK  20 active torsions:
REMARK  status: ('A' for Active; 'I' for Inactive)
REMARK    1  A    between atoms: C_1  and  N_2
REMARK    2  A    between atoms: N_2  and  C_3
REMARK    3  A    between atoms: C_3  and  C_4
REMARK    4  A    between atoms: C_4  and  C_5
REMARK    5  A    between atoms: C_5  and  C_6
REMARK    6  A    between atoms: C_12  and  C_14
REMARK    7  A    between atoms: C_14  and  C_16
REMARK    8  A    between atoms: C_14  and  N_21
REMARK    9  A    between atoms: C_16  and  C_17
REMARK   10  A    between atoms: C_17  and  C_18
REMARK   11  A    between atoms: C_18  and  O_19
REMARK   12  A    between atoms: N_24  and  C_25
REMARK   13  A    between atoms: N_24  and  C_29
REMARK   14  A    between atoms: C_25  and  C_26
REMARK   15  A    between atoms: C_26  and  O_27
REMARK   16  A    between atoms: C_29  and  C_30
REMARK   17  A    between atoms: C_33  and  O_34
REMARK   18  A    between atoms: O_34  and  P_35
REMARK   19  A    between atoms: P_35  and  O_36
REMARK   20  A    between atoms: P_35  and  O_37
REMARK                            x       y       z     vdW  Elec       q    Type
REMARK                         _______ _______ _______ _____ _____    ______ ____
ROOT
ATOM      1  N   UNL     1       5.314   1.963   1.376  0.00  0.00    -0.288 N 
ATOM      2  H   UNL     1       6.314   1.987   1.512  0.00  0.00    +0.151 HD
ATOM      3  C   UNL     1       4.705   3.166   1.627  0.00  0.00    +0.304 C 
ATOM      4  N   UNL     1       5.273   3.905   2.657  0.00  0.00    -0.271 N 
ATOM      5  O   UNL     1       3.715   3.569   1.028  0.00  0.00    -0.253 OA
ENDROOT
BRANCH   4   6
ATOM      6  C   UNL     1       4.530   5.050   3.231  0.00  0.00    +0.230 C 
BRANCH   6   7
ATOM      7  C   UNL     1       4.104   6.283   2.421  0.00  0.00    +0.322 C 
ATOM      8  O   UNL     1       4.010   7.388   2.937  0.00  0.00    -0.249 OA
BRANCH   7   9
ATOM      9  O   UNL     1       3.695   6.065   1.160  0.00  0.00    -0.480 OA
ATOM     10  H   UNL     1       3.615   5.106   0.934  0.00  0.00    +0.295 HD
ENDBRANCH   7   9
ENDBRANCH   6   7
ENDBRANCH   4   6
BRANCH   4  11
ATOM     11  C   UNL     1       6.239   3.288   3.571  0.00  0.00    +0.145 C 
BRANCH  11  12
ATOM     12  C   UNL     1       7.674   3.418   3.118  0.00  0.00    -0.030 A 
ATOM     13  C   UNL     1       8.589   2.410   3.453  0.00  0.00    +0.009 A 
ATOM     14  C   UNL     1       9.948   2.571   3.186  0.00  0.00    +0.046 A 
ATOM     15  C   UNL     1      10.407   3.747   2.599  0.00  0.00    +0.132 A 
ATOM     16  C   UNL     1       9.507   4.731   2.205  0.00  0.00    +0.046 A 
ATOM     17  C   UNL     1       8.144   4.569   2.468  0.00  0.00    +0.009 A 
BRANCH  15  18
ATOM     18  O   UNL     1      11.759   3.866   2.473  0.00  0.00    -0.404 OA
BRANCH  18  19
ATOM     19  P   UNL     1      12.523   5.272   2.454  0.00  0.00    +0.528 P 
ATOM     20  O   UNL     1      12.356   6.155   1.265  0.00  0.00    -0.216 OA
BRANCH  19  21
ATOM     21  O   UNL     1      12.239   5.953   3.872  0.00  0.00    -0.293 OA
ATOM     22  H   UNL     1      12.713   5.486   4.582  0.00  0.00    +0.223 HD
ENDBRANCH  19  21
BRANCH  19  23
ATOM     23  O   UNL     1      14.056   4.854   2.661  0.00  0.00    -0.293 OA
ATOM     24  H   UNL     1      14.469   4.679   1.795  0.00  0.00    +0.223 HD
ENDBRANCH  19  23
ENDBRANCH  18  19
ENDBRANCH  15  18
ENDBRANCH  11  12
ENDBRANCH   4  11
BRANCH   1  25
ATOM     25  C   UNL     1       4.877   1.003   0.355  0.00  0.00    +0.161 C 
BRANCH  25  28
ATOM     26  C   UNL     1       1.241   0.308   1.393  0.00  0.00    +0.132 C 
ATOM     27  N   UNL     1       2.694   0.186   1.398  0.00  0.00    -0.303 N 
ATOM     28  C   UNL     1       3.338   0.808   0.322  0.00  0.00    +0.236 C 
ATOM     29  O   UNL     1       2.701   1.198  -0.664  0.00  0.00    -0.274 OA
BRANCH  27  30
ATOM     30  C   UNL     1       3.332  -0.286   2.641  0.00  0.00    +0.107 C 
BRANCH  30  31
ATOM     31  C   UNL     1       2.891  -1.711   3.022  0.00  0.00    +0.019 C 
BRANCH  31  32
ATOM     32  C   UNL     1       3.567  -2.245   4.293  0.00  0.00    +0.005 C 
BRANCH  32  33
ATOM     33  C   UNL     1       3.032  -3.640   4.708  0.00  0.00    -0.011 C 
ATOM     34  C   UNL     1       3.579  -4.069   6.084  0.00  0.00    +0.003 C 
ATOM     35  C   UNL     1       5.033  -4.534   6.039  0.00  0.00    +0.000 C 
ATOM     36  C   UNL     1       5.232  -5.638   5.007  0.00  0.00    +0.000 C 
ATOM     37  C   UNL     1       4.758  -5.193   3.628  0.00  0.00    +0.000 C 
ATOM     38  C   UNL     1       3.299  -4.744   3.667  0.00  0.00    +0.003 C 
ENDBRANCH  32  33
ENDBRANCH  31  32
ENDBRANCH  30  31
ENDBRANCH  27  30
ENDBRANCH  25  28
BRANCH  25  39
ATOM     39  C   UNL     1       5.447   1.313  -1.049  0.00  0.00    +0.043 C 
BRANCH  39  40
ATOM     40  C   UNL     1       6.976   1.220  -1.089  0.00  0.00    +0.123 C 
BRANCH  40  41
ATOM     41  C   UNL     1       7.675   1.390  -2.425  0.00  0.00    +0.305 C 
ATOM     42  O   UNL     1       8.891   1.265  -2.525  0.00  0.00    -0.251 OA
BRANCH  41  43
ATOM     43  O   UNL     1       6.906   1.665  -3.492  0.00  0.00    -0.481 OA
ATOM     44  H   UNL     1       5.951   1.772  -3.337  0.00  0.00    +0.295 HD
ENDBRANCH  41  43
ENDBRANCH  40  41
ENDBRANCH  39  40
ENDBRANCH  25  39
ENDBRANCH   1  25
TORSDOF 19
