REMARK  Name = 
REMARK  15 active torsions:
REMARK  status: ('A' for Active; 'I' for Inactive)
REMARK    1  A    between atoms: C_4  and  C_5
REMARK    2  A    between atoms: C_4  and  C_6
REMARK    3  A    between atoms: C_7  and  C_26
REMARK    4  A    between atoms: C_12  and  N_14
REMARK    5  A    between atoms: C_15  and  C_17
REMARK    6  A    between atoms: C_17  and  N_19
REMARK    7  A    between atoms: C_17  and  C_20
REMARK    8  A    between atoms: C_26  and  O_28
REMARK    9  A    between atoms: O_28  and  C_29
REMARK   10  A    between atoms: C_29  and  O_30
REMARK   11  A    between atoms: O_30  and  C_31
REMARK   12  A    between atoms: C_31  and  C_33
REMARK   13  A    between atoms: C_33  and  C_34
REMARK   14  A    between atoms: C_33  and  C_35
REMARK   15  A    between atoms: C_33  and  C_36
REMARK                            x       y       z     vdW  Elec       q    Type
REMARK                         _______ _______ _______ _____ _____    ______ ____
ROOT
ATOM      1  C   UNL     1       8.200  -2.194   2.372  0.00  0.00    +0.165 C 
ATOM      2  C   UNL     1       7.659  -1.138   3.374  0.00  0.00    +0.190 C 
ATOM      3  C   UNL     1       8.300  -0.114   2.403  0.00  0.00    +0.240 C 
ATOM      4  O   UNL     1       8.198   1.069   2.177  0.00  0.00    -0.273 OA
ATOM      5  N   UNL     1       8.899  -1.103   1.670  0.00  0.00    -0.271 N 
ATOM      6  C   UNL     1       8.830  -1.100   0.206  0.00  0.00    +0.201 C 
ATOM      7  C   UNL     1       7.422  -1.632  -0.169  0.00  0.00    +0.042 C 
ATOM      8  C   UNL     1       6.352  -0.521  -0.109  0.00  0.00    +0.025 C 
ATOM      9  C   UNL     1       7.299  -2.291  -1.547  0.00  0.00    +0.025 C 
ATOM     10  S   UNL     1       7.010  -2.880   1.136  0.00  0.00    -0.127 S 
ENDROOT
BRANCH   2  11
ATOM     11  N   UNL     1       6.186  -1.066   3.550  0.00  0.00    -0.300 N 
ATOM     12  H   UNL     1       5.594  -0.501   2.949  0.00  0.00    +0.150 HD
ATOM     13  C   UNL     1       5.510  -1.942   4.375  0.00  0.00    +0.235 C 
ATOM     14  O   UNL     1       6.091  -2.769   5.072  0.00  0.00    -0.274 OA
BRANCH  13  15
ATOM     15  C   UNL     1       3.971  -1.780   4.354  0.00  0.00    +0.168 C 
BRANCH  15  16
ATOM     16  C   UNL     1       3.482  -0.851   5.448  0.00  0.00    -0.022 A 
ATOM     17  C   UNL     1       3.809   0.516   5.448  0.00  0.00    +0.005 A 
ATOM     18  C   UNL     1       3.342   1.364   6.453  0.00  0.00    +0.000 A 
ATOM     19  C   UNL     1       2.538   0.860   7.472  0.00  0.00    +0.000 A 
ATOM     20  C   UNL     1       2.206  -0.492   7.490  0.00  0.00    +0.000 A 
ATOM     21  C   UNL     1       2.676  -1.344   6.487  0.00  0.00    +0.005 A 
ENDBRANCH  15  16
BRANCH  15  22
ATOM     22  N   UNL     1       3.526  -1.301   3.019  0.00  0.00    -0.316 NA
ATOM     23  H   UNL     1       3.694  -2.056   2.351  0.00  0.00    +0.119 HD
ATOM     24  H   UNL     1       2.510  -1.202   3.062  0.00  0.00    +0.119 HD
ENDBRANCH  15  22
ENDBRANCH  13  15
ENDBRANCH   2  11
BRANCH   6  25
ATOM     25  C   UNL     1      10.004  -1.879  -0.426  0.00  0.00    +0.332 C 
ATOM     26  O   UNL     1      10.161  -1.994  -1.637  0.00  0.00    -0.249 OA
BRANCH  25  27
ATOM     27  O   UNL     1      10.874  -2.364   0.500  0.00  0.00    -0.426 OA
BRANCH  27  28
ATOM     28  C   UNL     1      12.036  -3.009  -0.032  0.00  0.00    +0.472 C 
BRANCH  28  29
ATOM     29  O   UNL     1      11.793  -4.384  -0.340  0.00  0.00    -0.427 OA
BRANCH  29  30
ATOM     30  C   UNL     1      11.922  -5.234   0.714  0.00  0.00    +0.315 C 
ATOM     31  O   UNL     1      12.229  -4.886   1.847  0.00  0.00    -0.250 OA
BRANCH  30  32
ATOM     32  C   UNL     1      11.648  -6.682   0.295  0.00  0.00    +0.059 C 
ATOM     33  C   UNL     1      10.236  -6.789  -0.296  0.00  0.00    +0.022 C 
ATOM     34  C   UNL     1      11.744  -7.592   1.530  0.00  0.00    +0.022 C 
ATOM     35  C   UNL     1      12.691  -7.129  -0.737  0.00  0.00    +0.022 C 
ENDBRANCH  30  32
ENDBRANCH  29  30
ENDBRANCH  28  29
ENDBRANCH  27  28
ENDBRANCH  25  27
ENDBRANCH   6  25
TORSDOF 10
