REMARK  Name = 
REMARK  9 active torsions:
REMARK  status: ('A' for Active; 'I' for Inactive)
REMARK    1  A    between atoms: C_1  and  C_2
REMARK    2  A    between atoms: N_4  and  C_5
REMARK    3  A    between atoms: C_5  and  C_6
REMARK    4  A    between atoms: C_6  and  C_7
REMARK    5  A    between atoms: C_7  and  C_10
REMARK    6  A    between atoms: C_10  and  CA_11
REMARK    7  A    between atoms: CA_11  and  N_13
REMARK    8  A    between atoms: CA_11  and  C_14
REMARK    9  A    between atoms: C_14  and  O_15
REMARK                            x       y       z     vdW  Elec       q    Type
REMARK                         _______ _______ _______ _____ _____    ______ ____
ROOT
ATOM      1  C   UNL     1      10.625   1.038   2.777  0.00  0.00    +0.172 C 
ATOM      2  F   UNL     1       9.894   1.494   1.720  0.00  0.00    -0.245 F 
ENDROOT
BRANCH   1   3
ATOM      3  C   UNL     1      11.253   2.240   3.486  0.00  0.00    +0.080 C 
BRANCH   3   4
ATOM      4  C   UNL     1      12.197   3.060   2.605  0.00  0.00    +0.225 C 
BRANCH   4   7
ATOM      5  C   UNL     1      14.136   6.152   3.771  0.00  0.00    +0.144 C 
ATOM      6  C   UNL     1      13.622   5.073   2.841  0.00  0.00    +0.275 C 
ATOM      7  N   UNL     1      12.726   4.182   3.357  0.00  0.00    -0.238 N 
ATOM      8  H   UNL     1      12.568   4.187   4.360  0.00  0.00    +0.291 HD
ATOM      9  N   UNL     1      14.014   5.028   1.610  0.00  0.00    -0.104 NA
ATOM     10  H   UNL     1      14.676   5.784   1.414  0.00  0.00    +0.363 HD
ENDBRANCH   4   7
ENDBRANCH   3   4
ENDBRANCH   1   3
BRANCH   1  11
ATOM     11  C   UNL     1      11.646   0.026   2.259  0.00  0.00    +0.067 C 
BRANCH  11  12
ATOM     12  CA  UNL     1      11.050  -1.249   1.647  0.00  0.00    +0.163 C 
BRANCH  12  13
ATOM     13  N   UNL     1      10.127  -1.017   0.505  0.00  0.00    -0.318 NA
ATOM     14  H1  UNL     1      10.582  -0.359  -0.137  0.00  0.00    +0.119 HD
ATOM     15  H2  UNL     1       9.327  -0.466   0.847  0.00  0.00    +0.119 HD
ENDBRANCH  12  13
BRANCH  12  16
ATOM     16  C   UNL     1      10.331  -2.131   2.676  0.00  0.00    +0.322 C 
ATOM     17  OXT UNL     1      10.532  -2.127   3.879  0.00  0.00    -0.249 OA
BRANCH  16  18
ATOM     18  O   UNL     1       9.440  -2.956   2.066  0.00  0.00    -0.480 OA
ATOM     19  H   UNL     1       9.447  -2.718   1.105  0.00  0.00    +0.295 HD
ENDBRANCH  16  18
ENDBRANCH  12  16
ENDBRANCH  11  12
ENDBRANCH   1  11
TORSDOF 8
