REMARK  Name = 
REMARK  9 active torsions:
REMARK  status: ('A' for Active; 'I' for Inactive)
REMARK    1  A    between atoms: C_2  and  N_3
REMARK    2  A    between atoms: C_2  and  C_4
REMARK    3  A    between atoms: C_2  and  C_8
REMARK    4  A    between atoms: C_4  and  C_5
REMARK    5  A    between atoms: C_5  and  S_6
REMARK    6  A    between atoms: S_6  and  C_7
REMARK    7  A    between atoms: C_8  and  O_9
REMARK    8  A    between atoms: C_8  and  O_10
REMARK    9  A    between atoms: C_8  and  C_11
REMARK                            x       y       z     vdW  Elec       q    Type
REMARK                         _______ _______ _______ _____ _____    ______ ____
ROOT
ATOM      1  C   UNL     1       2.602   0.445  -1.475  0.00  0.00    +0.298 C 
ENDROOT
BRANCH   1   2
ATOM      2  C   UNL     1       2.048   1.823  -1.861  0.00  0.00    +0.125 A 
ATOM      3  N   UNL     1       1.267   1.873  -2.980  0.00  0.00    -0.252 NA
ATOM      4  C   UNL     1       0.750   3.073  -3.324  0.00  0.00    +0.111 A 
ATOM      5  C   UNL     1       0.961   4.233  -2.606  0.00  0.00    +0.020 A 
ATOM      6  C   UNL     1       1.759   4.172  -1.468  0.00  0.00    +0.003 A 
ATOM      7  C   UNL     1       2.314   2.955  -1.089  0.00  0.00    +0.031 A 
ENDBRANCH   1   2
BRANCH   1   8
ATOM      8  O   UNL     1       2.164  -0.530  -2.430  0.00  0.00    -0.500 OA
ATOM      9  H   UNL     1       1.751   0.007  -3.136  0.00  0.00    +0.288 HD
ENDBRANCH   1   8
BRANCH   1  10
ATOM     10  O   UNL     1       4.022   0.508  -1.566  0.00  0.00    -0.500 OA
ATOM     11  H   UNL     1       4.332   1.093  -0.858  0.00  0.00    +0.288 HD
ENDBRANCH   1  10
BRANCH   1  12
ATOM     12  C   UNL     1       2.082  -0.019  -0.056  0.00  0.00    +0.143 C 
BRANCH  12  13
ATOM     13  N   UNL     1       0.593  -0.068   0.026  0.00  0.00    -0.321 NA
ATOM     14  H   UNL     1       0.212   0.846  -0.222  0.00  0.00    +0.119 HD
ATOM     15  H   UNL     1       0.274  -0.686  -0.726  0.00  0.00    +0.119 HD
ENDBRANCH  12  13
BRANCH  12  16
ATOM     16  C   UNL     1       2.579  -1.423   0.360  0.00  0.00    +0.037 C 
BRANCH  16  17
ATOM     17  C   UNL     1       4.091  -1.602   0.523  0.00  0.00    +0.070 C 
BRANCH  17  18
ATOM     18  S   UNL     1       4.793  -0.417   1.723  0.00  0.00    -0.164 S 
ATOM     19  C   UNL     1       6.539  -0.845   1.544  0.00  0.00    +0.084 C 
ENDBRANCH  17  18
ENDBRANCH  16  17
ENDBRANCH  12  16
ENDBRANCH   1  12
TORSDOF 8
