REMARK  Name = 
REMARK  17 active torsions:
REMARK  status: ('A' for Active; 'I' for Inactive)
REMARK    1  A    between atoms: C_11  and  C_12
REMARK    2  A    between atoms: C_13  and  C_19
REMARK    3  A    between atoms: C_17  and  O_18
REMARK    4  A    between atoms: C_25  and  C_26
REMARK    5  A    between atoms: C_29  and  O_32
REMARK    6  A    between atoms: O_32  and  C_33
REMARK    7  A    between atoms: C_36  and  O_38
REMARK    8  A    between atoms: C_39  and  O_41
REMARK    9  A    between atoms: O_41  and  C_42
REMARK   10  A    between atoms: C_45  and  O_47
REMARK   11  A    between atoms: C_48  and  O_50
REMARK   12  A    between atoms: O_50  and  C_51
REMARK   13  A    between atoms: C_54  and  O_56
REMARK   14  A    between atoms: C_57  and  O_59
REMARK   15  A    between atoms: C_60  and  C_62
REMARK   16  A    between atoms: C_64  and  C_66
REMARK   17  A    between atoms: C_68  and  C_70
REMARK                            x       y       z     vdW  Elec       q    Type
REMARK                         _______ _______ _______ _____ _____    ______ ____
ROOT
ATOM      1  C   UNL     1      -0.000  -0.000  -0.000  0.00  0.00    +0.253 C 
ATOM      2  O   UNL     1      -0.000  -0.000  -0.000  0.00  0.00    -0.346 OA
ATOM      3  C   UNL     1      -0.000  -0.000  -0.000  0.00  0.00    +0.150 C 
ATOM      4  C   UNL     1      -0.000  -0.000  -0.000  0.00  0.00    +0.041 C 
ATOM      5  C   UNL     1      -0.000  -0.000  -0.000  0.00  0.00    +0.178 C 
ATOM      6  C   UNL     1      -0.000  -0.000  -0.000  0.00  0.00    +0.151 C 
ATOM      7  C   UNL     1      -0.000  -0.000  -0.000  0.00  0.00    +0.095 C 
ENDROOT
BRANCH   6   8
ATOM      8  O   UNL     1      -0.000  -0.000  -0.000  0.00  0.00    -0.389 OA
ATOM      9  H   UNL     1      -0.000  -0.000  -0.000  0.00  0.00    +0.210 HD
ENDBRANCH   6   8
BRANCH   1  10
ATOM     10  O   UNL     1      -0.000  -0.000   0.000  0.00  0.00    -0.348 OA
BRANCH  10  13
ATOM     11  C   UNL     1      -0.000  -0.000  -0.000  0.00  0.00    -0.002 C 
ATOM     12  C   UNL     1      -0.000  -0.000   0.000  0.00  0.00    +0.035 C 
ATOM     13  C   UNL     1      -0.000  -0.000  -0.000  0.00  0.00    +0.122 C 
ATOM     14  C   UNL     1      -0.000  -0.000   0.000  0.00  0.00    +0.032 C 
ATOM     15  C   UNL     1      -0.000  -0.000  -0.000  0.00  0.00    +0.010 C 
ATOM     16  C   UNL     1      -0.000  -0.000  -0.000  0.00  0.00    -0.026 C 
ATOM     17  C   UNL     1      -0.000  -0.000  -0.000  0.00  0.00    +0.012 C 
ATOM     18  C   UNL     1      -0.000  -0.000   0.000  0.00  0.00    +0.001 C 
ATOM     19  C   UNL     1      -0.000  -0.000  -0.000  0.00  0.00    +0.005 C 
ATOM     20  C   UNL     1      -0.000  -0.000  -0.000  0.00  0.00    +0.010 C 
ATOM     21  C   UNL     1      -0.000  -0.000   0.000  0.00  0.00    +0.004 C 
ATOM     22  C   UNL     1      -0.000  -0.000   0.000  0.00  0.00    +0.014 C 
ATOM     23  C   UNL     1      -0.000  -0.000  -0.000  0.00  0.00    +0.075 C 
ATOM     24  C   UNL     1      -0.000  -0.000   0.000  0.00  0.00    +0.036 C 
ATOM     25  C   UNL     1      -0.000  -0.000  -0.000  0.00  0.00    +0.011 C 
ATOM     26  C   UNL     1      -0.000  -0.000  -0.000  0.00  0.00    +0.027 C 
ATOM     27  C   UNL     1      -0.000  -0.000  -0.000  0.00  0.00    +0.025 C 
ATOM     28  C   UNL     1      -0.000  -0.000   0.000  0.00  0.00    +0.007 C 
ATOM     29  C   UNL     1      -0.000  -0.000   0.000  0.00  0.00    +0.004 C 
BRANCH  26  30
ATOM     30  C   UNL     1      -0.000  -0.000   0.000  0.00  0.00    -0.022 C 
ATOM     31  C   UNL     1      -0.000  -0.000   0.000  0.00  0.00    +0.264 C 
ATOM     32  O   UNL     1       0.000  -0.000   0.000  0.00  0.00    -0.457 OA
ATOM     33  C   UNL     1      -0.000  -0.000  -0.000  0.00  0.00    +0.332 C 
ATOM     34  O   UNL     1      -0.000  -0.000  -0.000  0.00  0.00    -0.246 OA
ATOM     35  C   UNL     1      -0.000  -0.000   0.000  0.00  0.00    +0.094 C 
ENDBRANCH  26  30
BRANCH  23  36
ATOM     36  O   UNL     1      -0.000  -0.000   0.000  0.00  0.00    -0.388 OA
ATOM     37  H   UNL     1       0.000   0.000   0.000  0.00  0.00    +0.210 HD
ENDBRANCH  23  36
ENDBRANCH  10  13
ENDBRANCH   1  10
BRANCH   5  38
ATOM     38  O   UNL     1      -0.000  -0.000  -0.000  0.00  0.00    -0.343 OA
BRANCH  38  39
ATOM     39  C   UNL     1      -0.000  -0.000  -0.000  0.00  0.00    +0.254 C 
ATOM     40  O   UNL     1      -0.000  -0.000  -0.000  0.00  0.00    -0.346 OA
ATOM     41  C   UNL     1      -0.000  -0.000  -0.000  0.00  0.00    +0.150 C 
ATOM     42  C   UNL     1      -0.000  -0.000  -0.000  0.00  0.00    +0.041 C 
ATOM     43  C   UNL     1      -0.000  -0.000  -0.000  0.00  0.00    +0.178 C 
ATOM     44  C   UNL     1      -0.000  -0.000  -0.000  0.00  0.00    +0.151 C 
ATOM     45  C   UNL     1      -0.000  -0.000  -0.000  0.00  0.00    +0.095 C 
BRANCH  44  46
ATOM     46  O   UNL     1      -0.000  -0.000  -0.000  0.00  0.00    -0.389 OA
ATOM     47  H   UNL     1      -0.000  -0.000  -0.000  0.00  0.00    +0.210 HD
ENDBRANCH  44  46
BRANCH  43  48
ATOM     48  O   UNL     1      -0.000  -0.000  -0.000  0.00  0.00    -0.343 OA
BRANCH  48  49
ATOM     49  C   UNL     1      -0.000  -0.000  -0.000  0.00  0.00    +0.254 C 
ATOM     50  O   UNL     1      -0.000  -0.000  -0.000  0.00  0.00    -0.346 OA
ATOM     51  C   UNL     1      -0.000  -0.000  -0.000  0.00  0.00    +0.149 C 
ATOM     52  C   UNL     1      -0.000  -0.000  -0.000  0.00  0.00    +0.041 C 
ATOM     53  C   UNL     1      -0.000  -0.000  -0.000  0.00  0.00    +0.172 C 
ATOM     54  C   UNL     1      -0.000  -0.000  -0.000  0.00  0.00    +0.150 C 
ATOM     55  C   UNL     1      -0.000  -0.000  -0.000  0.00  0.00    +0.095 C 
BRANCH  53  56
ATOM     56  O   UNL     1      -0.000  -0.000  -0.000  0.00  0.00    -0.387 OA
ATOM     57  H   UNL     1      -0.000  -0.000  -0.000  0.00  0.00    +0.210 HD
ENDBRANCH  53  56
BRANCH  54  58
ATOM     58  O   UNL     1      -0.000  -0.000  -0.000  0.00  0.00    -0.389 OA
ATOM     59  H   UNL     1      -0.000  -0.000  -0.000  0.00  0.00    +0.210 HD
ENDBRANCH  54  58
ENDBRANCH  48  49
ENDBRANCH  43  48
ENDBRANCH  38  39
ENDBRANCH   5  38
TORSDOF 12
