REMARK  Name = 
REMARK  9 active torsions:
REMARK  status: ('A' for Active; 'I' for Inactive)
REMARK    1  A    between atoms: C_1  and  C_2
REMARK    2  A    between atoms: C_2  and  C_3
REMARK    3  A    between atoms: C_3  and  C_5
REMARK    4  A    between atoms: N_16  and  C_17
REMARK    5  A    between atoms: C_17  and  C_18
REMARK    6  A    between atoms: C_18  and  N_19
REMARK    7  A    between atoms: N_22  and  C_23
REMARK    8  A    between atoms: C_23  and  C_24
REMARK    9  A    between atoms: C_24  and  O_25
REMARK                            x       y       z     vdW  Elec       q    Type
REMARK                         _______ _______ _______ _____ _____    ______ ____
ROOT
ATOM      1  C   UNL     1       4.717  -1.329  -0.453  0.00  0.00    +0.019 A 
ATOM      2  C   UNL     1       5.499  -0.227  -0.784  0.00  0.00    +0.012 A 
ATOM      3  C   UNL     1       6.878  -0.375  -0.859  0.00  0.00    +0.017 A 
ATOM      4  C   UNL     1       7.494  -1.621  -0.633  0.00  0.00    +0.034 A 
ATOM      5  S   UNL     1       9.256  -1.603  -0.802  0.00  0.00    -0.086 S 
ATOM      6  C   UNL     1       9.624  -3.332  -0.890  0.00  0.00    +0.034 A 
ATOM      7  C   UNL     1      10.919  -3.641  -1.368  0.00  0.00    +0.017 A 
ATOM      8  C   UNL     1      11.361  -4.956  -1.444  0.00  0.00    +0.001 A 
ATOM      9  C   UNL     1      10.531  -5.963  -0.993  0.00  0.00    +0.002 A 
ATOM     10  C   UNL     1       9.248  -5.650  -0.510  0.00  0.00    +0.024 A 
ATOM     11  C   UNL     1       8.723  -4.340  -0.504  0.00  0.00    +0.048 A 
ATOM     12  N   UNL     1       7.349  -4.059  -0.155  0.00  0.00    -0.297 N 
ATOM     13  C   UNL     1       6.736  -2.767  -0.314  0.00  0.00    +0.049 A 
ATOM     14  C   UNL     1       5.338  -2.566  -0.183  0.00  0.00    +0.036 A 
ENDROOT
BRANCH   1  15
ATOM     15  C   UNL     1       3.223  -1.237  -0.410  0.00  0.00    +0.163 C 
ATOM     16  O   UNL     1       2.566  -2.249  -0.168  0.00  0.00    -0.292 OA
BRANCH  15  18
ATOM     17  C   UNL     1       1.054   0.059  -0.623  0.00  0.00    +0.012 C 
ATOM     18  C   UNL     1       2.571   0.110  -0.687  0.00  0.00    +0.076 C 
ENDBRANCH  15  18
ENDBRANCH   1  15
BRANCH  12  19
ATOM     19  C   UNL     1       6.417  -5.216  -0.314  0.00  0.00    +0.126 C 
BRANCH  19  20
ATOM     20  C   UNL     1       6.006  -5.938   1.014  0.00  0.00    +0.104 C 
BRANCH  20  21
ATOM     21  N   UNL     1       5.093  -7.096   0.775  0.00  0.00    -0.298 NA
ATOM     22  C   UNL     1       4.792  -7.904   1.989  0.00  0.00    +0.100 C 
ATOM     23  C   UNL     1       5.842  -8.990   2.408  0.00  0.00    +0.100 C 
ATOM     24  N   UNL     1       6.586  -9.703   1.334  0.00  0.00    -0.298 NA
ATOM     25  C   UNL     1       6.861  -8.757   0.243  0.00  0.00    +0.100 C 
ATOM     26  C   UNL     1       5.594  -8.031  -0.244  0.00  0.00    +0.100 C 
BRANCH  24  27
ATOM     27  C   UNL     1       5.896 -10.917   0.847  0.00  0.00    +0.112 C 
BRANCH  27  28
ATOM     28  C   UNL     1       6.783 -11.699  -0.146  0.00  0.00    +0.171 C 
BRANCH  28  29
ATOM     29  O   UNL     1       8.062 -11.947   0.441  0.00  0.00    -0.394 OA
ATOM     30  H   UNL     1       8.219 -11.185   1.036  0.00  0.00    +0.209 HD
ENDBRANCH  28  29
ENDBRANCH  27  28
ENDBRANCH  24  27
ENDBRANCH  20  21
ENDBRANCH  19  20
ENDBRANCH  12  19
TORSDOF 8
