REMARK  Name = 
REMARK  2 active torsions:
REMARK  status: ('A' for Active; 'I' for Inactive)
REMARK    1  A    between atoms: O_1  and  C_2
REMARK    2  A    between atoms: C_2  and  C_3
REMARK                            x       y       z     vdW  Elec       q    Type
REMARK                         _______ _______ _______ _____ _____    ______ ____
ROOT
ATOM      1  C   UNL     1       2.928  -1.333   0.308  0.00  0.00    +0.054 A 
ATOM      2  C   UNL     1       2.271  -2.468  -0.177  0.00  0.00    +0.170 A 
ATOM      3  F   UNL     1       1.188  -2.326  -0.954  0.00  0.00    -0.202 F 
ATOM      4  C   UNL     1       2.714  -3.748   0.148  0.00  0.00    +0.197 A 
ATOM      5  F   UNL     1       2.058  -4.821  -0.317  0.00  0.00    -0.199 F 
ATOM      6  C   UNL     1       3.827  -3.911   0.959  0.00  0.00    +0.199 A 
ATOM      7  F   UNL     1       4.248  -5.143   1.281  0.00  0.00    -0.199 F 
ATOM      8  C   UNL     1       4.499  -2.798   1.442  0.00  0.00    +0.197 A 
ATOM      9  F   UNL     1       5.571  -2.952   2.231  0.00  0.00    -0.199 F 
ATOM     10  C   UNL     1       4.053  -1.520   1.116  0.00  0.00    +0.170 A 
ATOM     11  F   UNL     1       4.707  -0.454   1.599  0.00  0.00    -0.202 F 
ENDROOT
BRANCH   1  12
ATOM     12  C   UNL     1       2.474   0.039  -0.067  0.00  0.00    +0.197 C 
BRANCH  12  13
ATOM     13  O   UNL     1       3.160   0.425  -1.246  0.00  0.00    -0.390 OA
ATOM     14  H   UNL     1       2.890   1.338  -1.444  0.00  0.00    +0.210 HD
ENDBRANCH  12  13
ENDBRANCH   1  12
TORSDOF 2
