REMARK  Name = 
REMARK  12 active torsions:
REMARK  status: ('A' for Active; 'I' for Inactive)
REMARK    1  A    between atoms: N_3  and  C_4
REMARK    2  A    between atoms: C_9  and  C_11
REMARK    3  A    between atoms: C_11  and  O_13
REMARK    4  A    between atoms: O_13  and  C_14
REMARK    5  A    between atoms: C_14  and  O_15
REMARK    6  A    between atoms: O_15  and  C_16
REMARK    7  A    between atoms: C_16  and  C_18
REMARK    8  A    between atoms: C_18  and  C_19
REMARK    9  A    between atoms: C_18  and  C_20
REMARK   10  A    between atoms: C_18  and  C_21
REMARK   11  A    between atoms: C_22  and  C_23
REMARK   12  A    between atoms: C_22  and  C_24
REMARK                            x       y       z     vdW  Elec       q    Type
REMARK                         _______ _______ _______ _____ _____    ______ ____
ROOT
ATOM      1  C   UNL     1       2.030   2.372   0.070  0.00  0.00    +0.223 C 
ATOM      2  C   UNL     1       1.517   3.112  -1.197  0.00  0.00    +0.169 C 
ATOM      3  N   UNL     1       2.399   4.237  -0.836  0.00  0.00    -0.270 N 
ATOM      4  C   UNL     1       1.874   5.591  -1.019  0.00  0.00    +0.201 C 
ATOM      5  C   UNL     1       0.353   5.521  -0.726  0.00  0.00    +0.042 C 
ATOM      6  C   UNL     1       0.060   5.666   0.780  0.00  0.00    +0.025 C 
ATOM      7  C   UNL     1      -0.516   6.551  -1.460  0.00  0.00    +0.025 C 
ATOM      8  S   UNL     1      -0.177   3.818  -1.231  0.00  0.00    -0.127 S 
ATOM      9  C   UNL     1       2.694   3.739   0.402  0.00  0.00    +0.244 C 
ATOM     10  O   UNL     1       3.194   4.278   1.360  0.00  0.00    -0.273 OA
ENDROOT
BRANCH   1  19
ATOM     11  C   UNL     1       1.431   1.515   2.143  0.00  0.00    +0.179 C 
ATOM     12  N   UNL     1       0.699   0.950   3.165  0.00  0.00    -0.321 N 
ATOM     13  C   UNL     1      -0.755   0.823   3.050  0.00  0.00    +0.106 C 
ATOM     14  C   UNL     1      -1.149  -0.650   2.983  0.00  0.00    +0.019 C 
ATOM     15  C   UNL     1      -1.413  -1.278   4.351  0.00  0.00    +0.002 C 
ATOM     16  C   UNL     1      -0.461  -0.870   5.473  0.00  0.00    +0.002 C 
ATOM     17  C   UNL     1       0.993  -0.699   5.036  0.00  0.00    +0.019 C 
ATOM     18  C   UNL     1       1.304   0.693   4.473  0.00  0.00    +0.106 C 
ATOM     19  N   UNL     1       0.983   1.893   0.990  0.00  0.00    -0.261 NA
ENDBRANCH   1  19
BRANCH   4  20
ATOM     20  C   UNL     1       2.237   6.131  -2.418  0.00  0.00    +0.332 C 
ATOM     21  O   UNL     1       1.986   7.271  -2.791  0.00  0.00    -0.249 OA
BRANCH  20  22
ATOM     22  O   UNL     1       2.882   5.206  -3.178  0.00  0.00    -0.426 OA
BRANCH  22  23
ATOM     23  C   UNL     1       3.227   5.617  -4.502  0.00  0.00    +0.472 C 
BRANCH  23  24
ATOM     24  O   UNL     1       2.142   5.441  -5.414  0.00  0.00    -0.427 OA
BRANCH  24  25
ATOM     25  C   UNL     1       1.955   4.160  -5.833  0.00  0.00    +0.315 C 
ATOM     26  O   UNL     1       2.657   3.213  -5.500  0.00  0.00    -0.250 OA
BRANCH  25  27
ATOM     27  C   UNL     1       0.751   4.060  -6.773  0.00  0.00    +0.059 C 
ATOM     28  C   UNL     1      -0.517   4.499  -6.028  0.00  0.00    +0.022 C 
ATOM     29  C   UNL     1       0.584   2.602  -7.231  0.00  0.00    +0.022 C 
ATOM     30  C   UNL     1       0.980   4.947  -8.004  0.00  0.00    +0.022 C 
ENDBRANCH  25  27
ENDBRANCH  24  25
ENDBRANCH  23  24
ENDBRANCH  22  23
ENDBRANCH  20  22
ENDBRANCH   4  20
TORSDOF 7
