REMARK  Name = 
REMARK  1 active torsions:
REMARK  status: ('A' for Active; 'I' for Inactive)
REMARK    1  A    between atoms: C_15  and  C_16
REMARK                            x       y       z     vdW  Elec       q    Type
REMARK                         _______ _______ _______ _____ _____    ______ ____
ROOT
ATOM      1 CL   UNL     1       0.965   0.024  -0.003  0.00  0.00    -0.084 Cl
ATOM      2  C   UNL     1       2.685   0.037  -0.014  0.00  0.00    +0.042 A 
ATOM      3  C   UNL     1       3.365   1.241   0.141  0.00  0.00    +0.022 A 
ATOM      4  C   UNL     1       4.761   1.256   0.142  0.00  0.00    +0.028 A 
ATOM      5  C   UNL     1       5.480   0.057  -0.007  0.00  0.00    +0.058 A 
ATOM      6  N   UNL     1       6.889   0.096   0.105  0.00  0.00    -0.283 N 
ATOM      7  C   UNL     1       7.707  -0.897   0.589  0.00  0.00    +0.159 A 
ATOM      8  C   UNL     1       7.172  -2.174   1.109  0.00  0.00    +0.218 C 
ATOM      9  N   UNL     1       6.517  -2.912   0.044  0.00  0.00    -0.275 NA
ATOM     10  C   UNL     1       5.478  -2.446  -0.557  0.00  0.00    +0.075 C 
ATOM     11  N   UNL     1       8.955  -0.477   0.599  0.00  0.00    -0.132 NA
ATOM     12  N   UNL     1       8.970   0.814   0.135  0.00  0.00    -0.137 NA
ATOM     13  C   UNL     1       7.731   1.149  -0.139  0.00  0.00    +0.230 A 
ATOM     14  C   UNL     1       4.791  -1.156  -0.213  0.00  0.00    +0.026 A 
ATOM     15  C   UNL     1       3.385  -1.155  -0.191  0.00  0.00    +0.032 A 
ENDROOT
BRANCH  10  16
ATOM     16  C   UNL     1       4.968  -3.261  -1.712  0.00  0.00    +0.001 A 
ATOM     17  C   UNL     1       4.428  -2.658  -2.855  0.00  0.00    +0.010 A 
ATOM     18  C   UNL     1       4.051  -3.443  -3.948  0.00  0.00    +0.001 A 
ATOM     19  C   UNL     1       4.222  -4.827  -3.910  0.00  0.00    +0.000 A 
ATOM     20  C   UNL     1       4.763  -5.433  -2.777  0.00  0.00    +0.001 A 
ATOM     21  C   UNL     1       5.137  -4.653  -1.682  0.00  0.00    +0.010 A 
ENDBRANCH  10  16
TORSDOF 1
