REMARK  Name = 
REMARK  10 active torsions:
REMARK  status: ('A' for Active; 'I' for Inactive)
REMARK    1  A    between atoms: O_1  and  C_2
REMARK    2  A    between atoms: C_2  and  C_4
REMARK    3  A    between atoms: C_4  and  C_5
REMARK    4  A    between atoms: C_5  and  N_6
REMARK    5  A    between atoms: C_7  and  C_9
REMARK    6  A    between atoms: C_12  and  N_15
REMARK    7  A    between atoms: N_16  and  C_17
REMARK    8  A    between atoms: C_20  and  O_21
REMARK    9  A    between atoms: C_22  and  C_24
REMARK   10  A    between atoms: C_24  and  O_25
REMARK                            x       y       z     vdW  Elec       q    Type
REMARK                         _______ _______ _______ _____ _____    ______ ____
ROOT
ATOM      1  C   UNL     1       7.657  -3.195   1.895  0.00  0.00    +0.037 A 
ATOM      2  C   UNL     1       7.154  -4.495   1.773  0.00  0.00    +0.015 A 
ATOM      3  C   UNL     1       7.867  -5.577   2.310  0.00  0.00    +0.030 A 
ATOM      4  C   UNL     1       9.077  -5.386   2.998  0.00  0.00    +0.086 A 
ATOM      5  C   UNL     1       9.552  -4.077   3.139  0.00  0.00    +0.030 A 
ATOM      6  C   UNL     1       8.849  -2.990   2.601  0.00  0.00    +0.015 A 
ENDROOT
BRANCH   1   9
ATOM      7  N   UNL     1       6.142  -2.250   0.222  0.00  0.00    -0.311 N 
ATOM      8  H   UNL     1       6.143  -3.168  -0.206  0.00  0.00    +0.149 HD
ATOM      9  C   UNL     1       6.970  -2.010   1.301  0.00  0.00    +0.244 C 
ATOM     10  O   UNL     1       7.178  -0.886   1.743  0.00  0.00    -0.270 OA
BRANCH   7  11
ATOM     11  C   UNL     1       5.467  -1.169  -0.467  0.00  0.00    +0.115 C 
BRANCH  11  12
ATOM     12  C   UNL     1       4.221  -1.628  -1.204  0.00  0.00    +0.139 C 
BRANCH  12  13
ATOM     13  C   UNL     1       3.220  -2.223  -0.252  0.00  0.00    +0.306 C 
ATOM     14  O   UNL     1       3.183  -3.414   0.024  0.00  0.00    -0.251 OA
BRANCH  13  15
ATOM     15  O   UNL     1       2.365  -1.326   0.282  0.00  0.00    -0.481 OA
ATOM     16  H   UNL     1       2.513  -0.401   0.008  0.00  0.00    +0.295 HD
ENDBRANCH  13  15
ENDBRANCH  12  13
ENDBRANCH  11  12
ENDBRANCH   7  11
ENDBRANCH   1   9
BRANCH   4  17
ATOM     17  N   UNL     1       9.867  -6.449   3.497  0.00  0.00    -0.149 NA
ATOM     18  N   UNL     1       9.172  -7.412   3.880  0.00  0.00    -0.149 NA
BRANCH  18  19
ATOM     19  C   UNL     1       9.929  -8.531   4.290  0.00  0.00    +0.087 A 
ATOM     20  C   UNL     1       9.354  -9.396   5.227  0.00  0.00    +0.048 A 
ATOM     21  C   UNL     1       9.997 -10.580   5.631  0.00  0.00    +0.102 A 
ATOM     22  C   UNL     1      11.244 -10.894   5.078  0.00  0.00    +0.131 A 
ATOM     23  C   UNL     1      11.840 -10.042   4.147  0.00  0.00    +0.048 A 
ATOM     24  C   UNL     1      11.181  -8.871   3.754  0.00  0.00    +0.033 A 
BRANCH  21  25
ATOM     25  C   UNL     1       9.280 -11.437   6.622  0.00  0.00    +0.340 C 
ATOM     26  O   UNL     1       8.198 -11.124   7.095  0.00  0.00    -0.245 OA
BRANCH  25  27
ATOM     27  O   UNL     1       9.904 -12.586   6.954  0.00  0.00    -0.477 OA
ATOM     28  H   UNL     1      10.766 -12.692   6.494  0.00  0.00    +0.295 HD
ENDBRANCH  25  27
ENDBRANCH  21  25
BRANCH  22  29
ATOM     29  O   UNL     1      11.886 -12.052   5.436  0.00  0.00    -0.506 OA
ATOM     30  H   UNL     1      12.723 -12.116   4.937  0.00  0.00    +0.292 HD
ENDBRANCH  22  29
ENDBRANCH  18  19
ENDBRANCH   4  17
TORSDOF 10
