REMARK  Name = 
REMARK  6 active torsions:
REMARK  status: ('A' for Active; 'I' for Inactive)
REMARK    1  A    between atoms: C_1  and  C_2
REMARK    2  A    between atoms: C_9  and  C_10
REMARK    3  A    between atoms: C_13  and  N_14
REMARK    4  A    between atoms: N_14  and  C_15
REMARK    5  A    between atoms: C_16  and  C_17
REMARK    6  A    between atoms: C_17  and  C_18
REMARK                            x       y       z     vdW  Elec       q    Type
REMARK                         _______ _______ _______ _____ _____    ______ ____
ROOT
ATOM      1  N   UNL     1       1.547  -6.067   2.009  0.00  0.00    -0.317 N 
ATOM      2  H   UNL     1       1.354  -5.278   1.389  0.00  0.00    +0.152 HD
ENDROOT
BRANCH   1   3
ATOM      3  C   UNL     1       0.346  -6.459   2.633  0.00  0.00    +0.015 C 
ATOM      4  C   UNL     1      -0.520  -5.290   3.062  0.00  0.00    +0.051 C 
ATOM      5  C   UNL     1      -1.804  -5.561   3.830  0.00  0.00    +0.014 C 
ATOM      6  C   UNL     1      -2.157  -7.000   4.121  0.00  0.00    +0.080 C 
ATOM      7  C   UNL     1      -1.333  -8.071   3.463  0.00  0.00    +0.161 C 
ATOM      8  O   UNL     1      -1.679  -9.246   3.606  0.00  0.00    -0.292 OA
ATOM      9  C   UNL     1      -0.074  -7.741   2.727  0.00  0.00    +0.016 C 
BRANCH   9  10
ATOM     10  C   UNL     1       0.695  -8.949   2.241  0.00  0.00    +0.075 C 
BRANCH  10  11
ATOM     11  C   UNL     1       0.309  -9.531   0.890  0.00  0.00    -0.042 A 
ATOM     12  C   UNL     1      -0.789 -10.396   0.734  0.00  0.00    +0.018 A 
ATOM     13  C   UNL     1      -0.985 -11.080  -0.472  0.00  0.00    +0.014 A 
ATOM     14  I   UNL     1      -2.608 -12.366  -0.702  0.00  0.00    -0.044 I 
ATOM     15  C   UNL     1      -0.086 -10.930  -1.527  0.00  0.00    +0.014 A 
ATOM     16  C   UNL     1       0.976 -10.036  -1.399  0.00  0.00    +0.001 A 
ATOM     17  C   UNL     1       1.153  -9.321  -0.212  0.00  0.00    +0.004 A 
ENDBRANCH  10  11
ENDBRANCH   9  10
ENDBRANCH   1   3
BRANCH   1  21
ATOM     18  C   UNL     1       5.213  -5.093   4.002  0.00  0.00    -0.002 A 
ATOM     19  C   UNL     1       4.819  -4.425   2.840  0.00  0.00    +0.011 A 
ATOM     20  C   UNL     1       3.602  -4.748   2.213  0.00  0.00    +0.024 A 
ATOM     21  C   UNL     1       2.737  -5.729   2.734  0.00  0.00    +0.031 A 
ATOM     22  C   UNL     1       3.161  -6.421   3.873  0.00  0.00    +0.024 A 
ATOM     23  C   UNL     1       4.385  -6.109   4.497  0.00  0.00    +0.011 A 
BRANCH  18  26
ATOM     24  C   UNL     1       5.845  -2.364   5.360  0.00  0.00    +0.014 C 
ATOM     25  C   UNL     1       6.921  -3.254   4.730  0.00  0.00    +0.046 C 
ATOM     26  C   UNL     1       6.452  -4.707   4.777  0.00  0.00    +0.070 C 
ATOM     27  N   UNL     1       7.014  -5.609   5.524  0.00  0.00    -0.184 NA
ATOM     28  N   UNL     1       8.068  -5.272   6.307  0.00  0.00    -0.207 N 
ATOM     29  H   UNL     1       8.404  -5.994   6.939  0.00  0.00    +0.177 HD
ATOM     30  C   UNL     1       8.677  -4.058   6.409  0.00  0.00    +0.233 C 
ATOM     31  O   UNL     1       9.565  -3.848   7.233  0.00  0.00    -0.274 OA
ATOM     32  C   UNL     1       8.266  -3.015   5.406  0.00  0.00    +0.107 C 
ENDBRANCH  18  26
ENDBRANCH   1  21
TORSDOF 5
