REMARK  Name = 
REMARK  17 active torsions:
REMARK  status: ('A' for Active; 'I' for Inactive)
REMARK    1  A    between atoms: C_1  and  O_2
REMARK    2  A    between atoms: O_2  and  C_3
REMARK    3  A    between atoms: C_8  and  C_9
REMARK    4  A    between atoms: C_12  and  C_13
REMARK    5  A    between atoms: C_14  and  O_15
REMARK    6  A    between atoms: C_17  and  O_18
REMARK    7  A    between atoms: C_23  and  C_24
REMARK    8  A    between atoms: C_28  and  C_30
REMARK    9  A    between atoms: C_31  and  O_33
REMARK   10  A    between atoms: C_34  and  C_36
REMARK   11  A    between atoms: C_37  and  O_39
REMARK   12  A    between atoms: C_40  and  C_42
REMARK   13  A    between atoms: C_43  and  O_45
REMARK   14  A    between atoms: O_45  and  C_46
REMARK   15  A    between atoms: C_46  and  C_47
REMARK   16  A    between atoms: C_49  and  C_51
REMARK   17  A    between atoms: C_57  and  C_58
REMARK                            x       y       z     vdW  Elec       q    Type
REMARK                         _______ _______ _______ _____ _____    ______ ____
ROOT
ATOM      1  C   UNL     1      14.593 -17.348   0.841  0.00  0.00    +0.150 C 
ATOM      2  C   UNL     1      15.702 -15.382   1.568  0.00  0.00    +0.060 C 
ATOM      3  C   UNL     1      13.727 -15.618   1.201  0.00  0.00    +0.014 C 
ATOM      4  C   UNL     1      17.004 -13.620   2.491  0.00  0.00    +0.187 C 
ATOM      5  C   UNL     1      17.850 -11.593   3.240  0.00  0.00    +0.056 C 
ATOM      6  C   UNL     1      18.446 -10.883   4.954  0.00  0.00    +0.014 C 
ATOM      7  C   UNL     1      18.941  -9.684   3.276  0.00  0.00    +0.126 C 
ATOM      8  C   UNL     1      19.557  -7.861   4.368  0.00  0.00    +0.044 C 
ATOM      9  C   UNL     1      19.449  -6.112   5.337  0.00  0.00    +0.013 C 
ATOM     10  C   UNL     1      18.255  -7.509   4.843  0.00  0.00    +0.126 C 
ATOM     11  C   UNL     1      17.080  -6.956   4.167  0.00  0.00    +0.037 C 
ATOM     12  C   UNL     1      17.649  -6.419   2.741  0.00  0.00    +0.014 C 
ATOM     13  C   UNL     1      16.398  -8.245   4.529  0.00  0.00    -0.021 C 
ATOM     14  C   UNL     1      15.510  -8.896   3.857  0.00  0.00    -0.003 C 
ATOM     15  C   UNL     1      15.415 -10.242   4.287  0.00  0.00    +0.008 C 
ATOM     16  C   UNL     1      15.132 -11.117   3.358  0.00  0.00    +0.012 C 
ATOM     17  C   UNL     1      14.013 -10.803   2.595  0.00  0.00    +0.049 C 
ATOM     18  C   UNL     1      14.811 -12.502   3.680  0.00  0.00    +0.244 C 
ATOM     19  O   UNL     1      15.443 -12.950   4.633  0.00  0.00    -0.270 OA
ATOM     20  N   UNL     1      13.554 -12.919   2.809  0.00  0.00    -0.277 N 
ATOM     21  H   UNL     1      12.939 -12.297   2.282  0.00  0.00    +0.155 HD
ATOM     22  C   UNL     1      12.749 -13.963   2.992  0.00  0.00    +0.103 A 
ATOM     23  C   UNL     1      11.450 -14.031   2.384  0.00  0.00    +0.099 A 
ATOM     24  N   UNL     1      10.478 -13.260   1.731  0.00  0.00    -0.298 N 
ATOM     25  C   UNL     1       9.396 -14.116   1.461  0.00  0.00    +0.139 A 
ATOM     26  C   UNL     1       8.193 -13.555   0.924  0.00  0.00    +0.050 A 
ATOM     27  C   UNL     1       8.047 -12.216   0.849  0.00  0.00    -0.046 A 
ATOM     28  C   UNL     1       9.160 -11.339   1.202  0.00  0.00    +0.021 A 
ATOM     29  C   UNL     1       6.757 -11.573   0.434  0.00  0.00    +0.044 C 
ATOM     30  N   UNL     1       9.596 -15.298   2.002  0.00  0.00    -0.227 NA
ATOM     31  C   UNL     1      10.339 -11.870   1.584  0.00  0.00    +0.093 A 
ATOM     32  C   UNL     1      10.833 -15.232   2.627  0.00  0.00    +0.101 A 
ATOM     33  C   UNL     1      11.661 -16.157   3.370  0.00  0.00    +0.031 A 
ATOM     34  C   UNL     1      11.380 -17.396   3.108  0.00  0.00    +0.077 A 
ATOM     35  C   UNL     1      10.830 -17.858   1.866  0.00  0.00    +0.250 C 
ATOM     36  O   UNL     1      10.618 -17.317   0.794  0.00  0.00    -0.284 OA
ATOM     37  C   UNL     1      10.578 -19.255   2.329  0.00  0.00    +0.314 C 
ATOM     38  O   UNL     1      11.248 -19.504   3.564  0.00  0.00    -0.444 OA
ATOM     39  C   UNL     1       9.091 -19.107   2.179  0.00  0.00    +0.114 C 
ATOM     40  O   UNL     1      10.990 -20.414   1.813  0.00  0.00    -0.453 OA
ATOM     41  C   UNL     1      12.235 -20.090   1.162  0.00  0.00    +0.190 C 
ATOM     42  C   UNL     1      12.131 -18.482   3.594  0.00  0.00    +0.143 A 
ATOM     43  C   UNL     1      13.513 -18.498   3.857  0.00  0.00    +0.034 A 
ATOM     44  C   UNL     1      13.933 -17.234   4.112  0.00  0.00    +0.135 A 
ATOM     45  C   UNL     1      14.533 -19.618   3.554  0.00  0.00    +0.051 C 
ATOM     46  C   UNL     1      12.966 -16.114   3.942  0.00  0.00    +0.070 A 
ATOM     47  C   UNL     1      13.449 -14.913   3.730  0.00  0.00    +0.151 A 
ATOM     48  C   UNL     1      13.368 -18.963   1.258  0.00  0.00    +0.042 C 
ENDROOT
BRANCH   1  50
ATOM     49  C   UNL     1      11.769 -19.023  -1.054  0.00  0.00    +0.194 C 
ATOM     50  O   UNL     1      13.279 -17.910  -0.571  0.00  0.00    -0.375 OA
ENDBRANCH   1  50
BRANCH   7  51
ATOM     51  O   UNL     1      20.315  -8.996   2.493  0.00  0.00    -0.391 OA
ATOM     52  H   UNL     1      20.901  -8.482   3.184  0.00  0.00    +0.210 HD
ENDBRANCH   7  51
BRANCH  10  53
ATOM     53  O   UNL     1      18.184  -7.858   6.231  0.00  0.00    -0.391 OA
ATOM     54  H   UNL     1      19.034  -7.696   6.684  0.00  0.00    +0.210 HD
ENDBRANCH  10  53
BRANCH  44  55
ATOM     55  O   UNL     1      15.309 -17.009   4.199  0.00  0.00    -0.506 OA
ATOM     56  H   UNL     1      15.858 -17.718   3.801  0.00  0.00    +0.292 HD
ENDBRANCH  44  55
BRANCH  47  57
ATOM     57  O   UNL     1      14.780 -14.731   3.787  0.00  0.00    -0.504 OA
ATOM     58  H   UNL     1      15.359 -15.426   4.116  0.00  0.00    +0.292 HD
ENDBRANCH  47  57
BRANCH   4  59
ATOM     59  O   UNL     1      18.980 -13.107   2.812  0.00  0.00    -0.461 OA
BRANCH  59  60
ATOM     60  C   UNL     1      20.257 -12.311   3.852  0.00  0.00    +0.304 C 
ATOM     61  O   UNL     1      20.226 -12.614   5.079  0.00  0.00    -0.251 OA
ATOM     62  C   UNL     1      21.708 -10.912   3.908  0.00  0.00    +0.136 C 
ENDBRANCH  59  60
ENDBRANCH   4  59
TORSDOF 7
