REMARK  Name = 
REMARK  3 active torsions:
REMARK  status: ('A' for Active; 'I' for Inactive)
REMARK    1  A    between atoms: C_1  and  O_2
REMARK    2  A    between atoms: O_2  and  C_3
REMARK    3  A    between atoms: C_8  and  C_9
REMARK                            x       y       z     vdW  Elec       q    Type
REMARK                         _______ _______ _______ _____ _____    ______ ____
ROOT
ATOM      1  C   UNL     1       3.099  -0.939  -0.927  0.00  0.00    +0.196 A 
ATOM      2  C   UNL     1       2.894  -2.317  -0.950  0.00  0.00    +0.204 A 
ATOM      3  F   UNL     1       2.102  -2.913  -0.047  0.00  0.00    -0.198 F 
ATOM      4  C   UNL     1       3.526  -3.122  -1.900  0.00  0.00    +0.177 A 
ATOM      5  F   UNL     1       3.281  -4.440  -1.858  0.00  0.00    -0.201 F 
ATOM      6  C   UNL     1       4.387  -2.572  -2.853  0.00  0.00    +0.113 A 
ATOM      7  C   UNL     1       4.610  -1.196  -2.815  0.00  0.00    +0.177 A 
ATOM      8  F   UNL     1       5.430  -0.603  -3.699  0.00  0.00    -0.201 F 
ATOM      9  C   UNL     1       3.981  -0.395  -1.861  0.00  0.00    +0.204 A 
ATOM     10  F   UNL     1       4.221   0.925  -1.865  0.00  0.00    -0.198 F 
ENDROOT
BRANCH   6  11
ATOM     11  C   UNL     1       5.024  -3.455  -3.860  0.00  0.00    +0.247 C 
ATOM     12  O   UNL     1       4.824  -4.661  -3.889  0.00  0.00    -0.270 OA
ATOM     13  N   UNL     1       5.857  -2.891  -4.784  0.00  0.00    -0.325 N 
ATOM     14  H   UNL     1       6.282  -3.508  -5.465  0.00  0.00    +0.145 HD
ATOM     15  H   UNL     1       6.076  -1.903  -4.827  0.00  0.00    +0.145 HD
ENDBRANCH   6  11
BRANCH   1  17
ATOM     16  C   UNL     1       1.248  -0.394   0.447  0.00  0.00    +0.277 C 
ATOM     17  O   UNL     1       2.549  -0.062  -0.032  0.00  0.00    -0.489 OA
ENDBRANCH   1  17
TORSDOF 2
