REMARK  Name = 
REMARK  4 active torsions:
REMARK  status: ('A' for Active; 'I' for Inactive)
REMARK    1  A    between atoms: C_2  and  C_5
REMARK    2  A    between atoms: C_10  and  C_11
REMARK    3  A    between atoms: C_14  and  C_15
REMARK    4  A    between atoms: C_15  and  C_16
REMARK                            x       y       z     vdW  Elec       q    Type
REMARK                         _______ _______ _______ _____ _____    ______ ____
ROOT
ATOM      1  C   UNL     1       2.828  -2.719  -1.028  0.00  0.00    +0.136 A 
ATOM      2  O   UNL     1       2.327  -2.553   0.237  0.00  0.00    -0.460 OA
ATOM      3  C   UNL     1       2.126  -3.798   0.770  0.00  0.00    +0.107 A 
ATOM      4  C   UNL     1       2.497  -4.766  -0.134  0.00  0.00    +0.045 A 
ATOM      5  C   UNL     1       2.956  -4.079  -1.275  0.00  0.00    +0.050 A 
ENDROOT
BRANCH   1   7
ATOM      6  C   UNL     1       2.931  -0.185  -1.501  0.00  0.00    +0.065 A 
ATOM      7  C   UNL     1       3.091  -1.540  -1.873  0.00  0.00    +0.029 A 
ATOM      8  C   UNL     1       3.526  -1.800  -3.196  0.00  0.00    +0.012 A 
ATOM      9  C   UNL     1       3.782  -0.789  -4.123  0.00  0.00    +0.001 A 
ATOM     10  C   UNL     1       3.606   0.532  -3.757  0.00  0.00    +0.001 A 
ATOM     11  C   UNL     1       3.187   0.830  -2.462  0.00  0.00    +0.013 A 
BRANCH   6  13
ATOM     12  F   UNL     1       2.437   1.634  -0.017  0.00  0.00    -0.166 F 
ATOM     13  C   UNL     1       2.524   0.268  -0.115  0.00  0.00    +0.418 C 
ATOM     14  F   UNL     1       1.299  -0.176   0.277  0.00  0.00    -0.166 F 
ATOM     15  F   UNL     1       3.410  -0.087   0.857  0.00  0.00    -0.166 F 
ENDBRANCH   6  13
ENDBRANCH   1   7
BRANCH   3  16
ATOM     16  C   UNL     1       1.540  -3.888   2.136  0.00  0.00    +0.096 C 
BRANCH  16  17
ATOM     17  C   UNL     1       2.391  -4.723   3.101  0.00  0.00    +0.168 C 
ATOM     18  C   UNL     1       1.578  -4.952   4.349  0.00  0.00    +0.231 C 
ATOM     19  O   UNL     1       0.787  -5.885   4.463  0.00  0.00    -0.275 OA
ATOM     20  N   UNL     1       1.709  -4.012   5.337  0.00  0.00    -0.267 N 
ATOM     21  H   UNL     1       1.097  -4.113   6.138  0.00  0.00    +0.157 HD
ATOM     22  C   UNL     1       2.727  -3.113   5.429  0.00  0.00    +0.143 C 
ATOM     23  S   UNL     1       2.851  -2.080   6.723  0.00  0.00    -0.018 S 
ATOM     24  N   UNL     1       3.661  -3.127   4.439  0.00  0.00    -0.267 N 
ATOM     25  H   UNL     1       4.508  -2.590   4.583  0.00  0.00    +0.157 HD
ATOM     26  C   UNL     1       3.688  -4.016   3.399  0.00  0.00    +0.231 C 
ATOM     27  O   UNL     1       4.719  -4.203   2.753  0.00  0.00    -0.275 OA
ENDBRANCH  16  17
ENDBRANCH   3  16
TORSDOF 4
