REMARK  Name = 
REMARK  1 active torsions:
REMARK  status: ('A' for Active; 'I' for Inactive)
REMARK    1  A    between atoms: C_7  and  C_8
REMARK                            x       y       z     vdW  Elec       q    Type
REMARK                         _______ _______ _______ _____ _____    ______ ____
ROOT
ATOM      1  C   UNL     1      -0.000  -0.000   0.000  0.00  0.00    +0.006 C 
ATOM      2  C   UNL     1      -0.000  -0.000  -0.000  0.00  0.00    -0.003 C 
ATOM      3  C   UNL     1      -0.000  -0.000   0.000  0.00  0.00    -0.000 C 
ATOM      4  C   UNL     1      -0.000  -0.000   0.000  0.00  0.00    +0.019 C 
ATOM      5  C   UNL     1      -0.000  -0.000   0.000  0.00  0.00    -0.063 C 
ATOM      6  C   UNL     1      -0.000  -0.000   0.000  0.00  0.00    +0.031 C 
ATOM      7  C   UNL     1      -0.000  -0.000   0.000  0.00  0.00    +0.045 C 
ATOM      8  C   UNL     1      -0.000  -0.000   0.000  0.00  0.00    +0.156 C 
ATOM      9  O   UNL     1      -0.000  -0.000   0.000  0.00  0.00    -0.293 OA
ATOM     10  C   UNL     1      -0.000  -0.000   0.000  0.00  0.00    +0.079 C 
ATOM     11  C   UNL     1      -0.000  -0.000   0.000  0.00  0.00    +0.016 C 
ATOM     12  C   UNL     1      -0.000  -0.000   0.000  0.00  0.00    +0.005 C 
ATOM     13  C   UNL     1      -0.000  -0.000   0.000  0.00  0.00    +0.015 C 
ATOM     14  C   UNL     1      -0.000  -0.000   0.000  0.00  0.00    +0.008 C 
ATOM     15  C   UNL     1      -0.000  -0.000   0.000  0.00  0.00    +0.029 C 
ATOM     16  C   UNL     1      -0.000  -0.000  -0.000  0.00  0.00    +0.019 C 
ATOM     17  C   UNL     1      -0.000  -0.000   0.000  0.00  0.00    +0.139 C 
ATOM     18  O   UNL     1      -0.000  -0.000   0.000  0.00  0.00    -0.297 OA
ATOM     19  C   UNL     1      -0.000  -0.000   0.000  0.00  0.00    +0.075 C 
ATOM     20  C   UNL     1      -0.000  -0.000  -0.000  0.00  0.00    +0.012 C 
ENDROOT
TORSDOF 0
