REMARK  Name = 
REMARK  5 active torsions:
REMARK  status: ('A' for Active; 'I' for Inactive)
REMARK    1  A    between atoms: C_1  and  C_2
REMARK    2  A    between atoms: C_9  and  C_10
REMARK    3  A    between atoms: C_10  and  O_11
REMARK    4  A    between atoms: C_19  and  N_20
REMARK    5  A    between atoms: N_23  and  C_24
REMARK                            x       y       z     vdW  Elec       q    Type
REMARK                         _______ _______ _______ _____ _____    ______ ____
ROOT
ATOM      1  C   UNL     1       0.961  -0.022   0.066  0.00  0.00    +0.034 C 
ATOM      2  C   UNL     1       2.497  -0.038  -0.002  0.00  0.00    +0.122 C 
ATOM      3  N   UNL     1       2.964  -1.275  -0.643  0.00  0.00    -0.337 N 
ATOM      4  C   UNL     1       2.684  -2.532  -0.120  0.00  0.00    +0.105 A 
ATOM      5  C   UNL     1       3.032  -3.711  -0.651  0.00  0.00    +0.122 A 
ATOM      6  C   UNL     1       3.806  -3.668  -1.905  0.00  0.00    +0.204 A 
ATOM      7  C   UNL     1       4.184  -2.345  -2.450  0.00  0.00    +0.052 A 
ATOM      8  C   UNL     1       4.975  -2.306  -3.592  0.00  0.00    +0.054 A 
ATOM      9  C   UNL     1       5.388  -1.079  -4.082  0.00  0.00    +0.149 A 
ATOM     10  C   UNL     1       5.048   0.145  -3.465  0.00  0.00    +0.110 A 
ATOM     11  C   UNL     1       4.231   0.060  -2.296  0.00  0.00    +0.168 A 
ATOM     12  O   UNL     1       3.954   1.237  -1.663  0.00  0.00    -0.486 OA
ATOM     13  F   UNL     1       6.211  -1.102  -5.144  0.00  0.00    -0.203 F 
ATOM     14  O   UNL     1       4.140  -4.716  -2.455  0.00  0.00    -0.286 OA
ATOM     15  C   UNL     1       3.774  -1.171  -1.789  0.00  0.00    +0.097 A 
ATOM     16  C   UNL     1       2.954   1.267  -0.665  0.00  0.00    +0.254 C 
ENDROOT
BRANCH  10  17
ATOM     17  N   UNL     1       5.564   1.336  -3.973  0.00  0.00    -0.322 N 
ATOM     18  C   UNL     1       5.516   1.616  -5.421  0.00  0.00    +0.120 C 
ATOM     19  C   UNL     1       6.796   2.372  -5.851  0.00  0.00    +0.103 C 
ATOM     20  N   UNL     1       7.092   3.603  -5.077  0.00  0.00    -0.302 NA
ATOM     21  C   UNL     1       6.160   4.680  -5.400  0.00  0.00    +0.105 C 
ATOM     22  C   UNL     1       7.060   3.277  -3.634  0.00  0.00    +0.103 C 
ATOM     23  C   UNL     1       5.803   2.521  -3.138  0.00  0.00    +0.120 C 
ENDBRANCH  10  17
BRANCH   5  24
ATOM     24  C   UNL     1       2.627  -4.965   0.017  0.00  0.00    +0.342 C 
ATOM     25  O   UNL     1       1.976  -4.989   1.052  0.00  0.00    -0.245 OA
BRANCH  24  26
ATOM     26  O   UNL     1       3.028  -6.092  -0.607  0.00  0.00    -0.477 OA
ATOM     27  H   UNL     1       3.540  -5.934  -1.438  0.00  0.00    +0.295 HD
ENDBRANCH  24  26
ENDBRANCH   5  24
TORSDOF 3
