REMARK  Name = 
REMARK  26 active torsions:
REMARK  status: ('A' for Active; 'I' for Inactive)
REMARK    1  A    between atoms: C_1  and  C_2
REMARK    2  A    between atoms: C_2  and  N_3
REMARK    3  A    between atoms: C_4  and  C_6
REMARK    4  A    between atoms: C_6  and  C_7
REMARK    5  A    between atoms: C_7  and  N_8
REMARK    6  A    between atoms: C_9  and  C_11
REMARK    7  A    between atoms: C_11  and  O_13
REMARK    8  A    between atoms: C_11  and  C_14
REMARK    9  A    between atoms: C_14  and  C_15
REMARK   10  A    between atoms: C_14  and  C_16
REMARK   11  A    between atoms: C_14  and  C_17
REMARK   12  A    between atoms: C_17  and  O_18
REMARK   13  A    between atoms: O_18  and  P_19
REMARK   14  A    between atoms: P_19  and  O_20
REMARK   15  A    between atoms: P_19  and  O_22
REMARK   16  A    between atoms: O_22  and  P_23
REMARK   17  A    between atoms: P_23  and  O_24
REMARK   18  A    between atoms: P_23  and  O_26
REMARK   19  A    between atoms: O_26  and  C_27
REMARK   20  A    between atoms: C_27  and  C_28
REMARK   21  A    between atoms: C_31  and  N_43
REMARK   22  A    between atoms: C_33  and  O_35
REMARK   23  A    between atoms: C_36  and  O_38
REMARK   24  A    between atoms: O_38  and  P_39
REMARK   25  A    between atoms: P_39  and  O_40
REMARK   26  A    between atoms: P_39  and  O_41
REMARK                            x       y       z     vdW  Elec       q    Type
REMARK                         _______ _______ _______ _____ _____    ______ ____
ROOT
ATOM      1  P   UNL     1      20.426 -12.263  -5.374  0.00  0.00    +0.483 P 
ATOM      2  O   UNL     1      19.224 -11.733  -4.662  0.00  0.00    -0.227 OA
ENDROOT
BRANCH   1   3
ATOM      3  O   UNL     1      21.207 -13.314  -4.431  0.00  0.00    -0.302 OA
ATOM      4  H   UNL     1      21.984 -13.713  -4.880  0.00  0.00    +0.222 HD
ENDBRANCH   1   3
BRANCH   1   5
ATOM      5  O   UNL     1      20.123 -13.305  -6.582  0.00  0.00    -0.284 OA
BRANCH   5   6
ATOM      6  C   UNL     1      18.769 -13.585  -6.986  0.00  0.00    +0.206 C 
BRANCH   6   7
ATOM      7  C   UNL     1      18.047 -14.971  -6.741  0.00  0.00    +0.179 C 
ATOM      8  C   UNL     1      18.813 -16.290  -6.896  0.00  0.00    +0.194 C 
ATOM      9  C   UNL     1      18.769 -16.954  -5.521  0.00  0.00    +0.196 C 
ATOM     10  C   UNL     1      18.061 -15.939  -4.619  0.00  0.00    +0.253 C 
ATOM     11  O   UNL     1      17.351 -15.027  -5.471  0.00  0.00    -0.346 OA
BRANCH  10  12
ATOM     12  N   UNL     1      17.179 -16.573  -3.640  0.00  0.00    -0.286 N 
ATOM     13  C   UNL     1      17.618 -17.402  -2.644  0.00  0.00    +0.167 A 
ATOM     14  N   UNL     1      18.880 -17.823  -2.431  0.00  0.00    -0.216 NA
ATOM     15  C   UNL     1      18.938 -18.619  -1.336  0.00  0.00    +0.225 A 
ATOM     16  N   UNL     1      17.941 -18.976  -0.507  0.00  0.00    -0.219 NA
ATOM     17  C   UNL     1      16.697 -18.517  -0.751  0.00  0.00    +0.147 A 
ATOM     18  N   UNL     1      15.673 -18.893   0.117  0.00  0.00    -0.341 N 
ATOM     19  H   UNL     1      14.744 -18.811  -0.275  0.00  0.00    +0.144 HD
ATOM     20  H   UNL     1      15.895 -19.727   0.646  0.00  0.00    +0.144 HD
ATOM     21  C   UNL     1      16.500 -17.699  -1.886  0.00  0.00    +0.147 A 
ATOM     22  N   UNL     1      15.374 -17.116  -2.440  0.00  0.00    -0.231 NA
ATOM     23  C   UNL     1      15.822 -16.448  -3.488  0.00  0.00    +0.203 A 
ENDBRANCH  10  12
BRANCH   9  24
ATOM     24  O   UNL     1      20.100 -17.220  -5.068  0.00  0.00    -0.385 OA
ATOM     25  H   UNL     1      20.011 -17.648  -4.189  0.00  0.00    +0.210 HD
ENDBRANCH   9  24
BRANCH   8  26
ATOM     26  O   UNL     1      18.060 -17.107  -7.808  0.00  0.00    -0.278 OA
BRANCH  26  27
ATOM     27  P   UNL     1      18.763 -18.358  -8.518  0.00  0.00    +0.473 P 
ATOM     28  O   UNL     1      19.140 -19.496  -7.638  0.00  0.00    -0.228 OA
BRANCH  27  29
ATOM     29  O   UNL     1      17.744 -18.703  -9.695  0.00  0.00    -0.303 OA
ATOM     30  H   UNL     1      16.822 -18.730  -9.383  0.00  0.00    +0.222 HD
ENDBRANCH  27  29
BRANCH  27  31
ATOM     31  O   UNL     1      19.977 -17.678  -9.294  0.00  0.00    -0.303 OA
ATOM     32  H   UNL     1      20.783 -18.213  -9.211  0.00  0.00    +0.222 HD
ENDBRANCH  27  31
ENDBRANCH  26  27
ENDBRANCH   8  26
ENDBRANCH   6   7
ENDBRANCH   5   6
ENDBRANCH   1   5
BRANCH   1  33
ATOM     33  O   UNL     1      21.595 -11.085  -5.664  0.00  0.00    -0.186 OA
BRANCH  33  34
ATOM     34  P   UNL     1      22.223 -10.920  -4.061  0.00  0.00    +0.483 P 
ATOM     35  O   UNL     1      23.481 -11.722  -4.415  0.00  0.00    -0.227 OA
BRANCH  34  36
ATOM     36  O   UNL     1      22.851 -10.754  -2.457  0.00  0.00    -0.302 OA
ATOM     37  H   UNL     1      23.534 -11.452  -2.400  0.00  0.00    +0.222 HD
ENDBRANCH  34  36
BRANCH  34  38
ATOM     38  O   UNL     1      22.512  -9.314  -4.356  0.00  0.00    -0.286 OA
BRANCH  38  39
ATOM     39  C   UNL     1      21.324  -8.560  -4.644  0.00  0.00    +0.181 C 
BRANCH  39  40
ATOM     40  C   UNL     1      21.575  -7.082  -5.028  0.00  0.00    +0.024 C 
ATOM     41  C   UNL     1      22.129  -6.373  -3.773  0.00  0.00    +0.016 C 
ATOM     42  C   UNL     1      22.639  -6.947  -6.136  0.00  0.00    +0.016 C 
BRANCH  40  43
ATOM     43  C   UNL     1      20.227  -6.412  -5.486  0.00  0.00    +0.208 C 
BRANCH  43  46
ATOM     44  N   UNL     1      18.401  -6.498  -7.199  0.00  0.00    -0.313 N 
ATOM     45  H   UNL     1      17.998  -5.678  -6.759  0.00  0.00    +0.149 HD
ATOM     46  C   UNL     1      19.583  -7.066  -6.751  0.00  0.00    +0.242 C 
ATOM     47  O   UNL     1      20.062  -8.028  -7.346  0.00  0.00    -0.273 OA
BRANCH  44  48
ATOM     48  C   UNL     1      17.710  -7.138  -8.305  0.00  0.00    +0.113 C 
BRANCH  48  49
ATOM     49  C   UNL     1      16.412  -6.477  -8.729  0.00  0.00    +0.114 C 
BRANCH  49  52
ATOM     50  N   UNL     1      14.647  -7.718  -7.611  0.00  0.00    -0.316 N 
ATOM     51  H   UNL     1      14.740  -8.388  -8.364  0.00  0.00    +0.149 HD
ATOM     52  C   UNL     1      15.389  -6.560  -7.624  0.00  0.00    +0.215 C 
ATOM     53  O   UNL     1      15.285  -5.667  -6.787  0.00  0.00    -0.276 OA
BRANCH  50  55
ATOM     54  C   UNL     1      12.272  -7.382  -7.101  0.00  0.00    +0.024 C 
ATOM     55  C   UNL     1      13.603  -7.939  -6.630  0.00  0.00    +0.101 C 
ENDBRANCH  50  55
ENDBRANCH  49  52
ENDBRANCH  48  49
ENDBRANCH  44  48
ENDBRANCH  43  46
BRANCH  43  56
ATOM     56  O   UNL     1      19.302  -6.442  -4.395  0.00  0.00    -0.382 OA
ATOM     57  H   UNL     1      18.497  -5.965  -4.660  0.00  0.00    +0.210 HD
ENDBRANCH  43  56
ENDBRANCH  40  43
ENDBRANCH  39  40
ENDBRANCH  38  39
ENDBRANCH  34  38
ENDBRANCH  33  34
ENDBRANCH   1  33
TORSDOF 23
