REMARK  Name = 
REMARK  5 active torsions:
REMARK  status: ('A' for Active; 'I' for Inactive)
REMARK    1  A    between atoms: C_1  and  O_2
REMARK    2  A    between atoms: O_2  and  C_3
REMARK    3  A    between atoms: C_6  and  O_7
REMARK    4  A    between atoms: C_8  and  C_10
REMARK    5  A    between atoms: C_17  and  C_19
REMARK                            x       y       z     vdW  Elec       q    Type
REMARK                         _______ _______ _______ _____ _____    ______ ____
ROOT
ATOM      1  C   UNL     1       3.268  -4.173  -2.525  0.00  0.00    +0.143 A 
ATOM      2  N   UNL     1       4.044  -5.165  -1.972  0.00  0.00    -0.338 N 
ATOM      3  H   UNL     1       4.853  -4.982  -1.392  0.00  0.00    +0.167 HD
ATOM      4  C   UNL     1       3.556  -6.381  -2.369  0.00  0.00    +0.067 A 
ATOM      5  C   UNL     1       3.964  -7.688  -2.121  0.00  0.00    +0.028 A 
ATOM      6  C   UNL     1       3.196  -8.704  -2.709  0.00  0.00    +0.018 A 
ATOM      7  C   UNL     1       2.077  -8.431  -3.525  0.00  0.00    +0.063 A 
ATOM      8  C   UNL     1       1.713  -7.089  -3.749  0.00  0.00    +0.045 A 
ATOM      9  C   UNL     1       2.462  -6.063  -3.156  0.00  0.00    +0.090 A 
ATOM     10  N   UNL     1       2.290  -4.709  -3.239  0.00  0.00    -0.228 NA
ENDROOT
BRANCH   7  11
ATOM     11  C   UNL     1       1.299  -9.526  -4.139  0.00  0.00    +0.266 C 
ATOM     12  N   UNL     1       1.900 -10.641  -4.498  0.00  0.00    -0.288 N 
ATOM     13  H   UNL     1       1.403 -11.416  -4.915  0.00  0.00    +0.301 HD
ATOM     14  H   UNL     1       2.902 -10.746  -4.386  0.00  0.00    +0.301 HD
ATOM     15  N   UNL     1       0.004  -9.387  -4.336  0.00  0.00    -0.250 N 
ATOM     16  H   UNL     1      -0.561 -10.103  -4.771  0.00  0.00    +0.288 HD
ATOM     17  H   UNL     1      -0.476  -8.544  -4.036  0.00  0.00    +0.288 HD
ENDBRANCH   7  11
BRANCH   1  20
ATOM     18  C   UNL     1       2.901  -0.455  -2.913  0.00  0.00    +0.121 A 
ATOM     19  C   UNL     1       2.678  -1.829  -2.985  0.00  0.00    +0.060 A 
ATOM     20  C   UNL     1       3.536  -2.742  -2.352  0.00  0.00    +0.062 A 
ATOM     21  C   UNL     1       4.617  -2.234  -1.611  0.00  0.00    +0.128 A 
ATOM     22  C   UNL     1       4.825  -0.858  -1.498  0.00  0.00    +0.050 A 
ATOM     23  C   UNL     1       3.962   0.030  -2.147  0.00  0.00    +0.049 A 
BRANCH  18  25
ATOM     24  C   UNL     1       1.527   0.062  -4.751  0.00  0.00    +0.277 C 
ATOM     25  O   UNL     1       2.127   0.489  -3.530  0.00  0.00    -0.495 OA
ENDBRANCH  18  25
BRANCH  21  26
ATOM     26  O   UNL     1       5.494  -3.094  -0.996  0.00  0.00    -0.506 OA
ATOM     27  H   UNL     1       6.200  -2.561  -0.585  0.00  0.00    +0.292 HD
ENDBRANCH  21  26
ENDBRANCH   1  20
TORSDOF 4
