REMARK  Name = 
REMARK  6 active torsions:
REMARK  status: ('A' for Active; 'I' for Inactive)
REMARK    1  A    between atoms: C_2  and  C_26
REMARK    2  A    between atoms: C_18  and  C_19
REMARK    3  A    between atoms: C_24  and  C_25
REMARK    4  A    between atoms: N_28  and  C_29
REMARK    5  A    between atoms: C_31  and  C_39
REMARK    6  A    between atoms: C_34  and  C_35
REMARK                            x       y       z     vdW  Elec       q    Type
REMARK                         _______ _______ _______ _____ _____    ______ ____
ROOT
ATOM      1  C   UNL     1      -0.000  -0.000  -0.000  0.00  0.00    +0.081 C 
ATOM      2  C   UNL     1      -0.000  -0.000  -0.000  0.00  0.00    -0.018 C 
ATOM      3  C   UNL     1      -0.000  -0.000  -0.000  0.00  0.00    +0.012 C 
ATOM      4  C   UNL     1      -0.000  -0.000  -0.000  0.00  0.00    -0.001 C 
ATOM      5  C   UNL     1      -0.000  -0.000  -0.000  0.00  0.00    -0.003 C 
ATOM      6  C   UNL     1      -0.000  -0.000  -0.000  0.00  0.00    +0.004 C 
ATOM      7  C   UNL     1      -0.000  -0.000  -0.000  0.00  0.00    +0.005 C 
ATOM      8  C   UNL     1      -0.000  -0.000  -0.000  0.00  0.00    +0.008 C 
ATOM      9  C   UNL     1      -0.000  -0.000  -0.000  0.00  0.00    +0.017 C 
ATOM     10  C   UNL     1      -0.000  -0.000  -0.000  0.00  0.00    +0.083 C 
ATOM     11  N   UNL     1      -0.000  -0.000  -0.000  0.00  0.00    -0.308 N 
ATOM     12  H   UNL     1       0.000   0.000   0.000  0.00  0.00    +0.149 HD
ATOM     13  C   UNL     1      -0.000  -0.000  -0.000  0.00  0.00    +0.237 C 
ATOM     14  O   UNL     1      -0.000  -0.000  -0.000  0.00  0.00    -0.271 OA
ATOM     15  C   UNL     1      -0.000  -0.000  -0.000  0.00  0.00    +0.063 C 
ATOM     16  C   UNL     1      -0.000  -0.000  -0.000  0.00  0.00    +0.023 C 
ATOM     17  C   UNL     1      -0.000  -0.000  -0.000  0.00  0.00    -0.013 C 
ATOM     18  C   UNL     1      -0.000  -0.000  -0.000  0.00  0.00    +0.006 C 
ATOM     19  C   UNL     1      -0.000  -0.000  -0.000  0.00  0.00    +0.005 C 
ATOM     20  C   UNL     1       0.000  -0.000  -0.000  0.00  0.00    +0.008 C 
ATOM     21  C   UNL     1      -0.000  -0.000  -0.000  0.00  0.00    +0.013 C 
ENDROOT
BRANCH   1  22
ATOM     22  C   UNL     1      -0.000  -0.000  -0.000  0.00  0.00    +0.221 C 
ATOM     23  N   UNL     1      -0.000   0.000   0.000  0.00  0.00    -0.285 N 
ATOM     24  H   UNL     1      -0.000  -0.000  -0.000  0.00  0.00    +0.155 HD
ATOM     25  O   UNL     1      -0.000  -0.000  -0.000  0.00  0.00    -0.275 OA
BRANCH  23  26
ATOM     26  C   UNL     1      -0.000  -0.000  -0.000  0.00  0.00    +0.046 A 
ATOM     27  C   UNL     1      -0.000   0.000   0.000  0.00  0.00    +0.076 A 
ATOM     28  C   UNL     1      -0.000   0.000   0.000  0.00  0.00    +0.015 A 
ATOM     29  C   UNL     1      -0.000   0.000   0.000  0.00  0.00    +0.013 A 
ATOM     30  C   UNL     1      -0.000   0.000   0.000  0.00  0.00    +0.057 A 
ATOM     31  C   UNL     1      -0.000   0.000   0.000  0.00  0.00    +0.036 A 
BRANCH  27  32
ATOM     32  C   UNL     1      -0.000   0.000   0.000  0.00  0.00    +0.419 C 
ATOM     33  F   UNL     1      -0.000   0.000   0.000  0.00  0.00    -0.166 F 
ATOM     34  F   UNL     1      -0.000   0.000   0.000  0.00  0.00    -0.166 F 
ATOM     35  F   UNL     1      -0.000   0.000   0.000  0.00  0.00    -0.166 F 
ENDBRANCH  27  32
BRANCH  30  36
ATOM     36  C   UNL     1      -0.000   0.000   0.000  0.00  0.00    +0.417 C 
ATOM     37  F   UNL     1      -0.000   0.000   0.000  0.00  0.00    -0.166 F 
ATOM     38  F   UNL     1      -0.000   0.000   0.000  0.00  0.00    -0.166 F 
ATOM     39  F   UNL     1      -0.000   0.000   0.000  0.00  0.00    -0.166 F 
ENDBRANCH  30  36
ENDBRANCH  23  26
ENDBRANCH   1  22
TORSDOF 4
