REMARK  Name = 
REMARK  7 active torsions:
REMARK  status: ('A' for Active; 'I' for Inactive)
REMARK    1  A    between atoms: CA_6  and  C_25
REMARK    2  A    between atoms: CA_10  and  N_12
REMARK    3  A    between atoms: C_13  and  C_15
REMARK    4  A    between atoms: C_15  and  C_19
REMARK    5  A    between atoms: N_16  and  O_17
REMARK    6  A    between atoms: O_17  and  C_18
REMARK    7  A    between atoms: C_25  and  O_26
REMARK                            x       y       z     vdW  Elec       q    Type
REMARK                         _______ _______ _______ _____ _____    ______ ____
ROOT
ATOM      1  N   UNK A   2       3.143  -1.838   0.943  0.00  0.00    -0.296 N 
ATOM      2  H   ACE A   1       3.090  -1.280   1.789  0.00  0.00    +0.150 HD
ATOM      3  C   UNK A   0       3.815  -3.028   1.258  0.00  0.00    +0.268 C 
ATOM      4  O   UNK A   0       4.216  -3.154   2.423  0.00  0.00    -0.268 OA
ENDROOT
BRANCH   1   6
ATOM      5  C   UNK A   2       2.851  -0.910  -1.744  0.00  0.00    +0.169 C 
ATOM      6  C   UNK A   2       2.395  -1.324  -0.272  0.00  0.00    +0.191 C 
ATOM      7  C   UNK A   2       1.724  -2.492  -1.043  0.00  0.00    +0.244 C 
ATOM      8  O   UNK A   2       0.979  -3.421  -0.790  0.00  0.00    -0.273 OA
ATOM      9  N   UNK A   2       2.541  -2.269  -2.089  0.00  0.00    -0.249 N 
ATOM     10  C   UNK A   2       2.949  -2.935  -3.197  0.00  0.00    +0.119 C 
ATOM     11  C   UNK A   2       4.045  -2.539  -3.864  0.00  0.00    +0.014 C 
ATOM     12  C   UNK A   2       4.953  -1.400  -3.552  0.00  0.00    +0.100 C 
ATOM     13  S   UNK A   2       4.395  -0.221  -2.287  0.00  0.00    -0.131 S 
BRANCH  10  14
ATOM     14  C   UNK A   2       2.326  -4.222  -3.675  0.00  0.00    +0.351 C 
ATOM     15  O   UNK A   2       2.664  -4.775  -4.713  0.00  0.00    -0.244 OA
BRANCH  14  16
ATOM     16  O   UNK A   2       1.335  -4.735  -2.928  0.00  0.00    -0.476 OA
ATOM     17  H   UNK A   2       1.105  -4.299  -2.080  0.00  0.00    +0.295 HD
ENDBRANCH  14  16
ENDBRANCH  10  14
ENDBRANCH   1   6
BRANCH   3  18
ATOM     18  C   UNK A   0       4.236  -4.075   0.237  0.00  0.00    +0.190 C 
ATOM     19  N   UNK A   0       5.016  -3.890  -0.796  0.00  0.00    -0.078 NA
BRANCH  18  20
ATOM     20  C   UNK A   0       4.019  -5.517   0.460  0.00  0.00    +0.107 A 
ATOM     21  N   UNK A   0       4.238  -6.067   1.718  0.00  0.00    -0.223 NA
ATOM     22  C   UNK A   0       4.502  -7.348   1.624  0.00  0.00    +0.156 A 
ATOM     23  N   UNK A   0       4.975  -8.066   2.648  0.00  0.00    -0.338 N 
ATOM     24  H   UNK A   0       4.966  -7.620   3.557  0.00  0.00    +0.144 HD
ATOM     25  H   UNK A   0       4.881  -9.073   2.648  0.00  0.00    +0.144 HD
ATOM     26  S   UNK A   0       4.242  -8.036   0.075  0.00  0.00    -0.060 S 
ATOM     27  C   UNK A   0       3.917  -6.467  -0.551  0.00  0.00    +0.078 A 
ENDBRANCH  18  20
BRANCH  19  28
ATOM     28  O   UNK A   0       5.767  -2.737  -1.040  0.00  0.00    -0.396 OA
ATOM     29  C   UNK A   0       5.869  -1.736  -0.054  0.00  0.00    +0.313 C 
ENDBRANCH  19  28
ENDBRANCH   3  18
TORSDOF 6
