REMARK  Name = 
REMARK  5 active torsions:
REMARK  status: ('A' for Active; 'I' for Inactive)
REMARK    1  A    between atoms: N_1  and  C_2
REMARK    2  A    between atoms: C_5  and  C_6
REMARK    3  A    between atoms: C_6  and  O_7
REMARK    4  A    between atoms: C_9  and  O_11
REMARK    5  A    between atoms: C_12  and  O_14
REMARK                            x       y       z     vdW  Elec       q    Type
REMARK                         _______ _______ _______ _____ _____    ______ ____
ROOT
ATOM      1  C   UNL     1       2.412   0.005  -0.023  0.00  0.00    +0.105 C 
ATOM      2  C   UNL     1       3.060  -1.331   0.455  0.00  0.00    +0.164 C 
ATOM      3  C   UNL     1       3.636  -1.314   1.886  0.00  0.00    +0.149 C 
ATOM      4  C   UNL     1       4.328  -0.004   2.303  0.00  0.00    +0.066 C 
ATOM      5  C   UNL     1       3.757   1.264   1.714  0.00  0.00    -0.044 C 
ATOM      6  C   UNL     1       2.907   1.240   0.674  0.00  0.00    -0.005 C 
ENDROOT
BRANCH   1   7
ATOM      7  N   UNL     1       0.950  -0.002   0.093  0.00  0.00    -0.322 NA
ATOM      8  H   UNL     1       0.670   0.093   1.065  0.00  0.00    +0.119 HD
ATOM      9  H   UNL     1       0.570   0.810  -0.395  0.00  0.00    +0.119 HD
ENDBRANCH   1   7
BRANCH   2  10
ATOM     10  O   UNL     1       4.093  -1.726  -0.469  0.00  0.00    -0.387 OA
ATOM     11  H   UNL     1       4.732  -1.000  -0.520  0.00  0.00    +0.210 HD
ENDBRANCH   2  10
BRANCH   3  12
ATOM     12  O   UNL     1       2.637  -1.646   2.858  0.00  0.00    -0.389 OA
ATOM     13  H   UNL     1       1.907  -1.011   2.769  0.00  0.00    +0.210 HD
ENDBRANCH   3  12
BRANCH   5  14
ATOM     14  C   UNL     1       4.216   2.530   2.403  0.00  0.00    +0.186 C 
BRANCH  14  15
ATOM     15  O   UNL     1       3.693   3.693   1.781  0.00  0.00    -0.391 OA
ATOM     16  H   UNL     1       4.137   3.776   0.921  0.00  0.00    +0.210 HD
ENDBRANCH  14  15
ENDBRANCH   5  14
TORSDOF 5
