REMARK  Name = 
REMARK  3 active torsions:
REMARK  status: ('A' for Active; 'I' for Inactive)
REMARK    1  A    between atoms: O_1  and  C_2
REMARK    2  A    between atoms: C_2  and  CA_4
REMARK    3  A    between atoms: C_14  and  O_15
REMARK                            x       y       z     vdW  Elec       q    Type
REMARK                         _______ _______ _______ _____ _____    ______ ____
ROOT
ATOM      1  CA  UNL     1       3.208   0.402   1.244  0.00  0.00    +0.152 A 
ATOM      2  C   UNL     1       3.838  -0.587   1.959  0.00  0.00    +0.081 A 
ATOM      3  C   UNL     1       4.479  -0.208   3.129  0.00  0.00    +0.130 A 
ATOM      4  C   UNL     1       4.504   1.143   3.572  0.00  0.00    +0.060 A 
ATOM      5  C   UNL     1       3.822   2.066   2.740  0.00  0.00    +0.078 A 
ATOM      6  C   UNL     1       3.804   3.410   3.078  0.00  0.00    +0.048 A 
ATOM      7  C   UNL     1       4.443   3.885   4.219  0.00  0.00    +0.044 A 
ATOM      8  C   UNL     1       5.111   3.013   5.060  0.00  0.00    +0.040 A 
ATOM      9 CL   UNL     1       4.409   5.565   4.585  0.00  0.00    -0.083 Cl
ATOM     10  C   UNL     1       5.140   1.654   4.744  0.00  0.00    +0.055 A 
ATOM     11 CL   UNL     1       5.995   0.636   5.855  0.00  0.00    -0.083 Cl
ATOM     12  N   UNL     1       3.180   1.716   1.612  0.00  0.00    -0.240 NA
ENDROOT
BRANCH   1  13
ATOM     13  C   UNL     1       2.489   0.072  -0.021  0.00  0.00    +0.355 C 
ATOM     14  OXT UNL     1       2.449  -1.031  -0.534  0.00  0.00    -0.243 OA
BRANCH  13  15
ATOM     15  O   UNL     1       1.879   1.173  -0.523  0.00  0.00    -0.476 OA
ATOM     16  H   UNL     1       2.062   1.939   0.068  0.00  0.00    +0.295 HD
ENDBRANCH  13  15
ENDBRANCH   1  13
BRANCH   3  17
ATOM     17  O   UNL     1       5.077  -1.243   3.797  0.00  0.00    -0.506 OA
ATOM     18  H   UNL     1       5.498  -0.914   4.612  0.00  0.00    +0.292 HD
ENDBRANCH   3  17
TORSDOF 3
