REMARK  Name = 
REMARK  3 active torsions:
REMARK  status: ('A' for Active; 'I' for Inactive)
REMARK    1  A    between atoms: C_1  and  C_2
REMARK    2  A    between atoms: C_2  and  C_3
REMARK    3  A    between atoms: C_3  and  C_11
REMARK                            x       y       z     vdW  Elec       q    Type
REMARK                         _______ _______ _______ _____ _____    ______ ____
ROOT
ATOM      1  C   UNL     1       2.988   1.296   0.106  0.00  0.00    +0.072 C 
ATOM      2  C   UNL     1       2.729   2.062  -1.216  0.00  0.00    +0.230 C 
ATOM      3  O   UNL     1       2.250   3.191  -1.287  0.00  0.00    -0.274 OA
ATOM      4  N   UNL     1       3.060   1.414  -2.381  0.00  0.00    -0.256 N 
ATOM      5  H   UNL     1       2.891   1.965  -3.215  0.00  0.00    +0.157 HD
ATOM      6  C   UNL     1       4.104   0.535  -2.520  0.00  0.00    +0.219 C 
ATOM      7  O   UNL     1       4.658   0.370  -3.603  0.00  0.00    -0.275 OA
ATOM      8  C   UNL     1       4.505  -0.228  -1.285  0.00  0.00    +0.097 C 
ATOM      9  C   UNL     1       4.398   0.662  -0.053  0.00  0.00    +0.030 C 
ENDROOT
BRANCH   1  10
ATOM     10  C   UNL     1       2.883   2.241   1.332  0.00  0.00    -0.032 A 
ATOM     11  C   UNL     1       1.632   2.783   1.698  0.00  0.00    +0.004 A 
ATOM     12  C   UNL     1       1.463   3.503   2.883  0.00  0.00    +0.000 A 
ATOM     13  C   UNL     1       2.550   3.736   3.714  0.00  0.00    +0.000 A 
ATOM     14  C   UNL     1       3.809   3.276   3.342  0.00  0.00    +0.000 A 
ATOM     15  C   UNL     1       3.977   2.541   2.163  0.00  0.00    +0.004 A 
ENDBRANCH   1  10
BRANCH   1  17
ATOM     16  C   UNL     1       2.081  -0.746   1.438  0.00  0.00    +0.005 C 
ATOM     17  C   UNL     1       1.897   0.179   0.236  0.00  0.00    +0.017 C 
ENDBRANCH   1  17
TORSDOF 2
