REMARK  Name = 
REMARK  6 active torsions:
REMARK  status: ('A' for Active; 'I' for Inactive)
REMARK    1  A    between atoms: C_7  and  C_21
REMARK    2  A    between atoms: C_9  and  O_12
REMARK    3  A    between atoms: O_12  and  C_13
REMARK    4  A    between atoms: C_13  and  C_15
REMARK    5  A    between atoms: C_21  and  O_22
REMARK    6  A    between atoms: N_24  and  C_25
REMARK                            x       y       z     vdW  Elec       q    Type
REMARK                         _______ _______ _______ _____ _____    ______ ____
ROOT
ATOM      1  C   UNL     1       2.011   0.011  -0.111  0.00  0.00    +0.060 C 
ATOM      2  N   UNL     1       2.530   0.426   1.183  0.00  0.00    -0.298 NA
ATOM      3  C   UNL     1       2.099  -0.345   2.333  0.00  0.00    +0.105 C 
ATOM      4  C   UNL     1       3.976   0.541   0.967  0.00  0.00    +0.074 C 
ATOM      5  C   UNL     1       4.702  -0.793   0.661  0.00  0.00    +0.155 C 
ATOM      6  C   UNL     1       3.815  -1.879   0.006  0.00  0.00    +0.193 C 
ATOM      7  C   UNL     1       3.966   1.426  -0.293  0.00  0.00    +0.021 C 
ATOM      8  C   UNL     1       2.427  -1.416  -0.491  0.00  0.00    +0.064 C 
ATOM      9  C   UNL     1       2.662   1.070  -1.004  0.00  0.00    +0.020 C 
ENDROOT
BRANCH   5  10
ATOM     10  C   UNL     1       5.464  -1.246   1.897  0.00  0.00    +0.313 C 
ATOM     11  O   UNL     1       5.146  -0.999   3.050  0.00  0.00    -0.251 OA
BRANCH  10  12
ATOM     12  O   UNL     1       6.577  -1.965   1.616  0.00  0.00    -0.480 OA
ATOM     13  H   UNL     1       6.645  -2.288   0.693  0.00  0.00    +0.295 HD
ENDBRANCH  10  12
ENDBRANCH   5  10
BRANCH   6  14
ATOM     14  O   UNL     1       3.567  -2.974   0.927  0.00  0.00    -0.457 OA
BRANCH  14  15
ATOM     15  C   UNL     1       4.486  -3.968   1.001  0.00  0.00    +0.339 C 
ATOM     16  O   UNL     1       5.427  -4.102   0.232  0.00  0.00    -0.245 OA
BRANCH  15  17
ATOM     17  C   UNL     1       4.282  -4.754   2.248  0.00  0.00    +0.059 A 
ATOM     18  C   UNL     1       3.270  -4.442   3.169  0.00  0.00    +0.015 A 
ATOM     19  C   UNL     1       3.178  -5.130   4.380  0.00  0.00    +0.001 A 
ATOM     20  C   UNL     1       4.089  -6.141   4.676  0.00  0.00    +0.000 A 
ATOM     21  C   UNL     1       5.091  -6.468   3.761  0.00  0.00    +0.001 A 
ATOM     22  C   UNL     1       5.189  -5.777   2.551  0.00  0.00    +0.015 A 
ENDBRANCH  15  17
ENDBRANCH  14  15
ENDBRANCH   6  14
TORSDOF 5
