REMARK  Name = 
REMARK  13 active torsions:
REMARK  status: ('A' for Active; 'I' for Inactive)
REMARK    1  A    between atoms: C_5  and  C_6
REMARK    2  A    between atoms: C_6  and  S_7
REMARK    3  A    between atoms: S_7  and  C_8
REMARK    4  A    between atoms: N_12  and  C_13
REMARK    5  A    between atoms: CA_14  and  C_44
REMARK    6  A    between atoms: CA_18  and  N_20
REMARK    7  A    between atoms: C_21  and  CA_23
REMARK    8  A    between atoms: CA_23  and  N_24
REMARK    9  A    between atoms: CA_23  and  C_37
REMARK   10  A    between atoms: N_30  and  C_31
REMARK   11  A    between atoms: C_31  and  C_32
REMARK   12  A    between atoms: C_40  and  O_41
REMARK   13  A    between atoms: C_44  and  O_45
REMARK                            x       y       z     vdW  Elec       q    Type
REMARK                         _______ _______ _______ _____ _____    ______ ____
ROOT
ATOM      1  N   UNL     1       4.800  -2.005   0.307  0.00  0.00    -0.300 N 
ATOM      2  H   UNL     1       5.431  -1.313   0.703  0.00  0.00    +0.150 HD
ATOM      3  C   UNL     1       4.363  -2.988   1.179  0.00  0.00    +0.239 C 
ATOM      4  O   UNL     1       3.322  -3.613   0.980  0.00  0.00    -0.273 OA
ENDROOT
BRANCH   1   6
ATOM      5  C   UNL     1       3.271  -0.254  -0.890  0.00  0.00    +0.169 C 
ATOM      6  CA  UNL     1       4.016  -1.629  -0.912  0.00  0.00    +0.191 C 
ATOM      7  C   UNL     1       4.876  -0.952  -2.034  0.00  0.00    +0.244 C 
ATOM      8  O   UNL     1       5.771  -1.225  -2.795  0.00  0.00    -0.273 OA
ATOM      9  N   UNL     1       4.321   0.249  -1.763  0.00  0.00    -0.249 N 
ATOM     10  CA  UNL     1       4.577   1.570  -2.028  0.00  0.00    +0.123 C 
ATOM     11  C   UNL     1       3.945   2.537  -1.301  0.00  0.00    -0.021 C 
ATOM     12  C   UNL     1       3.044   2.248  -0.107  0.00  0.00    +0.104 C 
ATOM     13  S   UNL     1       3.326   0.645   0.671  0.00  0.00    -0.131 S 
BRANCH  10  14
ATOM     14  C   UNL     1       5.615   1.952  -3.065  0.00  0.00    +0.351 C 
ATOM     15  OXT UNL     1       6.145   3.052  -3.123  0.00  0.00    -0.244 OA
BRANCH  14  16
ATOM     16  O   UNL     1       5.901   1.024  -3.998  0.00  0.00    -0.476 OA
ATOM     17  H   UNL     1       5.806   0.087  -3.721  0.00  0.00    +0.295 HD
ENDBRANCH  14  16
ENDBRANCH  10  14
BRANCH  11  18
ATOM     18  C   UNL     1       4.132   4.047  -1.464  0.00  0.00    +0.111 C 
BRANCH  18  19
ATOM     19  S   UNL     1       3.593   4.743  -3.046  0.00  0.00    -0.080 S 
BRANCH  19  20
ATOM     20  C   UNL     1       1.891   4.532  -3.046  0.00  0.00    +0.209 A 
ATOM     21  N   UNL     1       1.081   4.972  -4.056  0.00  0.00    -0.223 N 
ATOM     22  C   UNL     1       1.416   5.718  -5.241  0.00  0.00    +0.177 C 
ATOM     23  N   UNL     1      -0.190   4.615  -3.799  0.00  0.00    -0.043 NA
ATOM     24  N   UNL     1      -0.138   3.973  -2.638  0.00  0.00    -0.022 NA
ATOM     25  N   UNL     1       1.147   3.922  -2.155  0.00  0.00    -0.102 NA
ENDBRANCH  19  20
ENDBRANCH  18  19
ENDBRANCH  11  18
ENDBRANCH   1   6
BRANCH   3  26
ATOM     26  CA  UNL     1       5.309  -3.235   2.391  0.00  0.00    +0.191 C 
BRANCH  26  27
ATOM     27  N   UNL     1       4.553  -3.151   3.625  0.00  0.00    -0.284 N 
ATOM     28  H   UNL     1       4.272  -4.008   4.094  0.00  0.00    +0.151 HD
ATOM     29  C   UNL     1       4.247  -1.965   4.229  0.00  0.00    +0.310 C 
ATOM     30  N   UNL     1       3.340  -2.039   5.281  0.00  0.00    -0.217 N 
ATOM     31  C   UNL     1       2.708  -3.228   5.659  0.00  0.00    +0.309 C 
ATOM     32  O   UNL     1       3.186  -4.344   5.463  0.00  0.00    -0.264 OA
ATOM     33  C   UNL     1       1.370  -3.122   6.428  0.00  0.00    +0.302 C 
ATOM     34  O   UNL     1       0.689  -4.128   6.584  0.00  0.00    -0.265 OA
ATOM     35  N   UNL     1       1.039  -1.876   6.953  0.00  0.00    -0.293 N 
ATOM     36  C   UNL     1       1.550  -0.679   6.310  0.00  0.00    +0.127 C 
ATOM     37  C   UNL     1       3.034  -0.817   6.014  0.00  0.00    +0.137 C 
ATOM     38  O   UNL     1       4.716  -0.905   3.817  0.00  0.00    -0.252 OA
BRANCH  35  39
ATOM     39  C   UNL     1       0.007  -1.779   7.981  0.00  0.00    +0.105 C 
ATOM     40  C   UNL     1      -1.268  -1.091   7.532  0.00  0.00    +0.024 C 
ENDBRANCH  35  39
ENDBRANCH  26  27
BRANCH  26  41
ATOM     41  C   UNL     1       6.015  -4.571   2.210  0.00  0.00    -0.018 A 
ATOM     42  C   UNL     1       5.393  -5.795   2.514  0.00  0.00    +0.009 A 
ATOM     43  C   UNL     1       6.022  -7.006   2.219  0.00  0.00    +0.046 A 
ATOM     44  C   UNL     1       7.262  -7.006   1.598  0.00  0.00    +0.117 A 
ATOM     45  C   UNL     1       7.908  -5.811   1.302  0.00  0.00    +0.046 A 
ATOM     46  C   UNL     1       7.288  -4.598   1.611  0.00  0.00    +0.009 A 
BRANCH  44  47
ATOM     47  O   UNL     1       7.809  -8.209   1.263  0.00  0.00    -0.507 OA
ATOM     48  H   UNL     1       8.567  -8.050   0.678  0.00  0.00    +0.292 HD
ENDBRANCH  44  47
ENDBRANCH  26  41
ENDBRANCH   3  26
TORSDOF 11
