REMARK  Name = 
REMARK  8 active torsions:
REMARK  status: ('A' for Active; 'I' for Inactive)
REMARK    1  A    between atoms: C_1  and  C_2
REMARK    2  A    between atoms: C_2  and  C_3
REMARK    3  A    between atoms: C_6  and  C_7
REMARK    4  A    between atoms: C_7  and  C_8
REMARK    5  A    between atoms: C_8  and  O_9
REMARK    6  A    between atoms: O_9  and  C_10
REMARK    7  A    between atoms: C_13  and  C_14
REMARK    8  A    between atoms: C_14  and  C_15
REMARK                            x       y       z     vdW  Elec       q    Type
REMARK                         _______ _______ _______ _____ _____    ______ ____
ROOT
ATOM      1  C   UNL     1       6.591  -1.043   7.652  0.00  0.00    +0.121 A 
ATOM      2  C   UNL     1       7.319  -0.917   8.833  0.00  0.00    +0.046 A 
ATOM      3  C   UNL     1       7.729  -2.058   9.540  0.00  0.00    +0.007 A 
ATOM      4  C   UNL     1       7.410  -3.343   9.074  0.00  0.00    -0.046 A 
ATOM      5  C   UNL     1       6.680  -3.462   7.893  0.00  0.00    +0.007 A 
ATOM      6  C   UNL     1       6.280  -2.330   7.190  0.00  0.00    +0.046 A 
ENDROOT
BRANCH   1   7
ATOM      7  O   UNL     1       6.220   0.124   7.014  0.00  0.00    -0.492 OA
BRANCH   7   8
ATOM      8  C   UNL     1       5.408  -0.112   5.853  0.00  0.00    +0.235 C 
BRANCH   8   9
ATOM      9  C   UNL     1       4.946   1.160   5.152  0.00  0.00    +0.096 C 
BRANCH   9  13
ATOM     10  C   UNL     1       2.502   0.083   1.804  0.00  0.00    -0.030 A 
ATOM     11  C   UNL     1       3.224   1.278   1.764  0.00  0.00    +0.007 A 
ATOM     12  C   UNL     1       4.042   1.637   2.837  0.00  0.00    +0.024 A 
ATOM     13  C   UNL     1       4.121   0.790   3.935  0.00  0.00    +0.045 A 
ATOM     14  N   UNL     1       3.428  -0.377   3.986  0.00  0.00    -0.260 NA
ATOM     15  C   UNL     1       2.649  -0.706   2.934  0.00  0.00    +0.114 A 
BRANCH  10  17
ATOM     16  C   UNL     1       0.151   0.231   0.973  0.00  0.00    +0.009 C 
ATOM     17  C   UNL     1       1.551  -0.308   0.709  0.00  0.00    +0.033 C 
ENDBRANCH  10  17
ENDBRANCH   9  13
ENDBRANCH   8   9
ENDBRANCH   7   8
ENDBRANCH   1   7
BRANCH   4  18
ATOM     18  C   UNL     1       7.804  -4.589   9.827  0.00  0.00    +0.059 C 
BRANCH  18  19
ATOM     19  C   UNL     1       9.134  -5.233   9.439  0.00  0.00    +0.146 C 
ATOM     20  C   UNL     1      10.342  -4.355   9.685  0.00  0.00    +0.234 C 
ATOM     21  O   UNL     1      10.516  -3.653  10.672  0.00  0.00    -0.274 OA
ATOM     22  N   UNL     1      11.283  -4.529   8.711  0.00  0.00    -0.246 N 
ATOM     23  H   UNL     1      12.195  -4.108   8.792  0.00  0.00    +0.158 HD
ATOM     24  C   UNL     1      10.995  -5.342   7.666  0.00  0.00    +0.279 C 
ATOM     25  O   UNL     1      11.788  -5.723   6.822  0.00  0.00    -0.263 OA
ATOM     26  S   UNL     1       9.316  -5.814   7.719  0.00  0.00    -0.054 S 
ENDBRANCH  18  19
ENDBRANCH   4  18
TORSDOF 7
