REMARK  Name = 
REMARK  3 active torsions:
REMARK  status: ('A' for Active; 'I' for Inactive)
REMARK    1  A    between atoms: C_1  and  N_2
REMARK    2  A    between atoms: C_5  and  O_6
REMARK    3  A    between atoms: C_7  and  O_8
REMARK                            x       y       z     vdW  Elec       q    Type
REMARK                         _______ _______ _______ _____ _____    ______ ____
ROOT
ATOM      1  C   UNL     1       0.929  -0.103   0.039  0.00  0.00    +0.152 C 
ATOM      2  N   UNL     1       2.383  -0.105   0.024  0.00  0.00    -0.308 N 
ATOM      3  C   UNL     1       3.101   1.135   0.020  0.00  0.00    +0.055 A 
ATOM      4  C   UNL     1       4.510   1.119  -0.013  0.00  0.00    +0.044 A 
ATOM      5  C   UNL     1       5.219   2.330  -0.047  0.00  0.00    +0.014 A 
ATOM      6  C   UNL     1       4.546   3.550  -0.045  0.00  0.00    +0.001 A 
ATOM      7  C   UNL     1       3.157   3.571   0.001  0.00  0.00    +0.002 A 
ATOM      8  C   UNL     1       5.210  -0.167  -0.020  0.00  0.00    +0.173 A 
ATOM      9  C   UNL     1       4.529  -1.316  -0.022  0.00  0.00    +0.225 A 
ATOM     10  C   UNL     1       2.438   2.373   0.037  0.00  0.00    +0.026 A 
ATOM     11  C   UNL     1       3.038  -1.326  -0.008  0.00  0.00    +0.297 A 
ATOM     12  O   UNL     1       2.491  -2.431  -0.023  0.00  0.00    -0.264 OA
ENDROOT
BRANCH   8  13
ATOM     13  O   UNL     1       6.592  -0.148  -0.025  0.00  0.00    -0.503 OA
ATOM     14  H   UNL     1       6.863  -1.088  -0.022  0.00  0.00    +0.292 HD
ENDBRANCH   8  13
BRANCH   9  15
ATOM     15  O   UNL     1       5.193  -2.536  -0.043  0.00  0.00    -0.500 OA
ATOM     16  H   UNL     1       4.468  -3.199  -0.061  0.00  0.00    +0.292 HD
ENDBRANCH   9  15
TORSDOF 2
