REMARK  Name = 
REMARK  16 active torsions:
REMARK  status: ('A' for Active; 'I' for Inactive)
REMARK    1  A    between atoms: O_2  and  S_3
REMARK    2  A    between atoms: S_3  and  O_5
REMARK    3  A    between atoms: S_3  and  C_7
REMARK    4  A    between atoms: C_12  and  C_17
REMARK    5  A    between atoms: C_25  and  C_83
REMARK    6  A    between atoms: C_34  and  C_67
REMARK    7  A    between atoms: C_43  and  C_51
REMARK    8  A    between atoms: C_56  and  S_61
REMARK    9  A    between atoms: S_61  and  O_63
REMARK   10  A    between atoms: S_61  and  O_65
REMARK   11  A    between atoms: C_72  and  S_77
REMARK   12  A    between atoms: S_77  and  O_79
REMARK   13  A    between atoms: S_77  and  O_81
REMARK   14  A    between atoms: C_88  and  S_93
REMARK   15  A    between atoms: S_93  and  O_95
REMARK   16  A    between atoms: S_93  and  O_97
REMARK                            x       y       z     vdW  Elec       q    Type
REMARK                         _______ _______ _______ _____ _____    ______ ____
ROOT
ATOM      1  C   UNL     1       8.984  -5.461  -0.312  0.00  0.00    +0.033 C 
ATOM      2  C   UNL     1       7.704  -5.692   1.497  0.00  0.00    +0.074 C 
ATOM      3  C   UNL     1       5.906  -6.010   1.603  0.00  0.00    +0.030 C 
ATOM      4  C   UNL     1       5.123  -6.368   2.900  0.00  0.00    +0.030 C 
ATOM      5  C   UNL     1       5.858  -6.603   4.588  0.00  0.00    +0.074 C 
ATOM      6  C   UNL     1       7.048  -6.797   3.956  0.00  0.00    +0.031 C 
ATOM      7  C   UNL     1       7.324  -8.111   3.242  0.00  0.00    +0.050 A 
ATOM      8  N   UNL     1       8.987  -8.847   3.469  0.00  0.00    -0.354 N 
ATOM      9  H   UNL     1       9.760  -8.202   3.588  0.00  0.00    +0.166 HD
ATOM     10  C   UNL     1       8.704  -9.883   2.608  0.00  0.00    +0.049 A 
ATOM     11  C   UNL     1       6.850  -9.913   2.083  0.00  0.00    +0.028 A 
ATOM     12  C   UNL     1      10.181 -10.574   2.165  0.00  0.00    +0.029 C 
ATOM     13  C   UNL     1      11.041 -10.093   1.181  0.00  0.00    +0.049 A 
ATOM     14  C   UNL     1      10.700  -8.895   0.535  0.00  0.00    +0.028 A 
ATOM     15  C   UNL     1      10.475  -9.377  -0.683  0.00  0.00    +0.028 A 
ATOM     16  C   UNL     1      11.707  -9.963  -1.044  0.00  0.00    +0.050 A 
ATOM     17  C   UNL     1      12.321  -9.326  -2.100  0.00  0.00    +0.031 C 
ATOM     18  C   UNL     1      11.391  -7.934  -2.316  0.00  0.00    +0.074 C 
ATOM     19  C   UNL     1      10.363  -7.976  -3.399  0.00  0.00    +0.030 C 
ATOM     20  C   UNL     1       9.457  -7.036  -2.939  0.00  0.00    +0.030 C 
ATOM     21  N   UNL     1      11.045  -7.079  -1.300  0.00  0.00    -0.247 NA
ATOM     22  N   UNL     1      11.966 -10.693   0.157  0.00  0.00    -0.354 N 
ATOM     23  H   UNL     1      11.618 -11.634  -0.028  0.00  0.00    +0.166 HD
ATOM     24  C   UNL     1       5.921  -8.987   2.441  0.00  0.00    +0.028 A 
ATOM     25  N   UNL     1       7.029  -5.622   3.236  0.00  0.00    -0.247 NA
ATOM     26  C   UNL     1       9.550  -6.636  -1.286  0.00  0.00    +0.074 C 
ENDROOT
BRANCH   1  30
ATOM     27  C   UNL     1      13.248  -4.022  -4.788  0.00  0.00    +0.047 A 
ATOM     28  C   UNL     1      13.328  -4.683  -3.528  0.00  0.00    +0.024 A 
ATOM     29  C   UNL     1      11.981  -4.989  -2.317  0.00  0.00    +0.010 A 
ATOM     30  C   UNL     1      10.366  -4.602  -1.692  0.00  0.00    -0.014 A 
ATOM     31  C   UNL     1      10.537  -3.923  -3.319  0.00  0.00    +0.010 A 
ATOM     32  C   UNL     1      11.788  -3.671  -4.675  0.00  0.00    +0.024 A 
BRANCH  27  33
ATOM     33  S   UNL     1      14.873  -3.727  -6.275  0.00  0.00    -0.225 S 
ATOM     34  O   UNL     1      14.611  -4.220  -7.616  0.00  0.00    -0.744 OA
BRANCH  33  35
ATOM     35  O   UNL     1      16.311  -4.414  -5.880  0.00  0.00    -0.304 OA
ATOM     36  H   UNL     1      17.043  -4.251  -6.555  0.00  0.00    +0.239 HD
ENDBRANCH  33  35
BRANCH  33  38
ATOM     37  H   UNL     1      16.191  -2.119  -7.136  0.00  0.00    +0.239 HD
ATOM     38  O   UNL     1      15.421  -2.198  -6.489  0.00  0.00    -0.304 OA
ENDBRANCH  33  38
ENDBRANCH  27  33
ENDBRANCH   1  30
BRANCH   6  39
ATOM     39  C   UNL     1       7.324  -8.111   3.242  0.00  0.00    -0.014 A 
ATOM     40  C   UNL     1       7.032  -9.838   4.183  0.00  0.00    +0.010 A 
ATOM     41  C   UNL     1       7.312 -11.456   3.336  0.00  0.00    +0.024 A 
ATOM     42  C   UNL     1       7.893 -11.565   1.579  0.00  0.00    +0.047 A 
ATOM     43  C   UNL     1       8.152 -10.027   0.568  0.00  0.00    +0.024 A 
ATOM     44  C   UNL     1       7.948  -8.340   1.366  0.00  0.00    +0.010 A 
BRANCH  42  45
ATOM     45  S   UNL     1       8.052 -13.120   0.894  0.00  0.00    -0.225 S 
ATOM     46  O   UNL     1       9.234 -13.281   0.093  0.00  0.00    -0.744 OA
BRANCH  45  47
ATOM     47  O   UNL     1       8.024 -14.125   2.151  0.00  0.00    -0.304 OA
ATOM     48  H   UNL     1       8.493 -13.711   2.916  0.00  0.00    +0.239 HD
ENDBRANCH  45  47
BRANCH  45  49
ATOM     49  O   UNL     1       6.761 -13.420   0.002  0.00  0.00    -0.304 OA
ATOM     50  H   UNL     1       7.061 -13.536  -0.927  0.00  0.00    +0.239 HD
ENDBRANCH  45  49
ENDBRANCH  42  45
ENDBRANCH   6  39
BRANCH  12  51
ATOM     51  C   UNL     1      10.591 -11.803   2.851  0.00  0.00    -0.014 A 
ATOM     52  C   UNL     1      11.184 -12.892   2.207  0.00  0.00    +0.010 A 
ATOM     53  C   UNL     1      11.504 -14.025   2.908  0.00  0.00    +0.024 A 
ATOM     54  C   UNL     1      11.315 -14.011   4.278  0.00  0.00    +0.047 A 
ATOM     55  C   UNL     1      10.697 -12.967   4.946  0.00  0.00    +0.024 A 
ATOM     56  C   UNL     1      10.301 -11.872   4.215  0.00  0.00    +0.010 A 
BRANCH  54  57
ATOM     57  S   UNL     1      12.048 -15.289   5.160  0.00  0.00    -0.225 S 
ATOM     58  O   UNL     1      11.984 -15.097   6.581  0.00  0.00    -0.744 OA
BRANCH  57  59
ATOM     59  O   UNL     1      11.325 -16.652   4.724  0.00  0.00    -0.304 OA
ATOM     60  H   UNL     1      10.350 -16.584   4.831  0.00  0.00    +0.239 HD
ENDBRANCH  57  59
BRANCH  57  61
ATOM     61  O   UNL     1      13.564 -15.401   4.648  0.00  0.00    -0.304 OA
ATOM     62  H   UNL     1      14.032 -16.137   5.087  0.00  0.00    +0.239 HD
ENDBRANCH  57  61
ENDBRANCH  54  57
ENDBRANCH  12  51
BRANCH  17  63
ATOM     63  C   UNL     1      13.790  -9.489  -2.416  0.00  0.00    -0.014 A 
ATOM     64  C   UNL     1      14.426  -9.881  -3.631  0.00  0.00    +0.010 A 
ATOM     65  C   UNL     1      15.851 -10.017  -3.720  0.00  0.00    +0.024 A 
ATOM     66  C   UNL     1      16.634  -9.713  -2.605  0.00  0.00    +0.047 A 
ATOM     67  C   UNL     1      16.021  -9.391  -1.404  0.00  0.00    +0.024 A 
ATOM     68  C   UNL     1      14.635  -9.307  -1.317  0.00  0.00    +0.010 A 
BRANCH  66  69
ATOM     69  S   UNL     1      18.376  -9.826  -2.542  0.00  0.00    -0.225 S 
ATOM     70  O   UNL     1      18.962 -10.564  -3.625  0.00  0.00    -0.744 OA
BRANCH  69  71
ATOM     71  O   UNL     1      18.999  -8.343  -2.462  0.00  0.00    -0.304 OA
ATOM     72  H   UNL     1      18.857  -7.835  -3.292  0.00  0.00    +0.239 HD
ENDBRANCH  69  71
BRANCH  69  73
ATOM     73  O   UNL     1      18.757 -10.482  -1.122  0.00  0.00    -0.304 OA
ATOM     74  H   UNL     1      19.591 -10.115  -0.762  0.00  0.00    +0.239 HD
ENDBRANCH  69  73
ENDBRANCH  66  69
ENDBRANCH  17  63
TORSDOF 16
