REMARK  Name = 
REMARK  11 active torsions:
REMARK  status: ('A' for Active; 'I' for Inactive)
REMARK    1  A    between atoms: C_1  and  C_2
REMARK    2  A    between atoms: C_2  and  N_3
REMARK    3  A    between atoms: N_3  and  C_4
REMARK    4  A    between atoms: N_3  and  C_6
REMARK    5  A    between atoms: C_4  and  C_5
REMARK    6  A    between atoms: C_6  and  C_7
REMARK    7  A    between atoms: C_7  and  N_8
REMARK    8  A    between atoms: C_9  and  C_11
REMARK    9  A    between atoms: C_12  and  C_13
REMARK   10  A    between atoms: C_15  and  C_16
REMARK   11  A    between atoms: C_28  and  C_29
REMARK                            x       y       z     vdW  Elec       q    Type
REMARK                         _______ _______ _______ _____ _____    ______ ____
ROOT
ATOM      1  C   UNL     1       8.509   3.843  -1.349  0.00  0.00    +0.060 A 
ATOM      2  C   UNL     1       9.365   2.685  -1.312  0.00  0.00    -0.013 A 
ATOM      3  C   UNL     1       8.921   1.259  -1.373  0.00  0.00    +0.047 C 
ATOM      4  C   UNL     1      10.681   3.132  -1.278  0.00  0.00    +0.044 A 
ATOM      5  N   UNL     1      10.649   4.503  -1.275  0.00  0.00    -0.358 N 
ATOM      6  H   UNL     1      11.465   5.110  -1.269  0.00  0.00    +0.166 HD
ATOM      7  C   UNL     1       9.349   4.950  -1.317  0.00  0.00    +0.026 A 
ATOM      8  C   UNL     1       9.060   6.410  -1.333  0.00  0.00    +0.064 C 
ENDROOT
BRANCH   4   9
ATOM      9  C   UNL     1      11.890   2.391  -1.282  0.00  0.00    +0.039 C 
ATOM     10  C   UNL     1      13.166   2.792  -1.300  0.00  0.00    +0.048 C 
ATOM     11  C   UNL     1      14.270   1.815  -1.326  0.00  0.00    +0.011 A 
ATOM     12  C   UNL     1      14.301   0.430  -1.357  0.00  0.00    +0.048 A 
ATOM     13  C   UNL     1      15.546  -0.189  -1.374  0.00  0.00    +0.124 A 
ATOM     14  C   UNL     1      16.735   0.553  -1.360  0.00  0.00    +0.040 A 
ATOM     15  C   UNL     1      16.699   1.952  -1.336  0.00  0.00    +0.027 A 
ATOM     16  F   UNL     1      15.606  -1.526  -1.402  0.00  0.00    -0.205 F 
ATOM     17  C   UNL     1      15.453   2.554  -1.321  0.00  0.00    +0.042 A 
ATOM     18  N   UNL     1      15.170   3.919  -1.304  0.00  0.00    -0.281 N 
ATOM     19  H   UNL     1      15.855   4.660  -1.303  0.00  0.00    +0.155 HD
ATOM     20  C   UNL     1      13.800   4.157  -1.294  0.00  0.00    +0.249 C 
ATOM     21  O   UNL     1      13.249   5.237  -1.281  0.00  0.00    -0.270 OA
ENDBRANCH   4   9
BRANCH   1  24
ATOM     22  N   UNL     1       6.373   2.872  -0.840  0.00  0.00    -0.310 N 
ATOM     23  H   UNL     1       6.837   2.398  -0.075  0.00  0.00    +0.149 HD
ATOM     24  C   UNL     1       7.048   3.891  -1.478  0.00  0.00    +0.246 C 
ATOM     25  O   UNL     1       6.465   4.772  -2.106  0.00  0.00    -0.270 OA
BRANCH  22  26
ATOM     26  C   UNL     1       4.929   2.806  -0.899  0.00  0.00    +0.120 C 
BRANCH  26  27
ATOM     27  C   UNL     1       4.346   1.589  -0.156  0.00  0.00    +0.103 C 
BRANCH  27  28
ATOM     28  N   UNL     1       4.694   1.500   1.284  0.00  0.00    -0.301 NA
BRANCH  28  30
ATOM     29  C   UNL     1       4.568   2.696   3.508  0.00  0.00    +0.020 C 
ATOM     30  C   UNL     1       4.230   2.691   2.021  0.00  0.00    +0.081 C 
ENDBRANCH  28  30
BRANCH  28  31
ATOM     31  C   UNL     1       4.226   0.226   1.864  0.00  0.00    +0.081 C 
ATOM     32  C   UNL     1       2.721  -0.037   1.822  0.00  0.00    +0.020 C 
ENDBRANCH  28  31
ENDBRANCH  27  28
ENDBRANCH  26  27
ENDBRANCH  22  26
ENDBRANCH   1  24
TORSDOF 7
