REMARK  Name = 
REMARK  6 active torsions:
REMARK  status: ('A' for Active; 'I' for Inactive)
REMARK    1  A    between atoms: C_1  and  C_2
REMARK    2  A    between atoms: C_5  and  N_13
REMARK    3  A    between atoms: CA_8  and  C_10
REMARK    4  A    between atoms: C_10  and  O_11
REMARK    5  A    between atoms: N_13  and  C_14
REMARK    6  A    between atoms: N_13  and  O_15
REMARK                            x       y       z     vdW  Elec       q    Type
REMARK                         _______ _______ _______ _____ _____    ______ ____
ROOT
ATOM      1  C   UNL     1       1.003   0.035  -0.087  0.00  0.00    +0.010 C 
ATOM      2  C   UNL     1       2.524   0.062  -0.059  0.00  0.00    +0.017 C 
ATOM      3  CA  UNL     1       3.145  -1.160   0.607  0.00  0.00    +0.167 C 
ATOM      4  N   UNL     1       4.397  -0.688   1.294  0.00  0.00    -0.287 NA
ATOM      5  H   UNL     1       4.243  -0.762   2.303  0.00  0.00    +0.124 HD
ATOM      6  C   UNL     1       4.498   0.762   1.058  0.00  0.00    +0.151 C 
ATOM      7  C   UNL     1       3.066   1.205   0.774  0.00  0.00    +0.042 C 
ENDROOT
BRANCH   3   8
ATOM      8  C   UNL     1       3.516  -2.231  -0.429  0.00  0.00    +0.322 C 
ATOM      9  OXT UNL     1       2.723  -2.785  -1.173  0.00  0.00    -0.249 OA
BRANCH   8  10
ATOM     10  O   UNL     1       4.848  -2.488  -0.428  0.00  0.00    -0.480 OA
ATOM     11  H   UNL     1       5.235  -1.887   0.261  0.00  0.00    +0.295 HD
ENDBRANCH   8  10
ENDBRANCH   3   8
BRANCH   6  12
ATOM     12  N   UNL     1       5.054   1.370   2.265  0.00  0.00    -0.177 NA
ATOM     13  C   UNL     1       5.123   2.829   2.150  0.00  0.00    +0.139 C 
BRANCH  12  14
ATOM     14  O   UNL     1       6.456   0.959   2.321  0.00  0.00    -0.311 OA
ATOM     15  H   UNL     1       6.540   0.675   3.251  0.00  0.00    +0.237 HD
ENDBRANCH  12  14
ENDBRANCH   6  12
TORSDOF 4
