REMARK  Name = 
REMARK  7 active torsions:
REMARK  status: ('A' for Active; 'I' for Inactive)
REMARK    1  A    between atoms: C_1  and  O_2
REMARK    2  A    between atoms: O_2  and  C_3
REMARK    3  A    between atoms: N_12  and  C1*_13
REMARK    4  A    between atoms: C4*_16  and  C5*_18
REMARK    5  A    between atoms: C5*_18  and  O5*_19
REMARK    6  A    between atoms: C3*_20  and  O3*_22
REMARK    7  A    between atoms: C2*_23  and  O2*_25
REMARK                            x       y       z     vdW  Elec       q    Type
REMARK                         _______ _______ _______ _____ _____    ______ ____
ROOT
ATOM      1  C   UNL     1       9.118   3.968   5.964  0.00  0.00    +0.247 A 
ATOM      2  C   UNL     1       8.100   3.741   5.035  0.00  0.00    +0.169 A 
ATOM      3  N   UNL     1       8.072   3.337   3.720  0.00  0.00    -0.229 NA
ATOM      4  C   UNL     1       6.804   3.393   3.375  0.00  0.00    +0.203 A 
ATOM      5  N   UNL     1       6.003   3.801   4.412  0.00  0.00    -0.285 N 
ATOM      6  C   UNL     1       6.817   3.994   5.493  0.00  0.00    +0.171 A 
ATOM      7  N   UNL     1       6.472   4.426   6.714  0.00  0.00    -0.195 NA
ATOM      8  C   UNL     1       7.526   4.644   7.509  0.00  0.00    +0.218 A 
ATOM      9  N   UNL     1       7.272   5.254   8.724  0.00  0.00    -0.327 N 
ATOM     10  H   UNL     1       6.409   5.775   8.679  0.00  0.00    +0.145 HD
ATOM     11  H   UNL     1       8.095   5.775   9.001  0.00  0.00    +0.145 HD
ATOM     12  N   UNL     1       8.809   4.450   7.196  0.00  0.00    -0.178 NA
ENDROOT
BRANCH   5  13
ATOM     13  C1* UNL     1       4.603   4.134   4.270  0.00  0.00    +0.253 C 
ATOM     14  C2* UNL     1       3.638   3.882   5.427  0.00  0.00    +0.195 C 
ATOM     15  C3* UNL     1       3.573   5.216   6.164  0.00  0.00    +0.178 C 
ATOM     16  C4* UNL     1       4.047   6.251   5.140  0.00  0.00    +0.177 C 
ATOM     17  O4* UNL     1       4.514   5.544   3.964  0.00  0.00    -0.346 OA
BRANCH  14  18
ATOM     18  O2* UNL     1       3.952   2.756   6.234  0.00  0.00    -0.385 OA
ATOM     19  H2* UNL     1       3.677   2.952   7.149  0.00  0.00    +0.210 HD
ENDBRANCH  14  18
BRANCH  15  20
ATOM     20  O3* UNL     1       2.224   5.471   6.584  0.00  0.00    -0.386 OA
ATOM     21  H3* UNL     1       1.659   5.579   5.796  0.00  0.00    +0.210 HD
ENDBRANCH  15  20
BRANCH  16  22
ATOM     22  C5* UNL     1       5.172   7.153   5.667  0.00  0.00    +0.190 C 
BRANCH  22  23
ATOM     23  O5* UNL     1       5.495   8.150   4.699  0.00  0.00    -0.392 OA
ATOM     24  H5* UNL     1       5.837   7.669   3.922  0.00  0.00    +0.210 HD
ENDBRANCH  22  23
ENDBRANCH  16  22
ENDBRANCH   5  13
BRANCH   1  26
ATOM     25  C   UNL     1      11.274   3.618   6.750  0.00  0.00    +0.279 C 
ATOM     26  O   UNL     1      10.444   3.814   5.610  0.00  0.00    -0.478 OA
ENDBRANCH   1  26
TORSDOF 6
