REMARK  Name = 
REMARK  4 active torsions:
REMARK  status: ('A' for Active; 'I' for Inactive)
REMARK    1  A    between atoms: N_6  and  C_12
REMARK    2  A    between atoms: C_9  and  O_10
REMARK    3  A    between atoms: C_14  and  C_18
REMARK    4  A    between atoms: C_18  and  O_19
REMARK                            x       y       z     vdW  Elec       q    Type
REMARK                         _______ _______ _______ _____ _____    ______ ____
ROOT
ATOM      1  N   UNL     1       1.456  -0.468  -0.169  0.00  0.00    -0.327 N 
ATOM      2  H   UNL     1       0.954   0.358   0.137  0.00  0.00    +0.145 HD
ATOM      3  H   UNL     1       1.163  -1.362   0.190  0.00  0.00    +0.145 HD
ATOM      4  C   UNL     1       2.818  -0.272  -0.058  0.00  0.00    +0.218 A 
ATOM      5  N   UNL     1       3.195   1.032  -0.006  0.00  0.00    -0.178 NA
ATOM      6  C   UNL     1       4.505   1.328   0.048  0.00  0.00    +0.247 A 
ATOM      7  C   UNL     1       5.399   0.264   0.053  0.00  0.00    +0.193 A 
ATOM      8  C   UNL     1       4.919  -1.081   0.022  0.00  0.00    +0.210 A 
ATOM      9  N   UNL     1       5.952  -1.932   0.027  0.00  0.00    -0.127 NA
ATOM     10  N   UNL     1       7.013  -1.085   0.030  0.00  0.00    -0.148 N 
ATOM     11  N   UNL     1       6.736   0.245   0.076  0.00  0.00    -0.140 NA
ATOM     12  N   UNL     1       3.597  -1.382  -0.019  0.00  0.00    -0.191 NA
ENDROOT
BRANCH  10  13
ATOM     13  C   UNL     1       8.366  -1.515  -0.045  0.00  0.00    +0.087 A 
ATOM     14  C   UNL     1       8.712  -2.870  -0.112  0.00  0.00    +0.029 A 
ATOM     15  C   UNL     1      10.062  -3.234  -0.192  0.00  0.00    +0.003 A 
ATOM     16  C   UNL     1      11.067  -2.259  -0.211  0.00  0.00    +0.015 A 
ATOM     17  C   UNL     1      10.724  -0.904  -0.155  0.00  0.00    +0.061 A 
ATOM     18  C   UNL     1       9.379  -0.540  -0.061  0.00  0.00    +0.044 A 
BRANCH  17  19
ATOM     19  C   UNL     1      11.725   0.192  -0.143  0.00  0.00    +0.337 C 
ATOM     20  O   UNL     1      11.538   1.248   0.438  0.00  0.00    -0.245 OA
BRANCH  19  21
ATOM     21  O   UNL     1      12.828  -0.063  -0.875  0.00  0.00    -0.477 OA
ATOM     22  H   UNL     1      12.774  -0.849  -1.445  0.00  0.00    +0.295 HD
ENDBRANCH  19  21
ENDBRANCH  17  19
ENDBRANCH  10  13
BRANCH   6  23
ATOM     23  O   UNL     1       4.890   2.644   0.069  0.00  0.00    -0.491 OA
ATOM     24  H   UNL     1       5.864   2.622   0.074  0.00  0.00    +0.294 HD
ENDBRANCH   6  23
TORSDOF 4
