REMARK  Name = 
REMARK  7 active torsions:
REMARK  status: ('A' for Active; 'I' for Inactive)
REMARK    1  A    between atoms: C_1  and  O_2
REMARK    2  A    between atoms: O_2  and  C_3
REMARK    3  A    between atoms: C_6  and  C_8
REMARK    4  A    between atoms: C_8  and  O_9
REMARK    5  A    between atoms: C_10  and  O_12
REMARK    6  A    between atoms: C_13  and  O_15
REMARK    7  A    between atoms: C_16  and  O_18
REMARK                            x       y       z     vdW  Elec       q    Type
REMARK                         _______ _______ _______ _____ _____    ______ ____
ROOT
ATOM      1  C   UNL     1       3.246   1.199   0.124  0.00  0.00    +0.281 C 
ATOM      2  C   UNL     1       3.322   2.288  -0.969  0.00  0.00    +0.201 C 
ATOM      3  C   UNL     1       2.942   1.740  -2.343  0.00  0.00    +0.179 C 
ATOM      4  C   UNL     1       3.706   0.447  -2.638  0.00  0.00    +0.177 C 
ATOM      5  C   UNL     1       3.432  -0.557  -1.516  0.00  0.00    +0.178 C 
ATOM      6  O   UNL     1       3.877  -0.034  -0.254  0.00  0.00    -0.341 OA
ENDROOT
BRANCH   1   8
ATOM      7  C   UNL     1       1.784   0.385   1.779  0.00  0.00    +0.197 C 
ATOM      8  O   UNL     1       1.882   0.978   0.488  0.00  0.00    -0.352 OA
ENDBRANCH   1   8
BRANCH   2   9
ATOM      9  O   UNL     1       4.655   2.826  -1.050  0.00  0.00    -0.384 OA
ATOM     10  H   UNL     1       4.657   3.349  -1.879  0.00  0.00    +0.210 HD
ENDBRANCH   2   9
BRANCH   3  11
ATOM     11  O   UNL     1       3.267   2.723  -3.345  0.00  0.00    -0.386 OA
ATOM     12  H   UNL     1       3.302   2.232  -4.192  0.00  0.00    +0.210 HD
ENDBRANCH   3  11
BRANCH   4  13
ATOM     13  O   UNL     1       3.326  -0.023  -3.938  0.00  0.00    -0.386 OA
ATOM     14  H   UNL     1       2.507  -0.548  -3.856  0.00  0.00    +0.210 HD
ENDBRANCH   4  13
BRANCH   5  15
ATOM     15  C   UNL     1       4.171  -1.877  -1.761  0.00  0.00    +0.190 C 
BRANCH  15  16
ATOM     16  O   UNL     1       3.795  -2.830  -0.766  0.00  0.00    -0.392 OA
ATOM     17  H   UNL     1       3.954  -2.391   0.089  0.00  0.00    +0.210 HD
ENDBRANCH  15  16
ENDBRANCH   5  15
TORSDOF 6
