REMARK  Name = 
REMARK  27 active torsions:
REMARK  status: ('A' for Active; 'I' for Inactive)
REMARK    1  A    between atoms: C_1  and  C_2
REMARK    2  A    between atoms: C_2  and  C_3
REMARK    3  A    between atoms: C_2  and  C_4
REMARK    4  A    between atoms: C_2  and  C_40
REMARK    5  A    between atoms: C_4  and  O_5
REMARK    6  A    between atoms: O_5  and  P_6
REMARK    7  A    between atoms: P_6  and  O_7
REMARK    8  A    between atoms: P_6  and  O_9
REMARK    9  A    between atoms: O_9  and  P_10
REMARK   10  A    between atoms: P_10  and  O_11
REMARK   11  A    between atoms: P_10  and  O_13
REMARK   12  A    between atoms: O_13  and  C_14
REMARK   13  A    between atoms: C_14  and  C_15
REMARK   14  A    between atoms: C_18  and  N_30
REMARK   15  A    between atoms: C_20  and  O_22
REMARK   16  A    between atoms: C_23  and  O_25
REMARK   17  A    between atoms: O_25  and  P_26
REMARK   18  A    between atoms: P_26  and  O_27
REMARK   19  A    between atoms: P_26  and  O_28
REMARK   20  A    between atoms: C_40  and  O_42
REMARK   21  A    between atoms: C_40  and  C_43
REMARK   22  A    between atoms: N_45  and  C_46
REMARK   23  A    between atoms: C_46  and  C_47
REMARK   24  A    between atoms: C_47  and  C_48
REMARK   25  A    between atoms: N_50  and  C_51
REMARK   26  A    between atoms: C_51  and  C_52
REMARK   27  A    between atoms: C_52  and  S_53
REMARK                            x       y       z     vdW  Elec       q    Type
REMARK                         _______ _______ _______ _____ _____    ______ ____
ROOT
ATOM      1  P   UNL     1       8.031   8.283  -0.709  0.00  0.00    +0.483 P 
ATOM      2  O   UNL     1       8.033   8.595   0.759  0.00  0.00    -0.227 OA
ENDROOT
BRANCH   1   3
ATOM      3  O   UNL     1       9.059   9.263  -1.540  0.00  0.00    -0.302 OA
ATOM      4  H   UNL     1       9.479   9.768  -0.842  0.00  0.00    +0.222 HD
ENDBRANCH   1   3
BRANCH   1   5
ATOM      5  O   UNL     1       7.127   9.446  -1.334  0.00  0.00    -0.186 OA
BRANCH   5   6
ATOM      6  P   UNL     1       5.684   9.298  -2.277  0.00  0.00    +0.483 P 
ATOM      7  O   UNL     1       5.226   8.073  -1.486  0.00  0.00    -0.227 OA
BRANCH   6   8
ATOM      8  O   UNL     1       4.242   9.150  -3.220  0.00  0.00    -0.302 OA
ATOM      9  H   UNL     1       3.824   8.342  -2.855  0.00  0.00    +0.222 HD
ENDBRANCH   6   8
BRANCH   6  10
ATOM     10  O   UNL     1       5.112  10.662  -1.583  0.00  0.00    -0.286 OA
BRANCH  10  11
ATOM     11  C   UNL     1       4.918  11.797  -2.413  0.00  0.00    +0.181 C 
BRANCH  11  13
ATOM     12  C   UNL     1       7.144  12.903  -1.948  0.00  0.00    +0.016 C 
ATOM     13  C   UNL     1       6.177  12.453  -3.065  0.00  0.00    +0.024 C 
ATOM     14  C   UNL     1       6.993  11.511  -3.980  0.00  0.00    +0.016 C 
BRANCH  13  15
ATOM     15  C   UNL     1       5.664  13.696  -3.872  0.00  0.00    +0.208 C 
BRANCH  15  16
ATOM     16  C   UNL     1       4.617  13.313  -4.958  0.00  0.00    +0.242 C 
ATOM     17  N   UNL     1       3.618  14.250  -5.146  0.00  0.00    -0.313 N 
ATOM     18  H   UNL     1       3.856  15.208  -4.918  0.00  0.00    +0.149 HD
ATOM     19  O   UNL     1       4.636  12.253  -5.576  0.00  0.00    -0.273 OA
BRANCH  17  20
ATOM     20  C   UNL     1       2.587  14.037  -6.155  0.00  0.00    +0.113 C 
BRANCH  20  21
ATOM     21  C   UNL     1       1.639  12.886  -5.815  0.00  0.00    +0.114 C 
BRANCH  21  22
ATOM     22  C   UNL     1       0.568  12.723  -6.870  0.00  0.00    +0.215 C 
ATOM     23  N   UNL     1      -0.330  11.713  -6.590  0.00  0.00    -0.314 N 
ATOM     24  H   UNL     1      -0.164  11.106  -5.797  0.00  0.00    +0.149 HD
ATOM     25  O   UNL     1       0.477  13.437  -7.862  0.00  0.00    -0.276 OA
BRANCH  23  26
ATOM     26  C   UNL     1      -1.437  11.398  -7.481  0.00  0.00    +0.114 C 
BRANCH  26  27
ATOM     27  C   UNL     1      -1.057  10.451  -8.620  0.00  0.00    +0.084 C 
BRANCH  27  28
ATOM     28  S   UNL     1      -0.586   8.804  -7.994  0.00  0.00    -0.177 S 
ATOM     29  H   UNL     1       0.493   9.214  -7.312  0.00  0.00    +0.102 HD
ENDBRANCH  27  28
ENDBRANCH  26  27
ENDBRANCH  23  26
ENDBRANCH  21  22
ENDBRANCH  20  21
ENDBRANCH  17  20
ENDBRANCH  15  16
BRANCH  15  30
ATOM     30  O   UNL     1       6.719  14.423  -4.495  0.00  0.00    -0.382 OA
ATOM     31  H   UNL     1       7.308  14.764  -3.801  0.00  0.00    +0.210 HD
ENDBRANCH  15  30
ENDBRANCH  13  15
ENDBRANCH  11  13
ENDBRANCH  10  11
ENDBRANCH   6  10
ENDBRANCH   5   6
ENDBRANCH   1   5
BRANCH   1  32
ATOM     32  O   UNL     1       9.404   7.436  -0.913  0.00  0.00    -0.284 OA
BRANCH  32  33
ATOM     33  C   UNL     1       9.600   6.154  -0.331  0.00  0.00    +0.206 C 
BRANCH  33  34
ATOM     34  C   UNL     1      11.049   5.807   0.132  0.00  0.00    +0.179 C 
ATOM     35  C   UNL     1      11.511   6.253   1.527  0.00  0.00    +0.194 C 
ATOM     36  C   UNL     1      11.145   5.097   2.460  0.00  0.00    +0.196 C 
ATOM     37  C   UNL     1      10.869   3.915   1.520  0.00  0.00    +0.253 C 
ATOM     38  O   UNL     1      11.179   4.353   0.176  0.00  0.00    -0.346 OA
BRANCH  37  39
ATOM     39  N   UNL     1      11.601   2.697   1.844  0.00  0.00    -0.286 N 
ATOM     40  C   UNL     1      11.586   2.056   3.062  0.00  0.00    +0.167 A 
ATOM     41  N   UNL     1      10.956   2.435   4.185  0.00  0.00    -0.216 NA
ATOM     42  C   UNL     1      11.187   1.553   5.179  0.00  0.00    +0.225 A 
ATOM     43  N   UNL     1      11.950   0.440   5.152  0.00  0.00    -0.219 NA
ATOM     44  C   UNL     1      12.557   0.080   3.989  0.00  0.00    +0.147 A 
ATOM     45  N   UNL     1      13.295  -1.075   3.959  0.00  0.00    -0.341 N 
ATOM     46  H   UNL     1      13.437  -1.456   3.033  0.00  0.00    +0.144 HD
ATOM     47  H   UNL     1      13.083  -1.696   4.740  0.00  0.00    +0.144 HD
ATOM     48  C   UNL     1      12.368   0.923   2.879  0.00  0.00    +0.147 A 
ATOM     49  N   UNL     1      12.821   0.846   1.578  0.00  0.00    -0.231 NA
ATOM     50  C   UNL     1      12.332   1.917   0.986  0.00  0.00    +0.203 A 
ENDBRANCH  37  39
BRANCH  36  51
ATOM     51  O   UNL     1       9.979   5.413   3.219  0.00  0.00    -0.385 OA
ATOM     52  H   UNL     1       9.955   4.779   3.965  0.00  0.00    +0.210 HD
ENDBRANCH  36  51
BRANCH  35  53
ATOM     53  O   UNL     1      12.943   6.310   1.464  0.00  0.00    -0.278 OA
BRANCH  53  54
ATOM     54  P   UNL     1      13.758   7.128   2.570  0.00  0.00    +0.473 P 
ATOM     55  O   UNL     1      13.490   6.828   4.001  0.00  0.00    -0.228 OA
BRANCH  54  56
ATOM     56  O   UNL     1      15.252   6.802   2.110  0.00  0.00    -0.303 OA
ATOM     57  H   UNL     1      15.446   5.853   2.226  0.00  0.00    +0.222 HD
ENDBRANCH  54  56
BRANCH  54  58
ATOM     58  O   UNL     1      13.653   8.638   2.074  0.00  0.00    -0.303 OA
ATOM     59  H   UNL     1      14.277   8.787   1.339  0.00  0.00    +0.222 HD
ENDBRANCH  54  58
ENDBRANCH  53  54
ENDBRANCH  35  53
ENDBRANCH  33  34
ENDBRANCH  32  33
ENDBRANCH   1  32
TORSDOF 25
