REMARK  Name = 
REMARK  9 active torsions:
REMARK  status: ('A' for Active; 'I' for Inactive)
REMARK    1  A    between atoms: C_1  and  C_2
REMARK    2  A    between atoms: C_2  and  C_3
REMARK    3  A    between atoms: N_5  and  C_6
REMARK    4  A    between atoms: N_5  and  C_22
REMARK    5  A    between atoms: N_9  and  C_10
REMARK    6  A    between atoms: C_10  and  C_11
REMARK    7  A    between atoms: C_11  and  O_12
REMARK    8  A    between atoms: C_11  and  C_13
REMARK    9  A    between atoms: C_20  and  C_21
REMARK                            x       y       z     vdW  Elec       q    Type
REMARK                         _______ _______ _______ _____ _____    ______ ____
ROOT
ATOM      1  C   UNL     1       5.302   0.644  -0.683  0.00  0.00    +0.087 C 
ATOM      2  C   UNL     1       6.725   1.231  -0.895  0.00  0.00    +0.021 C 
ATOM      3  C   UNL     1       7.725   0.800   0.191  0.00  0.00    +0.010 C 
ATOM      4  C   UNL     1       7.224   0.897  -2.314  0.00  0.00    +0.089 C 
ATOM      5  N   UNL     1       7.176  -0.515  -2.703  0.00  0.00    -0.299 NA
ATOM      6  C   UNL     1       5.898  -1.147  -2.382  0.00  0.00    +0.086 C 
ATOM      7  C   UNL     1       5.401  -0.879  -0.958  0.00  0.00    +0.038 C 
ENDROOT
BRANCH   1   9
ATOM      8  C   UNL     1       4.269   2.534  -2.116  0.00  0.00    +0.220 C 
ATOM      9  N   UNL     1       4.173   1.287  -1.474  0.00  0.00    -0.268 N 
ATOM     10  O   UNL     1       5.275   3.244  -2.113  0.00  0.00    -0.275 OA
BRANCH   9  11
ATOM     11  C   UNL     1       2.874   0.741  -1.237  0.00  0.00    +0.037 A 
ATOM     12  C   UNL     1       2.061   1.245  -0.218  0.00  0.00    +0.023 A 
ATOM     13  C   UNL     1       0.763   0.747  -0.055  0.00  0.00    +0.002 A 
ATOM     14  C   UNL     1       0.289  -0.263  -0.895  0.00  0.00    +0.000 A 
ATOM     15  C   UNL     1       1.099  -0.763  -1.911  0.00  0.00    +0.002 A 
ATOM     16  C   UNL     1       2.382  -0.254  -2.089  0.00  0.00    +0.023 A 
ENDBRANCH   9  11
BRANCH   8  18
ATOM     17  C   UNL     1       3.360   4.143  -3.844  0.00  0.00    +0.013 C 
ATOM     18  C   UNL     1       3.033   3.011  -2.880  0.00  0.00    +0.093 C 
ENDBRANCH   8  18
ENDBRANCH   1   9
BRANCH   5  19
ATOM     19  C   UNL     1       8.337  -1.342  -2.369  0.00  0.00    +0.120 C 
BRANCH  19  20
ATOM     20  C   UNL     1       9.734  -0.788  -2.767  0.00  0.00    +0.158 C 
BRANCH  20  21
ATOM     21  C   UNL     1       9.875  -0.489  -4.250  0.00  0.00    -0.018 A 
ATOM     22  C   UNL     1       9.691  -1.482  -5.228  0.00  0.00    +0.006 A 
ATOM     23  C   UNL     1       9.787  -1.170  -6.586  0.00  0.00    +0.000 A 
ATOM     24  C   UNL     1      10.059   0.137  -6.990  0.00  0.00    +0.000 A 
ATOM     25  C   UNL     1      10.242   1.132  -6.033  0.00  0.00    +0.000 A 
ATOM     26  C   UNL     1      10.159   0.821  -4.675  0.00  0.00    +0.006 A 
ENDBRANCH  20  21
BRANCH  20  27
ATOM     27  O   UNL     1      10.729  -1.734  -2.351  0.00  0.00    -0.386 OA
ATOM     28  H   UNL     1      10.830  -2.382  -3.065  0.00  0.00    +0.210 HD
ENDBRANCH  20  27
ENDBRANCH  19  20
ENDBRANCH   5  19
TORSDOF 7
