REMARK  Name = 
REMARK  2 active torsions:
REMARK  status: ('A' for Active; 'I' for Inactive)
REMARK    1  A    between atoms: N_1  and  C_2
REMARK    2  A    between atoms: C_4  and  C_9
REMARK                            x       y       z     vdW  Elec       q    Type
REMARK                         _______ _______ _______ _____ _____    ______ ____
ROOT
ATOM      1  C   UNL     1       2.314   0.065   0.148  0.00  0.00    +0.090 A 
ATOM      2  C   UNL     1       3.104  -1.233   0.084  0.00  0.00    +0.270 A 
ATOM      3  O   UNL     1       2.542  -2.326   0.118  0.00  0.00    -0.266 OA
ATOM      4  N   UNL     1       4.466  -1.111  -0.040  0.00  0.00    -0.327 N 
ATOM      5  H   UNL     1       4.982  -1.981  -0.073  0.00  0.00    +0.168 HD
ATOM      6  C   UNL     1       5.120   0.087  -0.173  0.00  0.00    +0.094 A 
ATOM      7  C   UNL     1       4.439   1.247  -0.171  0.00  0.00    +0.000 A 
ATOM      8  C   UNL     1       2.997   1.213   0.010  0.00  0.00    +0.038 A 
ENDROOT
BRANCH   7   9
ATOM      9  C   UNL     1       5.192   2.492  -0.389  0.00  0.00    -0.014 A 
ATOM     10  C   UNL     1       5.758   3.187   0.679  0.00  0.00    +0.028 A 
ATOM     11  C   UNL     1       6.470   4.343   0.402  0.00  0.00    +0.111 A 
ATOM     12  N   UNL     1       6.646   4.839  -0.842  0.00  0.00    -0.263 NA
ATOM     13  C   UNL     1       6.081   4.152  -1.857  0.00  0.00    +0.111 A 
ATOM     14  C   UNL     1       5.351   2.988  -1.685  0.00  0.00    +0.028 A 
ENDBRANCH   7   9
BRANCH   1  15
ATOM     15  N   UNL     1       0.944  -0.032   0.323  0.00  0.00    -0.354 N 
ATOM     16  H   UNL     1       0.614  -0.967   0.069  0.00  0.00    +0.142 HD
ATOM     17  H   UNL     1       0.419   0.714  -0.122  0.00  0.00    +0.142 HD
ENDBRANCH   1  15
TORSDOF 2
