REMARK  Name = 
REMARK  7 active torsions:
REMARK  status: ('A' for Active; 'I' for Inactive)
REMARK    1  A    between atoms: C_4  and  C_5
REMARK    2  A    between atoms: C_4  and  C_6
REMARK    3  A    between atoms: CA_7  and  C_24
REMARK    4  A    between atoms: CA_12  and  N_14
REMARK    5  A    between atoms: C_15  and  C_17
REMARK    6  A    between atoms: C_17  and  N_18
REMARK    7  A    between atoms: C_24  and  O_25
REMARK                            x       y       z     vdW  Elec       q    Type
REMARK                         _______ _______ _______ _____ _____    ______ ____
ROOT
ATOM      1  C   UNL     1       2.189   0.205   0.033  0.00  0.00    +0.165 C 
ATOM      2  CA  UNL     1       2.635  -1.032   0.852  0.00  0.00    +0.190 C 
ATOM      3  C   UNL     1       3.572  -1.309  -0.339  0.00  0.00    +0.240 C 
ATOM      4  O   UNL     1       4.562  -1.972  -0.544  0.00  0.00    -0.273 OA
ATOM      5  N   UNL     1       3.007  -0.311  -1.091  0.00  0.00    -0.271 N 
ATOM      6  CA  UNL     1       3.869   0.671  -1.777  0.00  0.00    +0.201 C 
ATOM      7  C   UNL     1       4.336   1.691  -0.710  0.00  0.00    +0.042 C 
ATOM      8  C   UNL     1       5.561   1.183   0.078  0.00  0.00    +0.025 C 
ATOM      9  C   UNL     1       4.693   3.087  -1.231  0.00  0.00    +0.025 C 
ATOM     10  S   UNL     1       2.931   1.828   0.482  0.00  0.00    -0.127 S 
ENDROOT
BRANCH   2  11
ATOM     11  N   UNL     1       3.271  -0.756   2.168  0.00  0.00    -0.300 N 
ATOM     12  H   UNL     1       4.274  -0.644   2.239  0.00  0.00    +0.150 HD
ATOM     13  C   UNL     1       2.478  -0.455   3.249  0.00  0.00    +0.234 C 
ATOM     14  O   UNL     1       1.254  -0.397   3.113  0.00  0.00    -0.274 OA
BRANCH  13  15
ATOM     15  C   UNL     1       3.193  -0.070   4.585  0.00  0.00    +0.094 C 
ATOM     16  C   UNL     1       4.585  -0.691   4.803  0.00  0.00    +0.031 C 
ATOM     17  C   UNL     1       4.542  -2.212   4.949  0.00  0.00    +0.002 C 
ATOM     18  C   UNL     1       3.538  -2.668   6.005  0.00  0.00    +0.000 C 
ATOM     19  C   UNL     1       2.168  -2.020   5.834  0.00  0.00    +0.002 C 
ATOM     20  C   UNL     1       2.273  -0.493   5.750  0.00  0.00    +0.031 C 
BRANCH  15  21
ATOM     21  N   UNL     1       3.342   1.403   4.592  0.00  0.00    -0.317 NA
ATOM     22  H   UNL     1       3.885   1.706   3.784  0.00  0.00    +0.119 HD
ATOM     23  H   UNL     1       2.417   1.823   4.470  0.00  0.00    +0.119 HD
ENDBRANCH  15  21
ENDBRANCH  13  15
ENDBRANCH   2  11
BRANCH   6  24
ATOM     24  C   UNL     1       3.072   1.250  -2.960  0.00  0.00    +0.327 C 
ATOM     25  OXT UNL     1       3.441   2.176  -3.666  0.00  0.00    -0.249 OA
BRANCH  24  26
ATOM     26  O   UNL     1       1.926   0.570  -3.226  0.00  0.00    -0.479 OA
ATOM     27  H   UNL     1       1.839  -0.200  -2.627  0.00  0.00    +0.295 HD
ENDBRANCH  24  26
ENDBRANCH   6  24
TORSDOF 5
