REMARK  Name = 
REMARK  6 active torsions:
REMARK  status: ('A' for Active; 'I' for Inactive)
REMARK    1  A    between atoms: C_1  and  C_2
REMARK    2  A    between atoms: C_5  and  C_8
REMARK    3  A    between atoms: N_10  and  C_18
REMARK    4  A    between atoms: C_18  and  C_19
REMARK    5  A    between atoms: C_18  and  C_20
REMARK    6  A    between atoms: C_18  and  C_21
REMARK                            x       y       z     vdW  Elec       q    Type
REMARK                         _______ _______ _______ _____ _____    ______ ____
ROOT
ATOM      1  C   UNL     1       6.627   0.173  -0.584  0.00  0.00    +0.105 A 
ATOM      2  C   UNL     1       7.424   1.355  -0.725  0.00  0.00    +0.086 A 
ATOM      3  C   UNL     1       7.288   2.752  -0.644  0.00  0.00    +0.131 A 
ATOM      4  N   UNL     1       8.355   3.531  -0.917  0.00  0.00    -0.220 NA
ATOM      5  C   UNL     1       9.522   2.944  -1.228  0.00  0.00    +0.225 A 
ATOM      6  N   UNL     1       9.785   1.634  -1.291  0.00  0.00    -0.216 NA
ATOM      7  N   UNL     1       6.140   3.436  -0.266  0.00  0.00    -0.342 N 
ATOM      8  H   UNL     1       6.374   4.409  -0.099  0.00  0.00    +0.144 HD
ATOM      9  H   UNL     1       5.635   2.989   0.492  0.00  0.00    +0.144 HD
ATOM     10  C   UNL     1       8.695   0.891  -1.032  0.00  0.00    +0.164 A 
ATOM     11  N   UNL     1       8.625  -0.480  -1.017  0.00  0.00    -0.240 N 
ATOM     12  N   UNL     1       7.386  -0.930  -0.732  0.00  0.00    -0.168 NA
ENDROOT
BRANCH   1  17
ATOM     13  C   UNL     1       0.976  -0.585   0.523  0.00  0.00    +0.044 C 
ATOM     14  C   UNL     1       2.430  -0.399   0.207  0.00  0.00    -0.050 A 
ATOM     15  C   UNL     1       2.872   0.751  -0.456  0.00  0.00    +0.004 A 
ATOM     16  C   UNL     1       4.233   0.939  -0.736  0.00  0.00    +0.010 A 
ATOM     17  C   UNL     1       5.188   0.008  -0.316  0.00  0.00    +0.003 A 
ATOM     18  C   UNL     1       4.733  -1.148   0.341  0.00  0.00    +0.010 A 
ATOM     19  C   UNL     1       3.373  -1.351   0.601  0.00  0.00    +0.004 A 
ENDBRANCH   1  17
BRANCH  11  20
ATOM     20  C   UNL     1       9.716  -1.437  -1.286  0.00  0.00    +0.058 C 
ATOM     21  C   UNL     1      10.852  -1.266  -0.256  0.00  0.00    +0.036 C 
ATOM     22  C   UNL     1      10.268  -1.226  -2.708  0.00  0.00    +0.036 C 
ATOM     23  C   UNL     1       9.227  -2.903  -1.191  0.00  0.00    +0.036 C 
ENDBRANCH  11  20
TORSDOF 2
