REMARK  Name = 
REMARK  13 active torsions:
REMARK  status: ('A' for Active; 'I' for Inactive)
REMARK    1  A    between atoms: C_1  and  C_2
REMARK    2  A    between atoms: C_2  and  C_3
REMARK    3  A    between atoms: C_2  and  N_4
REMARK    4  A    between atoms: C_5  and  C_6
REMARK    5  A    between atoms: C_7  and  C_8
REMARK    6  A    between atoms: C_8  and  O_10
REMARK    7  A    between atoms: C_8  and  C_11
REMARK    8  A    between atoms: C_11  and  C_12
REMARK    9  A    between atoms: C_12  and  O_14
REMARK   10  A    between atoms: C_12  and  C_15
REMARK   11  A    between atoms: C_15  and  C_16
REMARK   12  A    between atoms: C_16  and  O_17
REMARK   13  A    between atoms: C_19  and  C_26
REMARK                            x       y       z     vdW  Elec       q    Type
REMARK                         _______ _______ _______ _____ _____    ______ ____
ROOT
ATOM      1  N   UNL     1       2.861   1.040   0.983  0.00  0.00    -0.337 N 
ATOM      2  C   UNL     1       3.544   0.900   2.189  0.00  0.00    +0.050 A 
ATOM      3  C   UNL     1       3.605   2.163   2.787  0.00  0.00    +0.008 A 
ATOM      4  C   UNL     1       4.192   2.267   4.071  0.00  0.00    +0.010 A 
ATOM      5  C   UNL     1       4.742   1.143   4.694  0.00  0.00    +0.001 A 
ATOM      6  C   UNL     1       4.699  -0.093   4.067  0.00  0.00    +0.002 A 
ATOM      7  C   UNL     1       3.006   3.102   1.876  0.00  0.00    +0.015 A 
ATOM      8  C   UNL     1       4.096  -0.237   2.816  0.00  0.00    +0.026 A 
ATOM      9  C   UNL     1       2.601   2.385   0.754  0.00  0.00    +0.051 A 
ENDROOT
BRANCH   7  10
ATOM     10  C   UNL     1       2.857   4.560   2.023  0.00  0.00    -0.015 A 
ATOM     11  C   UNL     1       3.858   5.319   2.646  0.00  0.00    +0.011 A 
ATOM     12  C   UNL     1       3.738   6.708   2.764  0.00  0.00    +0.039 A 
ATOM     13  C   UNL     1       2.634   7.350   2.227  0.00  0.00    +0.123 A 
ATOM     14  F   UNL     1       2.539   8.684   2.301  0.00  0.00    -0.205 F 
ATOM     15  C   UNL     1       1.626   6.628   1.605  0.00  0.00    +0.039 A 
ATOM     16  C   UNL     1       1.727   5.236   1.531  0.00  0.00    +0.011 A 
ENDBRANCH   7  10
BRANCH   1  18
ATOM     17  C   UNL     1       0.983  -0.262  -0.062  0.00  0.00    +0.030 C 
ATOM     18  C   UNL     1       2.493  -0.109   0.147  0.00  0.00    +0.082 C 
ATOM     19  C   UNL     1       3.317  -0.202  -1.138  0.00  0.00    +0.030 C 
ENDBRANCH   1  18
BRANCH   9  20
ATOM     20  C   UNL     1       1.949   2.825  -0.437  0.00  0.00    +0.025 C 
ATOM     21  C   UNL     1       2.637   3.415  -1.430  0.00  0.00    +0.006 C 
BRANCH  21  22
ATOM     22  C   UNL     1       2.053   4.084  -2.654  0.00  0.00    +0.140 C 
BRANCH  22  23
ATOM     23  O   UNL     1       0.625   4.107  -2.600  0.00  0.00    -0.388 OA
ATOM     24  H   UNL     1       0.329   3.182  -2.524  0.00  0.00    +0.210 HD
ENDBRANCH  22  23
BRANCH  22  25
ATOM     25  C   UNL     1       2.547   5.537  -2.801  0.00  0.00    +0.067 C 
BRANCH  25  26
ATOM     26  C   UNL     1       1.982   6.240  -4.052  0.00  0.00    +0.128 C 
BRANCH  26  27
ATOM     27  O   UNL     1       0.549   6.340  -3.980  0.00  0.00    -0.391 OA
ATOM     28  H   UNL     1       0.237   5.556  -3.469  0.00  0.00    +0.210 HD
ENDBRANCH  26  27
BRANCH  26  29
ATOM     29  C   UNL     1       2.519   7.666  -4.186  0.00  0.00    +0.151 C 
BRANCH  29  30
ATOM     30  C   UNL     1       2.057   8.362  -5.449  0.00  0.00    +0.307 C 
ATOM     31  O   UNL     1       2.756   9.153  -6.070  0.00  0.00    -0.251 OA
BRANCH  30  32
ATOM     32  O   UNL     1       0.777   8.110  -5.796  0.00  0.00    -0.481 OA
ATOM     33  H   UNL     1       0.348   7.480  -5.163  0.00  0.00    +0.295 HD
ENDBRANCH  30  32
ENDBRANCH  29  30
ENDBRANCH  26  29
ENDBRANCH  25  26
ENDBRANCH  22  25
ENDBRANCH  21  22
ENDBRANCH   9  20
TORSDOF 11
