REMARK  Name = 
REMARK  3 active torsions:
REMARK  status: ('A' for Active; 'I' for Inactive)
REMARK    1  A    between atoms: C_2  and  C_4
REMARK    2  A    between atoms: C_9  and  C_14
REMARK    3  A    between atoms: N_16  and  C_17
REMARK                            x       y       z     vdW  Elec       q    Type
REMARK                         _______ _______ _______ _____ _____    ______ ____
ROOT
ATOM      1  C   UNL     1       3.094  -0.641   1.070  0.00  0.00    +0.065 A 
ATOM      2  C   UNL     1       2.856  -2.016   1.187  0.00  0.00    +0.024 A 
ATOM      3  C   UNL     1       3.495  -2.770   2.184  0.00  0.00    -0.017 A 
ATOM      4  C   UNL     1       4.357  -2.114   3.091  0.00  0.00    -0.017 A 
ATOM      5  C   UNL     1       4.985  -2.857   4.097  0.00  0.00    +0.021 A 
ATOM      6  C   UNL     1       4.791  -4.242   4.206  0.00  0.00    +0.038 A 
ATOM      7  C   UNL     1       3.962  -4.897   3.293  0.00  0.00    +0.013 A 
ATOM      8  C   UNL     1       4.579  -0.733   2.970  0.00  0.00    +0.009 A 
ATOM      9  C   UNL     1       3.310  -4.160   2.296  0.00  0.00    +0.009 A 
ATOM     10  C   UNL     1       3.957   0.000   1.959  0.00  0.00    +0.016 A 
ENDROOT
BRANCH   1  14
ATOM     11  N   UNL     1       3.032   1.226  -0.554  0.00  0.00    -0.247 N 
ATOM     12  H   UNL     1       4.046   1.227  -0.504  0.00  0.00    +0.288 HD
ATOM     13  H   UNL     1       2.708   1.492  -1.476  0.00  0.00    +0.288 HD
ATOM     14  C   UNL     1       2.421   0.133  -0.010  0.00  0.00    +0.308 C 
ATOM     15  N   UNL     1       1.263  -0.249  -0.437  0.00  0.00    -0.099 NA
ATOM     16  H   UNL     1       0.922   0.407  -1.141  0.00  0.00    +0.363 HD
ENDBRANCH   1  14
BRANCH   6  17
ATOM     17  C   UNL     1       5.548  -4.948   5.280  0.00  0.00    +0.248 C 
ATOM     18  N   UNL     1       4.957  -6.081   5.813  0.00  0.00    -0.282 N 
ATOM     19  H   UNL     1       4.051  -6.352   5.461  0.00  0.00    +0.155 HD
ATOM     20  O   UNL     1       6.616  -4.454   5.625  0.00  0.00    -0.270 OA
BRANCH  18  21
ATOM     21  C   UNL     1       5.463  -6.868   6.876  0.00  0.00    +0.034 A 
ATOM     22  C   UNL     1       4.712  -7.980   7.279  0.00  0.00    +0.023 A 
ATOM     23  C   UNL     1       5.148  -8.793   8.331  0.00  0.00    +0.002 A 
ATOM     24  C   UNL     1       6.337  -8.502   8.995  0.00  0.00    +0.000 A 
ATOM     25  C   UNL     1       7.090  -7.400   8.605  0.00  0.00    +0.002 A 
ATOM     26  C   UNL     1       6.656  -6.591   7.551  0.00  0.00    +0.023 A 
ENDBRANCH  18  21
ENDBRANCH   6  17
TORSDOF 3
