REMARK  Name = 
REMARK  9 active torsions:
REMARK  status: ('A' for Active; 'I' for Inactive)
REMARK    1  A    between atoms: C_1  and  O_2
REMARK    2  A    between atoms: O_2  and  C_3
REMARK    3  A    between atoms: C_8  and  C_9
REMARK    4  A    between atoms: C_9  and  C_10
REMARK    5  A    between atoms: C_9  and  C_11
REMARK    6  A    between atoms: C_9  and  O_12
REMARK    7  A    between atoms: N_23  and  C_24
REMARK    8  A    between atoms: C_24  and  C_25
REMARK    9  A    between atoms: C_28  and  O_29
REMARK                            x       y       z     vdW  Elec       q    Type
REMARK                         _______ _______ _______ _____ _____    ______ ____
ROOT
ATOM      1  C   UNL     1       5.876   0.451  -1.477  0.00  0.00    +0.130 C 
ATOM      2  C   UNL     1       6.448   0.322  -3.204  0.00  0.00    +0.221 C 
ATOM      3  C   UNL     1       5.621  -0.738  -4.072  0.00  0.00    +0.051 C 
ATOM      4  C   UNL     1       5.233  -0.420  -5.567  0.00  0.00    +0.031 C 
ATOM      5  C   UNL     1       3.727  -0.353  -5.778  0.00  0.00    +0.086 C 
ATOM      6  N   UNL     1       3.111  -1.563  -5.241  0.00  0.00    -0.298 NA
ATOM      7  C   UNL     1       3.747  -2.378  -4.157  0.00  0.00    +0.072 C 
ATOM      8  C   UNL     1       4.757  -3.439  -4.738  0.00  0.00    +0.055 C 
ATOM      9  C   UNL     1       6.257  -3.090  -4.622  0.00  0.00    -0.038 A 
ATOM     10  C   UNL     1       7.328  -3.945  -4.823  0.00  0.00    +0.008 A 
ATOM     11  C   UNL     1       8.652  -3.444  -4.723  0.00  0.00    +0.049 A 
ATOM     12  C   UNL     1       8.922  -2.107  -4.364  0.00  0.00    +0.159 A 
ATOM     13  C   UNL     1       7.875  -1.294  -4.015  0.00  0.00    +0.166 A 
ATOM     14  C   UNL     1       6.616  -1.793  -4.239  0.00  0.00    +0.012 A 
ATOM     15  C   UNL     1       4.520  -1.517  -3.171  0.00  0.00    +0.018 C 
ATOM     16  C   UNL     1       5.199  -2.186  -1.658  0.00  0.00    +0.023 C 
ATOM     17  C   UNL     1       3.694  -0.373  -2.445  0.00  0.00    -0.019 C 
ATOM     18  O   UNL     1       7.887  -0.042  -3.427  0.00  0.00    -0.481 OA
ATOM     19  C   UNL     1       6.241  -1.042  -0.845  0.00  0.00    +0.061 C 
ATOM     20  C   UNL     1       4.210   0.513  -1.575  0.00  0.00    +0.008 C 
ENDROOT
BRANCH  19  21
ATOM     21  C   UNL     1       6.563  -1.270   0.787  0.00  0.00    +0.066 C 
ATOM     22  C   UNL     1       7.316  -0.146   1.577  0.00  0.00    +0.041 C 
ATOM     23  C   UNL     1       7.453  -2.518   0.984  0.00  0.00    +0.041 C 
BRANCH  21  24
ATOM     24  O   UNL     1       5.342  -1.528   1.497  0.00  0.00    -0.389 OA
ATOM     25  H   UNL     1       5.568  -2.066   2.286  0.00  0.00    +0.210 HD
ENDBRANCH  21  24
ENDBRANCH  19  21
BRANCH   1  27
ATOM     26  C   UNL     1       5.570   2.818  -1.189  0.00  0.00    +0.195 C 
ATOM     27  O   UNL     1       6.310   1.627  -0.820  0.00  0.00    -0.368 OA
ENDBRANCH   1  27
BRANCH  12  28
ATOM     28  O   UNL     1      10.207  -1.657  -4.418  0.00  0.00    -0.503 OA
ATOM     29  H   UNL     1      10.156  -0.688  -4.518  0.00  0.00    +0.292 HD
ENDBRANCH  12  28
BRANCH   6  30
ATOM     30  C   UNL     1       1.729  -1.821  -5.608  0.00  0.00    +0.088 C 
BRANCH  30  31
ATOM     31  C   UNL     1       0.749  -0.849  -5.014  0.00  0.00    +0.003 C 
ATOM     32  C   UNL     1      -0.111  -1.273  -3.851  0.00  0.00    +0.005 C 
ATOM     33  C   UNL     1      -0.740  -1.051  -5.195  0.00  0.00    +0.005 C 
ENDBRANCH  30  31
ENDBRANCH   6  30
TORSDOF 6
