REMARK  Name = 
REMARK  15 active torsions:
REMARK  status: ('A' for Active; 'I' for Inactive)
REMARK    1  A    between atoms: C_1  and  C_2
REMARK    2  A    between atoms: C_2  and  C_3
REMARK    3  A    between atoms: C_3  and  C_4
REMARK    4  A    between atoms: N_6  and  C_7
REMARK    5  A    between atoms: C_9  and  C_10
REMARK    6  A    between atoms: C_10  and  C_11
REMARK    7  A    between atoms: C_13  and  O_14
REMARK    8  A    between atoms: O_14  and  C_15
REMARK    9  A    between atoms: C_15  and  C_16
REMARK   10  A    between atoms: C_16  and  O_17
REMARK   11  A    between atoms: C_16  and  C_18
REMARK   12  A    between atoms: C_18  and  N_19
REMARK   13  A    between atoms: N_19  and  C_20
REMARK   14  A    between atoms: C_20  and  C_21
REMARK   15  A    between atoms: C_20  and  C_22
REMARK                            x       y       z     vdW  Elec       q    Type
REMARK                         _______ _______ _______ _____ _____    ______ ____
ROOT
ATOM      1  C   UNL     1       6.812  -2.585   0.968  0.00  0.00    +0.034 A 
ATOM      2  C   UNL     1       7.512  -1.396   1.169  0.00  0.00    +0.027 A 
ATOM      3  C   UNL     1       8.904  -1.408   1.327  0.00  0.00    +0.048 A 
ATOM      4  C   UNL     1       9.630  -2.607   1.261  0.00  0.00    +0.131 A 
ATOM      5  C   UNL     1       8.932  -3.798   1.007  0.00  0.00    +0.060 A 
ATOM      6  C   UNL     1       7.533  -3.775   0.865  0.00  0.00    +0.038 A 
ENDROOT
BRANCH   1   8
ATOM      7  C   UNL     1       4.540  -3.604   0.933  0.00  0.00    +0.217 C 
ATOM      8  N   UNL     1       5.407  -2.524   0.867  0.00  0.00    -0.285 N 
ATOM      9  H   UNL     1       4.989  -1.602   0.847  0.00  0.00    +0.155 HD
ATOM     10  O   UNL     1       4.839  -4.760   1.210  0.00  0.00    -0.275 OA
BRANCH   7  11
ATOM     11  C   UNL     1       3.095  -3.247   0.646  0.00  0.00    +0.096 C 
BRANCH  11  13
ATOM     12  C   UNL     1       3.306  -3.731  -1.839  0.00  0.00    +0.004 C 
ATOM     13  C   UNL     1       2.874  -2.733  -0.773  0.00  0.00    +0.006 C 
ENDBRANCH  11  13
ENDBRANCH   7  11
ENDBRANCH   1   8
BRANCH   5  14
ATOM     14  C   UNL     1       9.560  -5.152   0.907  0.00  0.00    +0.164 C 
ATOM     15  O   UNL     1       8.921  -6.138   1.277  0.00  0.00    -0.292 OA
ATOM     16  C   UNL     1      10.926  -5.331   0.310  0.00  0.00    +0.092 C 
ENDBRANCH   5  14
BRANCH   4  17
ATOM     17  O   UNL     1      10.980  -2.691   1.472  0.00  0.00    -0.489 OA
BRANCH  17  18
ATOM     18  C   UNL     1      11.707  -1.467   1.651  0.00  0.00    +0.261 C 
BRANCH  18  19
ATOM     19  C   UNL     1      13.213  -1.780   1.643  0.00  0.00    +0.166 C 
BRANCH  19  20
ATOM     20  O   UNL     1      13.506  -2.712   2.691  0.00  0.00    -0.387 OA
ATOM     21  H   UNL     1      12.832  -3.421   2.626  0.00  0.00    +0.210 HD
ENDBRANCH  19  20
BRANCH  19  22
ATOM     22  C   UNL     1      13.702  -2.365   0.302  0.00  0.00    +0.115 C 
BRANCH  22  23
ATOM     23  N   UNL     1      13.427  -1.466  -0.824  0.00  0.00    -0.311 NA
ATOM     24  H   UNL     1      13.951  -0.600  -0.688  0.00  0.00    +0.122 HD
BRANCH  23  25
ATOM     25  C   UNL     1      13.788  -2.030  -2.133  0.00  0.00    +0.048 C 
ATOM     26  C   UNL     1      13.547  -0.947  -3.189  0.00  0.00    +0.023 C 
ATOM     27  C   UNL     1      12.973  -3.273  -2.495  0.00  0.00    +0.023 C 
ENDBRANCH  23  25
ENDBRANCH  22  23
ENDBRANCH  19  22
ENDBRANCH  18  19
ENDBRANCH  17  18
ENDBRANCH   4  17
TORSDOF 11
