REMARK  Name = 
REMARK  4 active torsions:
REMARK  status: ('A' for Active; 'I' for Inactive)
REMARK    1  A    between atoms: O_1  and  C_2
REMARK    2  A    between atoms: C_2  and  C_4
REMARK    3  A    between atoms: C_5  and  C_6
REMARK    4  A    between atoms: C_11  and  O_12
REMARK                            x       y       z     vdW  Elec       q    Type
REMARK                         _______ _______ _______ _____ _____    ______ ____
ROOT
ATOM      1  C   UNL     1       5.292   0.857   2.487  0.00  0.00    +0.017 A 
ATOM      2  C   UNL     1       6.066  -0.029   3.247  0.00  0.00    +0.124 A 
ATOM      3  C   UNL     1       6.804   0.424   4.341  0.00  0.00    +0.046 A 
ATOM      4  C   UNL     1       6.768   1.776   4.686  0.00  0.00    +0.004 A 
ATOM      5  C   UNL     1       5.993   2.667   3.944  0.00  0.00    +0.001 A 
ATOM      6  C   UNL     1       5.257   2.210   2.849  0.00  0.00    +0.011 A 
ENDROOT
BRANCH   1   8
ATOM      7  C   UNL     1       3.277  -0.013   1.386  0.00  0.00    +0.092 C 
ATOM      8  C   UNL     1       4.544   0.415   1.308  0.00  0.00    +0.018 C 
BRANCH   7   9
ATOM      9  C   UNL     1       2.592  -0.438   0.150  0.00  0.00    +0.330 C 
ATOM     10  O   UNL     1       2.960  -0.165  -0.979  0.00  0.00    -0.246 OA
BRANCH   9  11
ATOM     11  O   UNL     1       1.491  -1.170   0.414  0.00  0.00    -0.478 OA
ATOM     12  H   UNL     1       1.364  -1.389   1.354  0.00  0.00    +0.295 HD
ENDBRANCH   9  11
ENDBRANCH   7   9
ENDBRANCH   1   8
BRANCH   2  13
ATOM     13  O   UNL     1       6.098  -1.354   2.904  0.00  0.00    -0.506 OA
ATOM     14  H   UNL     1       6.765  -1.802   3.450  0.00  0.00    +0.292 HD
ENDBRANCH   2  13
TORSDOF 4
