REMARK  Name = 
REMARK  18 active torsions:
REMARK  status: ('A' for Active; 'I' for Inactive)
REMARK    1  A    between atoms: C_1  and  N_2
REMARK    2  A    between atoms: N_2  and  C_3
REMARK    3  A    between atoms: C_5  and  O_7
REMARK    4  A    between atoms: C_8  and  O_10
REMARK    5  A    between atoms: C_11  and  C_13
REMARK    6  A    between atoms: C_13  and  O_14
REMARK    7  A    between atoms: C_16  and  O_18
REMARK    8  A    between atoms: O_18  and  C_19
REMARK    9  A    between atoms: C_21  and  O_23
REMARK   10  A    between atoms: O_23  and  C_24
REMARK   11  A    between atoms: C_26  and  O_28
REMARK   12  A    between atoms: C_29  and  O_31
REMARK   13  A    between atoms: C_32  and  N_34
REMARK   14  A    between atoms: C_38  and  O_40
REMARK   15  A    between atoms: C_41  and  N_43
REMARK   16  A    between atoms: C_48  and  C_50
REMARK   17  A    between atoms: C_51  and  O_52
REMARK   18  A    between atoms: C_51  and  C_53
REMARK                            x       y       z     vdW  Elec       q    Type
REMARK                         _______ _______ _______ _____ _____    ______ ____
ROOT
ATOM      1  O   UNL     1       2.099   2.281   3.502  0.00  0.00    -0.339 OA
ENDROOT
BRANCH   1   2
ATOM      2  C   UNL     1       2.431   3.113   4.655  0.00  0.00    +0.192 C 
ATOM      3  C   UNL     1       3.856   2.735   5.139  0.00  0.00    +0.208 C 
ATOM      4  C   UNL     1       3.877   1.374   5.895  0.00  0.00    +0.193 C 
ATOM      5  C   UNL     1       2.872   1.307   7.081  0.00  0.00    +0.208 C 
ATOM      6  C   UNL     1       1.448   1.653   6.560  0.00  0.00    +0.185 C 
ATOM      7  C   UNL     1       1.449   3.041   5.872  0.00  0.00    +0.179 C 
BRANCH   5   8
ATOM      8  N   UNL     1       3.195   2.205   8.201  0.00  0.00    -0.268 N 
ATOM      9  H   UNL     1       2.525   2.977   8.286  0.00  0.00    +0.258 HD
ATOM     10  C   UNL     1       4.309   2.311   8.945  0.00  0.00    +0.377 C 
ATOM     11  N   UNL     1       4.535   3.312   9.714  0.00  0.00    -0.130 NA
ATOM     12  H   UNL     1       3.708   3.917   9.743  0.00  0.00    +0.306 HD
ATOM     13  N   UNL     1       5.253   1.375   8.772  0.00  0.00    -0.289 N 
ATOM     14  H   UNL     1       5.983   1.496   9.471  0.00  0.00    +0.255 HD
ATOM     15  H   UNL     1       4.901   0.428   8.802  0.00  0.00    +0.255 HD
ENDBRANCH   5   8
BRANCH   3  16
ATOM     16  N   UNL     1       4.404   3.795   5.990  0.00  0.00    -0.268 N 
ATOM     17  H   UNL     1       4.390   3.555   6.982  0.00  0.00    +0.258 HD
ATOM     18  C   UNL     1       5.390   4.655   5.678  0.00  0.00    +0.377 C 
ATOM     19  N   UNL     1       5.850   4.936   4.517  0.00  0.00    -0.130 NA
ATOM     20  H   UNL     1       5.358   4.405   3.801  0.00  0.00    +0.306 HD
ATOM     21  N   UNL     1       5.857   5.301   6.760  0.00  0.00    -0.289 N 
ATOM     22  H   UNL     1       6.750   5.747   6.583  0.00  0.00    +0.255 HD
ATOM     23  H   UNL     1       5.823   4.834   7.661  0.00  0.00    +0.255 HD
ENDBRANCH   3  16
BRANCH   4  24
ATOM     24  O   UNL     1       3.566   0.297   4.989  0.00  0.00    -0.385 OA
ATOM     25  H   UNL     1       3.987   0.482   4.129  0.00  0.00    +0.210 HD
ENDBRANCH   4  24
BRANCH   6  26
ATOM     26  O   UNL     1       0.927   0.630   5.714  0.00  0.00    -0.386 OA
ATOM     27  H   UNL     1       1.570   0.482   4.991  0.00  0.00    +0.210 HD
ENDBRANCH   6  26
BRANCH   7  28
ATOM     28  O   UNL     1       1.766   4.043   6.871  0.00  0.00    -0.386 OA
ATOM     29  H   UNL     1       2.458   4.632   6.505  0.00  0.00    +0.210 HD
ENDBRANCH   7  28
ENDBRANCH   1   2
BRANCH   1  35
ATOM     30  C   UNL     1       0.550   1.965   1.508  0.00  0.00    +0.218 C 
ATOM     31  C   UNL     1      -0.949   2.325   1.430  0.00  0.00    +0.177 C 
ATOM     32  C   UNL     1      -1.377   2.490   2.893  0.00  0.00    +0.160 C 
ATOM     33  C   UNL     1      -2.179   3.743   3.217  0.00  0.00    +0.041 C 
ATOM     34  O   UNL     1      -0.181   2.581   3.663  0.00  0.00    -0.342 OA
ATOM     35  C   UNL     1       0.935   2.744   2.800  0.00  0.00    +0.283 C 
BRANCH  31  36
ATOM     36  C   UNL     1      -1.756   1.188   0.823  0.00  0.00    +0.263 C 
ATOM     37  O   UNL     1      -1.680   0.016   1.187  0.00  0.00    -0.298 OA
ENDBRANCH  31  36
BRANCH  31  38
ATOM     38  O   UNL     1      -1.137   3.546   0.705  0.00  0.00    -0.376 OA
ATOM     39  H   UNL     1      -0.295   3.769   0.261  0.00  0.00    +0.211 HD
ENDBRANCH  31  38
BRANCH  30  40
ATOM     40  O   UNL     1       1.267   2.411   0.329  0.00  0.00    -0.338 OA
BRANCH  40  42
ATOM     41  C   UNL     1       1.580   2.380  -2.137  0.00  0.00    +0.141 C 
ATOM     42  C   UNL     1       0.931   1.691  -0.890  0.00  0.00    +0.271 C 
ATOM     43  O   UNL     1       1.329   0.324  -0.818  0.00  0.00    -0.341 OA
ATOM     44  C   UNL     1       0.916  -0.498  -1.927  0.00  0.00    +0.178 C 
ATOM     45  C   UNL     1       1.143   0.134  -3.323  0.00  0.00    +0.176 C 
ATOM     46  C   UNL     1       0.987   1.671  -3.381  0.00  0.00    +0.167 C 
BRANCH  41  48
ATOM     47  C   UNL     1       3.756   3.100  -1.212  0.00  0.00    +0.101 C 
ATOM     48  N   UNL     1       3.060   2.371  -2.254  0.00  0.00    -0.310 NA
ATOM     49  H   UNL     1       3.402   1.416  -2.274  0.00  0.00    +0.122 HD
ENDBRANCH  41  48
BRANCH  45  50
ATOM     50  O   UNL     1       2.461  -0.219  -3.790  0.00  0.00    -0.387 OA
ATOM     51  H   UNL     1       3.035  -0.380  -3.022  0.00  0.00    +0.210 HD
ENDBRANCH  45  50
BRANCH  46  52
ATOM     52  O   UNL     1      -0.389   2.053  -3.511  0.00  0.00    -0.387 OA
ATOM     53  H   UNL     1      -0.730   1.643  -4.326  0.00  0.00    +0.210 HD
ENDBRANCH  46  52
BRANCH  44  54
ATOM     54  C   UNL     1      -0.477  -1.137  -1.763  0.00  0.00    +0.190 C 
BRANCH  54  55
ATOM     55  O   UNL     1      -1.542  -0.268  -2.117  0.00  0.00    -0.392 OA
ATOM     56  H   UNL     1      -2.357  -0.802  -2.057  0.00  0.00    +0.210 HD
ENDBRANCH  54  55
ENDBRANCH  44  54
ENDBRANCH  40  42
ENDBRANCH  30  40
ENDBRANCH   1  35
TORSDOF 16
