REMARK  Name = 
REMARK  11 active torsions:
REMARK  status: ('A' for Active; 'I' for Inactive)
REMARK    1  A    between atoms: C_9  and  C_11
REMARK    2  A    between atoms: C_11  and  C_12
REMARK    3  A    between atoms: C_12  and  C_13
REMARK    4  A    between atoms: C_12  and  C_14
REMARK    5  A    between atoms: C_18  and  N_19
REMARK    6  A    between atoms: C_18  and  C_45
REMARK    7  A    between atoms: C_20  and  C_22
REMARK    8  A    between atoms: N_25  and  C_26
REMARK    9  A    between atoms: C_43  and  O_44
REMARK   10  A    between atoms: C_45  and  C_46
REMARK   11  A    between atoms: C_45  and  C_47
REMARK                            x       y       z     vdW  Elec       q    Type
REMARK                         _______ _______ _______ _____ _____    ______ ____
ROOT
ATOM      1  C   UNL     1      -0.000  -0.000  -0.000  0.00  0.00    +0.156 C 
ATOM      2  C   UNL     1      -0.000  -0.000  -0.000  0.00  0.00    +0.269 C 
ATOM      3  N   UNL     1      -0.000  -0.000  -0.000  0.00  0.00    -0.233 N 
ATOM      4  C   UNL     1      -0.000  -0.000  -0.000  0.00  0.00    +0.271 C 
ATOM      5  O   UNL     1      -0.000  -0.000  -0.000  0.00  0.00    -0.270 OA
ATOM      6  C   UNL     1      -0.000  -0.000  -0.000  0.00  0.00    +0.220 C 
ATOM      7  C   UNL     1      -0.000  -0.000  -0.000  0.00  0.00    +0.167 C 
ATOM      8  C   UNL     1      -0.000  -0.000  -0.000  0.00  0.00    +0.237 C 
ATOM      9  O   UNL     1      -0.000  -0.000  -0.000  0.00  0.00    -0.274 OA
ATOM     10  O   UNL     1      -0.000  -0.000  -0.000  0.00  0.00    -0.298 OA
ATOM     11  N   UNL     1      -0.000  -0.000  -0.000  0.00  0.00    -0.290 N 
ATOM     12  C   UNL     1      -0.000  -0.000  -0.000  0.00  0.00    +0.108 C 
ATOM     13  C   UNL     1      -0.000  -0.000  -0.000  0.00  0.00    +0.021 C 
ATOM     14  C   UNL     1      -0.000  -0.000  -0.000  0.00  0.00    +0.031 C 
ENDROOT
BRANCH   6  15
ATOM     15  N   UNL     1      -0.000  -0.000  -0.000  0.00  0.00    -0.279 N 
ATOM     16  H   UNL     1      -0.000  -0.000  -0.000  0.00  0.00    +0.152 HD
ATOM     17  C   UNL     1      -0.000  -0.000  -0.000  0.00  0.00    +0.224 C 
ATOM     18  O   UNL     1      -0.000  -0.000  -0.000  0.00  0.00    -0.275 OA
BRANCH  17  19
ATOM     19  C   UNL     1      -0.000  -0.000  -0.000  0.00  0.00    +0.112 C 
ATOM     20  C   UNL     1      -0.000  -0.000  -0.000  0.00  0.00    -0.007 C 
ATOM     21  C   UNL     1      -0.000  -0.000  -0.000  0.00  0.00    -0.025 C 
ATOM     22  C   UNL     1      -0.000  -0.000  -0.000  0.00  0.00    +0.091 C 
ATOM     23  C   UNL     1      -0.000  -0.000  -0.000  0.00  0.00    +0.062 C 
ATOM     24  C   UNL     1      -0.000  -0.000  -0.000  0.00  0.00    -0.006 A 
ATOM     25  C   UNL     1      -0.000  -0.000  -0.000  0.00  0.00    +0.011 A 
ATOM     26  C   UNL     1      -0.000  -0.000  -0.000  0.00  0.00    +0.048 A 
ATOM     27  C   UNL     1      -0.000  -0.000  -0.000  0.00  0.00    +0.026 A 
ATOM     28  C   UNL     1      -0.000  -0.000  -0.000  0.00  0.00    +0.003 A 
ATOM     29  C   UNL     1      -0.000  -0.000  -0.000  0.00  0.00    +0.009 A 
ATOM     30  N   UNL     1      -0.000  -0.000  -0.000  0.00  0.00    -0.349 N 
ATOM     31  H   UNL     1      -0.000  -0.000  -0.000  0.00  0.00    +0.166 HD
ATOM     32  C   UNL     1      -0.000  -0.000  -0.000  0.00  0.00    +0.087 A 
ATOM     33 BR   UNL     1      -0.000  -0.000  -0.000  0.00  0.00    -0.031 Br
ATOM     34  N   UNL     1      -0.000  -0.000  -0.000  0.00  0.00    -0.297 NA
ATOM     35  C   UNL     1      -0.000  -0.000  -0.000  0.00  0.00    +0.105 C 
ATOM     36  C   UNL     1      -0.000  -0.000  -0.000  0.00  0.00    -0.011 A 
ATOM     37  C   UNL     1      -0.000  -0.000  -0.000  0.00  0.00    +0.101 C 
ENDBRANCH  17  19
ENDBRANCH   6  15
BRANCH   6  38
ATOM     38  C   UNL     1      -0.000  -0.000  -0.000  0.00  0.00    +0.043 C 
ATOM     39  C   UNL     1      -0.000  -0.000  -0.000  0.00  0.00    +0.012 C 
ATOM     40  C   UNL     1      -0.000  -0.000  -0.000  0.00  0.00    +0.012 C 
ENDBRANCH   6  38
BRANCH   2  41
ATOM     41  O   UNL     1      -0.000  -0.000   0.000  0.00  0.00    -0.348 OA
ATOM     42  H   UNL     1       0.000   0.000   0.000  0.00  0.00    +0.214 HD
ENDBRANCH   2  41
BRANCH   7  43
ATOM     43  C   UNL     1      -0.000  -0.000  -0.000  0.00  0.00    +0.035 C 
BRANCH  43  44
ATOM     44  C   UNL     1      -0.000  -0.000  -0.000  0.00  0.00    -0.015 C 
ATOM     45  C   UNL     1      -0.000  -0.000  -0.000  0.00  0.00    +0.007 C 
ATOM     46  C   UNL     1      -0.000  -0.000  -0.000  0.00  0.00    +0.007 C 
ENDBRANCH  43  44
ENDBRANCH   7  43
TORSDOF 6
