REMARK  Name = 
REMARK  7 active torsions:
REMARK  status: ('A' for Active; 'I' for Inactive)
REMARK    1  A    between atoms: C_5  and  C_6
REMARK    2  A    between atoms: CA_7  and  C_25
REMARK    3  A    between atoms: CA_11  and  N_13
REMARK    4  A    between atoms: C_14  and  CA_16
REMARK    5  A    between atoms: CA_16  and  N_18
REMARK    6  A    between atoms: CA_16  and  C_19
REMARK    7  A    between atoms: C_25  and  O_26
REMARK                            x       y       z     vdW  Elec       q    Type
REMARK                         _______ _______ _______ _____ _____    ______ ____
ROOT
ATOM      1  C   UNL     1       9.016  -1.006   4.973  0.00  0.00    +0.169 C 
ATOM      2  CA  UNL     1       8.500  -1.128   3.500  0.00  0.00    +0.191 C 
ATOM      3  C   UNL     1       9.755  -2.056   3.325  0.00  0.00    +0.244 C 
ATOM      4  O   UNL     1      10.338  -2.658   2.454  0.00  0.00    -0.273 OA
ATOM      5  N   UNL     1       9.963  -2.062   4.659  0.00  0.00    -0.249 N 
ATOM      6  CA  UNL     1      10.713  -2.744   5.578  0.00  0.00    +0.122 C 
ATOM      7  C   UNL     1      10.367  -2.678   6.896  0.00  0.00    -0.034 C 
ATOM      8  C   UNL     1      11.086  -3.436   7.997  0.00  0.00    +0.042 C 
ATOM      9  C   UNL     1       9.193  -1.892   7.447  0.00  0.00    +0.103 C 
ATOM     10  S   UNL     1       7.877  -1.587   6.253  0.00  0.00    -0.131 S 
ENDROOT
BRANCH   2  11
ATOM     11  N   UNL     1       7.189  -1.792   3.340  0.00  0.00    -0.300 N 
ATOM     12  H   UNL     1       6.730  -2.239   4.137  0.00  0.00    +0.150 HD
ATOM     13  C   UNL     1       6.518  -1.947   2.148  0.00  0.00    +0.235 C 
ATOM     14  O   UNL     1       6.924  -1.498   1.082  0.00  0.00    -0.274 OA
BRANCH  13  15
ATOM     15  CA  UNL     1       5.210  -2.781   2.304  0.00  0.00    +0.164 C 
BRANCH  15  16
ATOM     16  C   UNL     1       5.526  -4.235   2.022  0.00  0.00    -0.044 C 
ATOM     17  C   UNL     1       5.450  -4.628   0.559  0.00  0.00    +0.059 C 
ATOM     18  C   UNL     1       5.958  -6.013   0.269  0.00  0.00    -0.026 C 
ATOM     19  C   UNL     1       6.312  -6.883   1.227  0.00  0.00    -0.027 C 
ATOM     20  C   UNL     1       6.231  -6.564   2.690  0.00  0.00    +0.054 C 
ATOM     21  C   UNL     1       5.865  -5.135   2.972  0.00  0.00    -0.021 C 
ENDBRANCH  15  16
BRANCH  15  22
ATOM     22  N   UNL     1       4.673  -2.582   3.675  0.00  0.00    -0.317 NA
ATOM     23  H1  UNL     1       4.414  -1.600   3.772  0.00  0.00    +0.119 HD
ATOM     24  H2  UNL     1       3.796  -3.102   3.735  0.00  0.00    +0.119 HD
ENDBRANCH  15  22
ENDBRANCH  13  15
ENDBRANCH   2  11
BRANCH   6  25
ATOM     25  C   UNL     1      11.901  -3.594   5.152  0.00  0.00    +0.351 C 
ATOM     26  OXT UNL     1      12.595  -4.229   5.935  0.00  0.00    -0.244 OA
BRANCH  25  27
ATOM     27  O   UNL     1      12.252  -3.557   3.854  0.00  0.00    -0.476 OA
ATOM     28  H   UNL     1      11.594  -3.217   3.211  0.00  0.00    +0.295 HD
ENDBRANCH  25  27
ENDBRANCH   6  25
TORSDOF 6
