REMARK  Name = 
REMARK  14 active torsions:
REMARK  status: ('A' for Active; 'I' for Inactive)
REMARK    1  A    between atoms: C_1  and  N_2
REMARK    2  A    between atoms: N_2  and  C_3
REMARK    3  A    between atoms: C_3  and  C_5
REMARK    4  A    between atoms: C_3  and  C_9
REMARK    5  A    between atoms: C_5  and  C_6
REMARK    6  A    between atoms: C_6  and  O_7
REMARK    7  A    between atoms: C_9  and  O_10
REMARK    8  A    between atoms: C_12  and  C_14
REMARK    9  A    between atoms: C_16  and  O_17
REMARK   10  A    between atoms: O_17  and  S_18
REMARK   11  A    between atoms: S_18  and  C_21
REMARK   12  A    between atoms: C_33  and  N_34
REMARK   13  A    between atoms: N_34  and  S_35
REMARK   14  A    between atoms: S_35  and  C_38
REMARK                            x       y       z     vdW  Elec       q    Type
REMARK                         _______ _______ _______ _____ _____    ______ ____
ROOT
ATOM      1  C   UNL     1       5.526  -1.352  -1.398  0.00  0.00    +0.063 A 
ATOM      2  C   UNL     1       6.192  -1.532  -0.168  0.00  0.00    +0.060 A 
ATOM      3  C   UNL     1       6.050  -2.750   0.521  0.00  0.00    +0.029 A 
ATOM      4  C   UNL     1       5.171  -3.732   0.057  0.00  0.00    +0.050 A 
ATOM      5  C   UNL     1       4.542  -3.576  -1.173  0.00  0.00    +0.158 A 
ATOM      6  C   UNL     1       4.831  -2.447  -1.940  0.00  0.00    +0.063 A 
ENDROOT
BRANCH   1   9
ATOM      7  C   UNL     1       2.862  -0.329  -2.473  0.00  0.00    +0.133 C 
ATOM      8  N   UNL     1       4.036   0.512  -2.224  0.00  0.00    -0.287 N 
ATOM      9  C   UNL     1       5.350   0.008  -2.041  0.00  0.00    +0.249 C 
ATOM     10  O   UNL     1       6.310   0.740  -2.253  0.00  0.00    -0.270 OA
BRANCH   8  11
ATOM     11  C   UNL     1       3.815   1.961  -2.468  0.00  0.00    +0.195 C 
BRANCH  11  12
ATOM     12  C   UNL     1       4.578   2.950  -1.573  0.00  0.00    +0.326 C 
ATOM     13  O   UNL     1       4.886   4.083  -1.906  0.00  0.00    -0.249 OA
BRANCH  12  14
ATOM     14  O   UNL     1       4.721   2.505  -0.299  0.00  0.00    -0.479 OA
ATOM     15  H   UNL     1       4.394   1.589  -0.203  0.00  0.00    +0.295 HD
ENDBRANCH  12  14
ENDBRANCH  11  12
BRANCH  11  16
ATOM     16  C   UNL     1       3.623   2.413  -3.910  0.00  0.00    +0.154 C 
BRANCH  16  17
ATOM     17  C   UNL     1       4.792   2.665  -4.826  0.00  0.00    +0.307 C 
ATOM     18  O   UNL     1       4.597   3.074  -5.966  0.00  0.00    -0.251 OA
BRANCH  17  19
ATOM     19  O   UNL     1       6.021   2.402  -4.389  0.00  0.00    -0.481 OA
ATOM     20  H   UNL     1       6.181   2.053  -3.482  0.00  0.00    +0.295 HD
ENDBRANCH  17  19
ENDBRANCH  16  17
ENDBRANCH  11  16
ENDBRANCH   8  11
ENDBRANCH   1   9
BRANCH   2  21
ATOM     21  N   UNL     1       7.005  -0.528   0.462  0.00  0.00    -0.216 N 
ATOM     22  H   UNL     1       6.906  -0.502   1.481  0.00  0.00    +0.174 HD
BRANCH  21  23
ATOM     23  S   UNL     1       8.700  -0.636   0.216  0.00  0.00    +0.072 S 
ATOM     24  O   UNL     1       8.997  -1.738  -0.673  0.00  0.00    -0.150 OA
ATOM     25  O   UNL     1       9.272  -0.563   1.548  0.00  0.00    -0.150 OA
BRANCH  23  26
ATOM     26  C   UNL     1       9.068   0.894  -0.590  0.00  0.00    +0.109 A 
ATOM     27  C   UNL     1       9.733   0.914  -1.819  0.00  0.00    +0.037 A 
ATOM     28  C   UNL     1      10.016   2.143  -2.442  0.00  0.00    -0.016 A 
ATOM     29  C   UNL     1       9.614   3.348  -1.816  0.00  0.00    -0.018 A 
ATOM     30  C   UNL     1       9.887   4.577  -2.435  0.00  0.00    +0.008 A 
ATOM     31  C   UNL     1      10.561   4.625  -3.654  0.00  0.00    +0.001 A 
ATOM     32  C   UNL     1      10.964   3.444  -4.271  0.00  0.00    +0.001 A 
ATOM     33  C   UNL     1       8.950   3.300  -0.582  0.00  0.00    +0.010 A 
ATOM     34  C   UNL     1      10.689   2.212  -3.673  0.00  0.00    +0.008 A 
ATOM     35  C   UNL     1       8.687   2.081   0.037  0.00  0.00    +0.029 A 
ENDBRANCH  23  26
ENDBRANCH  21  23
ENDBRANCH   2  21
BRANCH   5  36
ATOM     36  O   UNL     1       3.644  -4.560  -1.521  0.00  0.00    -0.342 OA
BRANCH  36  37
ATOM     37  S   UNL     1       2.656  -4.424  -2.816  0.00  0.00    +0.151 S 
ATOM     38  O   UNL     1       3.496  -4.474  -4.005  0.00  0.00    -0.131 OA
ATOM     39  O   UNL     1       1.741  -3.315  -2.593  0.00  0.00    -0.131 OA
BRANCH  37  40
ATOM     40  C   UNL     1       1.677  -5.904  -2.825  0.00  0.00    +0.129 A 
ATOM     41  C   UNL     1       1.273  -6.488  -1.621  0.00  0.00    +0.039 A 
ATOM     42  C   UNL     1       0.620  -7.734  -1.634  0.00  0.00    -0.016 A 
ATOM     43  C   UNL     1       0.357  -8.371  -2.872  0.00  0.00    -0.018 A 
ATOM     44  C   UNL     1      -0.253  -9.635  -2.884  0.00  0.00    +0.008 A 
ATOM     45  C   UNL     1      -0.593 -10.273  -1.691  0.00  0.00    +0.001 A 
ATOM     46  C   UNL     1      -0.347  -9.645  -0.473  0.00  0.00    +0.001 A 
ATOM     47  C   UNL     1       0.725  -7.738  -4.069  0.00  0.00    +0.010 A 
ATOM     48  C   UNL     1       0.247  -8.381  -0.444  0.00  0.00    +0.008 A 
ATOM     49  C   UNL     1       1.387  -6.511  -4.049  0.00  0.00    +0.031 A 
ENDBRANCH  37  40
ENDBRANCH  36  37
ENDBRANCH   5  36
TORSDOF 13
