REMARK  Name = 
REMARK  26 active torsions:
REMARK  status: ('A' for Active; 'I' for Inactive)
REMARK    1  A    between atoms: C_1  and  O_2
REMARK    2  A    between atoms: O_2  and  C_3
REMARK    3  A    between atoms: C_6  and  O_8
REMARK    4  A    between atoms: O_8  and  C_9
REMARK    5  A    between atoms: C_11  and  C_13
REMARK    6  A    between atoms: C_14  and  O_16
REMARK    7  A    between atoms: O_16  and  C_17
REMARK    8  A    between atoms: C_20  and  C_22
REMARK    9  A    between atoms: C_24  and  N_32
REMARK   10  A    between atoms: C_26  and  O_28
REMARK   11  A    between atoms: O_28  and  C_29
REMARK   12  A    between atoms: C_29  and  C_30
REMARK   13  A    between atoms: N_32  and  C_33
REMARK   14  A    between atoms: N_32  and  C_34
REMARK   15  A    between atoms: C_35  and  C_37
REMARK   16  A    between atoms: C_44  and  C_46
REMARK   17  A    between atoms: C_47  and  O_49
REMARK   18  A    between atoms: O_49  and  C_50
REMARK   19  A    between atoms: C_50  and  C_51
REMARK   20  A    between atoms: C_53  and  C_55
REMARK   21  A    between atoms: C_56  and  C_58
REMARK   22  A    between atoms: C_62  and  C_64
REMARK   23  A    between atoms: C_66  and  C_68
REMARK   24  A    between atoms: C_69  and  O_71
REMARK   25  A    between atoms: O_71  and  C_72
REMARK   26  A    between atoms: C_72  and  C_73
REMARK                            x       y       z     vdW  Elec       q    Type
REMARK                         _______ _______ _______ _____ _____    ______ ____
ROOT
ATOM      1  C   UNL     1      -6.078   7.854  -1.946  0.00  0.00    +0.140 C 
ATOM      2  C   UNL     1      -7.440   8.233  -2.631  0.00  0.00    +0.124 C 
ATOM      3  C   UNL     1      -8.709   8.022  -1.795  0.00  0.00    +0.022 C 
ATOM      4  C   UNL     1      -7.492   9.531  -3.431  0.00  0.00    +0.313 C 
ATOM      5  O   UNL     1      -7.512  10.639  -2.912  0.00  0.00    -0.250 OA
ATOM      6  O   UNL     1      -7.829   9.365  -4.757  0.00  0.00    -0.461 OA
ATOM      7  C   UNL     1      -7.018   8.771  -5.840  0.00  0.00    +0.180 C 
ATOM      8  C   UNL     1      -5.566   8.487  -5.463  0.00  0.00    +0.052 C 
ATOM      9  C   UNL     1      -7.790   7.698  -6.760  0.00  0.00    +0.068 C 
ATOM     10  C   UNL     1      -9.146   7.264  -6.139  0.00  0.00    +0.015 C 
ATOM     11  C   UNL     1      -6.865   6.537  -7.380  0.00  0.00    +0.193 C 
ATOM     12  C   UNL     1      -7.067   5.139  -6.733  0.00  0.00    +0.096 C 
ATOM     13  C   UNL     1      -8.112   4.242  -7.393  0.00  0.00    +0.019 C 
ATOM     14  C   UNL     1      -5.749   4.396  -6.438  0.00  0.00    +0.173 C 
ATOM     15  O   UNL     1      -4.715   4.626  -7.054  0.00  0.00    -0.294 OA
ATOM     16  C   UNL     1      -5.703   3.434  -5.263  0.00  0.00    +0.151 C 
ATOM     17  O   UNL     1      -5.374   2.088  -5.676  0.00  0.00    -0.360 OA
ATOM     18  C   UNL     1      -6.679   2.270  -5.139  0.00  0.00    +0.204 C 
ATOM     19  C   UNL     1      -4.970   3.845  -3.979  0.00  0.00    +0.051 C 
ATOM     20  C   UNL     1      -5.908   4.451  -2.891  0.00  0.00    +0.018 C 
ATOM     21  C   UNL     1      -7.097   5.141  -3.556  0.00  0.00    +0.010 C 
ATOM     22  C   UNL     1      -5.163   5.431  -1.932  0.00  0.00    +0.130 C 
ATOM     23  C   UNL     1      -6.115   6.463  -1.180  0.00  0.00    +0.045 C 
ATOM     24  C   UNL     1      -6.069   6.612   0.349  0.00  0.00    +0.013 C 
ENDROOT
BRANCH   1  25
ATOM     25  O   UNL     1      -5.476   8.876  -1.138  0.00  0.00    -0.347 OA
BRANCH  25  31
ATOM     26  C   UNL     1      -1.728   8.770  -1.833  0.00  0.00    +0.166 C 
ATOM     27  C   UNL     1      -1.404   9.793  -0.744  0.00  0.00    +0.233 C 
ATOM     28  C   UNL     1      -2.252   9.533   0.519  0.00  0.00    +0.161 C 
ATOM     29  C   UNL     1      -1.832   8.278   1.296  0.00  0.00    +0.042 C 
ATOM     30  O   UNL     1      -3.656   9.548   0.199  0.00  0.00    -0.345 OA
ATOM     31  C   UNL     1      -4.065   8.649  -0.839  0.00  0.00    +0.254 C 
ATOM     32  C   UNL     1      -3.228   8.811  -2.111  0.00  0.00    +0.096 C 
BRANCH  26  34
ATOM     33  C   UNL     1       0.023   7.170  -1.502  0.00  0.00    +0.194 C 
ATOM     34  O   UNL     1      -1.376   7.428  -1.479  0.00  0.00    -0.376 OA
ENDBRANCH  26  34
BRANCH  27  35
ATOM     35  O   UNL     1      -1.749  11.084  -1.299  0.00  0.00    -0.456 OA
BRANCH  35  36
ATOM     36  C   UNL     1      -1.149  12.166  -0.747  0.00  0.00    +0.304 C 
ATOM     37  O   UNL     1      -0.300  12.133   0.128  0.00  0.00    -0.251 OA
ATOM     38  C   UNL     1      -1.709  13.419  -1.354  0.00  0.00    +0.136 C 
ENDBRANCH  35  36
ENDBRANCH  27  35
ENDBRANCH  25  31
ENDBRANCH   1  25
BRANCH  11  39
ATOM     39  O   UNL     1      -7.038   6.360  -8.813  0.00  0.00    -0.460 OA
BRANCH  39  40
ATOM     40  C   UNL     1      -5.871   6.341  -9.534  0.00  0.00    +0.304 C 
ATOM     41  O   UNL     1      -4.837   6.911  -9.205  0.00  0.00    -0.251 OA
ATOM     42  C   UNL     1      -5.965   5.481 -10.762  0.00  0.00    +0.136 C 
ENDBRANCH  39  40
ENDBRANCH  11  39
BRANCH  22  43
ATOM     43  O   UNL     1      -4.130   4.811  -1.188  0.00  0.00    -0.344 OA
BRANCH  43  44
ATOM     44  C   UNL     1      -4.421   3.656  -0.390  0.00  0.00    +0.293 C 
ATOM     45  C   UNL     1      -3.041   3.070  -0.013  0.00  0.00    +0.249 C 
ATOM     46  C   UNL     1      -3.084   2.094   1.203  0.00  0.00    +0.104 C 
ATOM     47  C   UNL     1      -3.995   2.714   2.289  0.00  0.00    +0.054 C 
ATOM     48  C   UNL     1      -5.347   3.144   1.749  0.00  0.00    +0.120 C 
ATOM     49  C   UNL     1      -6.146   3.865   2.834  0.00  0.00    +0.038 C 
ATOM     50  O   UNL     1      -5.168   4.085   0.718  0.00  0.00    -0.345 OA
BRANCH  46  51
ATOM     51  N   UNL     1      -1.728   1.836   1.792  0.00  0.00    -0.302 NA
ATOM     52  C   UNL     1      -0.777   1.268   0.836  0.00  0.00    +0.105 C 
ATOM     53  C   UNL     1      -1.766   0.996   2.992  0.00  0.00    +0.105 C 
ENDBRANCH  46  51
BRANCH  45  54
ATOM     54  O   UNL     1      -2.353   2.540  -1.185  0.00  0.00    -0.455 OA
BRANCH  54  55
ATOM     55  C   UNL     1      -2.876   1.509  -1.898  0.00  0.00    +0.304 C 
ATOM     56  O   UNL     1      -3.923   0.935  -1.643  0.00  0.00    -0.251 OA
ATOM     57  C   UNL     1      -1.963   1.149  -3.034  0.00  0.00    +0.136 C 
ENDBRANCH  54  55
ENDBRANCH  45  54
ENDBRANCH  43  44
ENDBRANCH  22  43
TORSDOF 12
