REMARK  Name = 
REMARK  8 active torsions:
REMARK  status: ('A' for Active; 'I' for Inactive)
REMARK    1  A    between atoms: C_4  and  C_6
REMARK    2  A    between atoms: C_7  and  O_8
REMARK    3  A    between atoms: C_7  and  C_9
REMARK    4  A    between atoms: C_9  and  C_11
REMARK    5  A    between atoms: C_11  and  O_12
REMARK    6  A    between atoms: C_13  and  C_14
REMARK    7  A    between atoms: C_16  and  O_18
REMARK    8  A    between atoms: C_33  and  C_34
REMARK                            x       y       z     vdW  Elec       q    Type
REMARK                         _______ _______ _______ _____ _____    ______ ____
ROOT
ATOM      1  C   UNL     1      -0.000  -0.000   0.000  0.00  0.00    +0.002 C 
ATOM      2  C   UNL     1      -0.000  -0.000  -0.000  0.00  0.00    +0.002 C 
ATOM      3  C   UNL     1      -0.000  -0.000  -0.000  0.00  0.00    +0.045 C 
ATOM      4  C   UNL     1      -0.000  -0.000  -0.000  0.00  0.00    +0.193 C 
ATOM      5  C   UNL     1      -0.000  -0.000  -0.000  0.00  0.00    -0.023 C 
ATOM      6  C   UNL     1      -0.000  -0.000  -0.000  0.00  0.00    +0.016 C 
ATOM      7  C   UNL     1      -0.000  -0.000  -0.000  0.00  0.00    +0.020 C 
ATOM      8  C   UNL     1      -0.000  -0.000   0.000  0.00  0.00    -0.012 C 
ATOM      9  C   UNL     1      -0.000  -0.000  -0.000  0.00  0.00    +0.047 C 
ATOM     10  C   UNL     1      -0.000  -0.000  -0.000  0.00  0.00    +0.179 C 
ATOM     11  O   UNL     1      -0.000  -0.000  -0.000  0.00  0.00    -0.288 OA
ATOM     12  C   UNL     1      -0.000  -0.000  -0.000  0.00  0.00    +0.053 C 
ATOM     13  F   UNL     1      -0.000  -0.000  -0.000  0.00  0.00    -0.241 F 
ATOM     14  C   UNL     1      -0.000  -0.000  -0.000  0.00  0.00    +0.035 C 
ATOM     15  C   UNL     1      -0.000  -0.000  -0.000  0.00  0.00    +0.120 C 
ATOM     16  C   UNL     1      -0.000  -0.000  -0.000  0.00  0.00    +0.041 C 
ATOM     17  C   UNL     1      -0.000  -0.000  -0.000  0.00  0.00    +0.009 C 
ATOM     18  C   UNL     1      -0.000  -0.000  -0.000  0.00  0.00    +0.015 C 
ATOM     19  C   UNL     1      -0.000  -0.000   0.000  0.00  0.00    +0.134 C 
ATOM     20  C   UNL     1      -0.000  -0.000  -0.000  0.00  0.00    +0.026 C 
ATOM     21  C   UNL     1      -0.000  -0.000   0.000  0.00  0.00    +0.011 C 
ATOM     22  C   UNL     1      -0.000  -0.000  -0.000  0.00  0.00    +0.011 C 
ENDROOT
BRANCH  15  23
ATOM     23  O   UNL     1      -0.000  -0.000  -0.000  0.00  0.00    -0.391 OA
ATOM     24  H   UNL     1       0.000   0.000   0.000  0.00  0.00    +0.210 HD
ENDBRANCH  15  23
BRANCH  19  25
ATOM     25  C   UNL     1      -0.000  -0.000  -0.000  0.00  0.00    +0.190 C 
ATOM     26  O   UNL     1      -0.000  -0.000  -0.000  0.00  0.00    -0.292 OA
BRANCH  25  27
ATOM     27  C   UNL     1      -0.000  -0.000   0.000  0.00  0.00    +0.233 C 
BRANCH  27  28
ATOM     28  O   UNL     1      -0.000  -0.000  -0.000  0.00  0.00    -0.387 OA
ATOM     29  H   UNL     1      -0.000  -0.000   0.000  0.00  0.00    +0.210 HD
ENDBRANCH  27  28
ENDBRANCH  25  27
ENDBRANCH  19  25
BRANCH  19  30
ATOM     30  O   UNL     1      -0.000  -0.000  -0.000  0.00  0.00    -0.380 OA
ATOM     31  H   UNL     1       0.000   0.000   0.000  0.00  0.00    +0.211 HD
ENDBRANCH  19  30
TORSDOF 5
