REMARK  Name = 
REMARK  9 active torsions:
REMARK  status: ('A' for Active; 'I' for Inactive)
REMARK    1  A    between atoms: C_1  and  C_2
REMARK    2  A    between atoms: C_2  and  C_4
REMARK    3  A    between atoms: N_15  and  C_16
REMARK    4  A    between atoms: C_16  and  C_17
REMARK    5  A    between atoms: C_17  and  C_18
REMARK    6  A    between atoms: C_18  and  N_19
REMARK    7  A    between atoms: N_22  and  C_23
REMARK    8  A    between atoms: C_23  and  C_24
REMARK    9  A    between atoms: C_24  and  O_25
REMARK                            x       y       z     vdW  Elec       q    Type
REMARK                         _______ _______ _______ _____ _____    ______ ____
ROOT
ATOM      1  C   UNL     1       2.681   1.162   6.276  0.00  0.00    +0.019 A 
ATOM      2  C   UNL     1       3.719   0.817   5.388  0.00  0.00    +0.036 A 
ATOM      3  C   UNL     1       4.410   1.769   4.598  0.00  0.00    +0.049 A 
ATOM      4  C   UNL     1       3.982   3.102   4.740  0.00  0.00    +0.034 A 
ATOM      5  S   UNL     1       4.672   4.475   3.862  0.00  0.00    -0.086 S 
ATOM      6  C   UNL     1       5.966   3.713   2.922  0.00  0.00    +0.034 A 
ATOM      7  C   UNL     1       6.710   4.617   2.133  0.00  0.00    +0.017 A 
ATOM      8  C   UNL     1       7.755   4.181   1.334  0.00  0.00    +0.001 A 
ATOM      9  C   UNL     1       8.068   2.834   1.329  0.00  0.00    +0.002 A 
ATOM     10  C   UNL     1       7.333   1.932   2.117  0.00  0.00    +0.024 A 
ATOM     11  C   UNL     1       6.249   2.330   2.934  0.00  0.00    +0.048 A 
ATOM     12  C   UNL     1       2.940   3.449   5.620  0.00  0.00    +0.017 A 
ATOM     13  N   UNL     1       5.480   1.411   3.716  0.00  0.00    -0.298 N 
ATOM     14  C   UNL     1       2.289   2.488   6.386  0.00  0.00    +0.012 A 
ENDROOT
BRANCH   1  16
ATOM     15  C   UNL     1       0.965   0.468   8.073  0.00  0.00    +0.091 C 
ATOM     16  C   UNL     1       2.035   0.086   7.083  0.00  0.00    +0.160 C 
ATOM     17  O   UNL     1       2.389  -1.083   6.943  0.00  0.00    -0.292 OA
ENDBRANCH   1  16
BRANCH  13  18
ATOM     18  C   UNL     1       5.828  -0.036   3.645  0.00  0.00    +0.112 C 
BRANCH  18  19
ATOM     19  C   UNL     1       6.748  -0.438   4.808  0.00  0.00    +0.035 C 
BRANCH  19  20
ATOM     20  C   UNL     1       7.082  -1.939   4.827  0.00  0.00    +0.086 C 
BRANCH  20  21
ATOM     21  N   UNL     1       7.735  -2.443   3.605  0.00  0.00    -0.300 NA
ATOM     22  C   UNL     1       8.038  -3.892   3.728  0.00  0.00    +0.100 C 
ATOM     23  C   UNL     1       9.258  -4.239   4.629  0.00  0.00    +0.100 C 
ATOM     24  N   UNL     1      10.498  -3.470   4.341  0.00  0.00    -0.298 NA
ATOM     25  C   UNL     1      10.142  -2.037   4.271  0.00  0.00    +0.100 C 
ATOM     26  C   UNL     1       8.991  -1.733   3.291  0.00  0.00    +0.100 C 
BRANCH  24  27
ATOM     27  C   UNL     1      11.127  -3.964   3.091  0.00  0.00    +0.112 C 
BRANCH  27  28
ATOM     28  C   UNL     1      12.447  -3.256   2.742  0.00  0.00    +0.171 C 
BRANCH  28  29
ATOM     29  O   UNL     1      13.361  -3.336   3.831  0.00  0.00    -0.394 OA
ATOM     30  H   UNL     1      12.817  -3.214   4.634  0.00  0.00    +0.209 HD
ENDBRANCH  28  29
ENDBRANCH  27  28
ENDBRANCH  24  27
ENDBRANCH  20  21
ENDBRANCH  19  20
ENDBRANCH  18  19
ENDBRANCH  13  18
TORSDOF 8
