REMARK  Name = 
REMARK  5 active torsions:
REMARK  status: ('A' for Active; 'I' for Inactive)
REMARK    1  A    between atoms: C_1  and  C_2
REMARK    2  A    between atoms: N_4  and  C_8
REMARK    3  A    between atoms: C_15  and  C_28
REMARK    4  A    between atoms: N_17  and  C_20
REMARK    5  A    between atoms: C_28  and  O_29
REMARK                            x       y       z     vdW  Elec       q    Type
REMARK                         _______ _______ _______ _____ _____    ______ ____
ROOT
ATOM      1  C   UNL     1       1.899  -2.952  -2.121  0.00  0.00    +0.067 A 
ATOM      2  C   UNL     1       0.538  -2.781  -2.444  0.00  0.00    +0.053 A 
ATOM      3  C   UNL     1      -0.413  -3.820  -2.402  0.00  0.00    +0.059 A 
ATOM      4  C   UNL     1       0.110  -5.121  -2.284  0.00  0.00    +0.049 A 
ATOM      5  C   UNL     1      -0.781  -6.289  -2.376  0.00  0.00    +0.203 A 
ATOM      6  C   UNL     1      -2.231  -6.043  -2.415  0.00  0.00    +0.122 A 
ATOM      7  C   UNL     1      -2.636  -4.767  -2.435  0.00  0.00    +0.110 A 
ATOM      8  O   UNL     1      -0.343  -7.436  -2.403  0.00  0.00    -0.286 OA
ATOM      9  C   UNL     1       1.473  -5.353  -2.093  0.00  0.00    +0.054 A 
ATOM     10  N   UNL     1      -1.846  -3.602  -2.466  0.00  0.00    -0.312 N 
ATOM     11  C   UNL     1       2.337  -4.276  -1.973  0.00  0.00    +0.145 A 
ATOM     12  F   UNL     1       3.635  -4.549  -1.769  0.00  0.00    -0.204 F 
ENDROOT
BRANCH   1  19
ATOM     13  C   UNL     1       4.173  -0.933  -4.486  0.00  0.00    +0.025 C 
ATOM     14  C   UNL     1       3.875  -0.097  -3.234  0.00  0.00    +0.068 C 
ATOM     15  N   UNL     1       5.018  -0.103  -2.290  0.00  0.00    -0.311 NA
ATOM     16  H   UNL     1       5.882   0.062  -2.804  0.00  0.00    +0.122 HD
ATOM     17  C   UNL     1       5.126  -1.394  -1.577  0.00  0.00    +0.100 C 
ATOM     18  C   UNL     1       3.803  -1.859  -0.933  0.00  0.00    +0.120 C 
ATOM     19  N   UNL     1       2.734  -1.867  -1.950  0.00  0.00    -0.325 N 
ATOM     20  C   UNL     1       2.539  -0.557  -2.585  0.00  0.00    +0.123 C 
ENDBRANCH   1  19
BRANCH  10  21
ATOM     21  C   UNL     1      -2.504  -2.306  -2.507  0.00  0.00    +0.082 A 
ATOM     22  C   UNL     1      -1.955  -1.174  -1.870  0.00  0.00    +0.032 A 
ATOM     23  C   UNL     1      -2.473   0.112  -2.062  0.00  0.00    +0.040 A 
ATOM     24  C   UNL     1      -3.638   0.279  -2.791  0.00  0.00    +0.126 A 
ATOM     25  F   UNL     1      -4.133   1.508  -2.977  0.00  0.00    -0.205 F 
ATOM     26  C   UNL     1      -4.295  -0.817  -3.320  0.00  0.00    +0.078 A 
ATOM     27  C   UNL     1      -3.722  -2.084  -3.197  0.00  0.00    +0.150 A 
ATOM     28  F   UNL     1      -4.369  -3.091  -3.803  0.00  0.00    -0.203 F 
ENDBRANCH  10  21
BRANCH   6  29
ATOM     29  C   UNL     1      -3.224  -7.134  -2.406  0.00  0.00    +0.342 C 
ATOM     30  O   UNL     1      -4.430  -6.944  -2.378  0.00  0.00    -0.245 OA
BRANCH  29  31
ATOM     31  O   UNL     1      -2.699  -8.383  -2.439  0.00  0.00    -0.477 OA
ATOM     32  H   UNL     1      -1.707  -8.408  -2.453  0.00  0.00    +0.295 HD
ENDBRANCH  29  31
ENDBRANCH   6  29
TORSDOF 4
