REMARK  Name = 
REMARK  2 active torsions:
REMARK  status: ('A' for Active; 'I' for Inactive)
REMARK    1  A    between atoms: C_18  and  O_19
REMARK    2  A    between atoms: C_22  and  C_24
REMARK                            x       y       z     vdW  Elec       q    Type
REMARK                         _______ _______ _______ _____ _____    ______ ____
ROOT
ATOM      1  C   UNL     1       2.012   0.128  -0.044  0.00  0.00    +0.175 C 
ATOM      2  O   UNL     1       1.576  -0.669  -1.126  0.00  0.00    -0.364 OA
ATOM      3  C   UNL     1       0.862   0.164  -2.096  0.00  0.00    +0.150 C 
ATOM      4  C   UNL     1      -0.520  -0.415  -2.320  0.00  0.00    +0.043 C 
ATOM      5  C   UNL     1       0.978   1.674  -1.776  0.00  0.00    +0.039 C 
ATOM      6  C   UNL     1       0.227   2.715  -2.522  0.00  0.00    +0.196 C 
ATOM      7  C   UNL     1       0.802   3.012  -3.851  0.00  0.00    +0.074 A 
ATOM      8  C   UNL     1      -0.053   3.290  -4.911  0.00  0.00    +0.128 A 
ATOM      9  C   UNL     1       0.090   2.562  -6.082  0.00  0.00    +0.046 A 
ATOM     10  C   UNL     1       1.153   1.659  -6.198  0.00  0.00    +0.004 A 
ATOM     11  C   UNL     1       2.170   1.630  -5.228  0.00  0.00    +0.012 A 
ATOM     12  C   UNL     1       2.016   2.378  -4.058  0.00  0.00    +0.036 A 
ATOM     13  C   UNL     1       2.929   2.226  -2.877  0.00  0.00    +0.194 C 
ATOM     14  O   UNL     1       4.122   2.101  -3.024  0.00  0.00    -0.287 OA
ATOM     15  O   UNL     1      -0.783   3.220  -2.052  0.00  0.00    -0.287 OA
ATOM     16  C   UNL     1       2.242   2.065  -1.513  0.00  0.00    +0.052 C 
ATOM     17  C   UNL     1       2.984   1.202  -0.516  0.00  0.00    +0.240 C 
ATOM     18  O   UNL     1       3.327   1.820   0.720  0.00  0.00    -0.454 OA
ATOM     19  C   UNL     1       3.297   0.813   1.670  0.00  0.00    +0.310 C 
ATOM     20  O   UNL     1       3.593   0.967   2.844  0.00  0.00    -0.251 OA
ATOM     21  C   UNL     1       2.828  -0.484   1.052  0.00  0.00    +0.156 C 
ENDROOT
BRANCH   8  22
ATOM     22  O   UNL     1      -1.024   4.233  -4.800  0.00  0.00    -0.506 OA
ATOM     23  H   UNL     1      -1.072   4.719  -5.644  0.00  0.00    +0.292 HD
ENDBRANCH   8  22
TORSDOF 1
