REMARK  Name = 
REMARK  14 active torsions:
REMARK  status: ('A' for Active; 'I' for Inactive)
REMARK    1  A    between atoms: C_1  and  C_2
REMARK    2  A    between atoms: N_4  and  C_5
REMARK    3  A    between atoms: C_7  and  O_9
REMARK    4  A    between atoms: C_11  and  O_12
REMARK    5  A    between atoms: C_11  and  C_36
REMARK    6  A    between atoms: O_12  and  C_13
REMARK    7  A    between atoms: C_17  and  C_18
REMARK    8  A    between atoms: C_26  and  C_28
REMARK    9  A    between atoms: C_28  and  O_30
REMARK   10  A    between atoms: C_28  and  C_31
REMARK   11  A    between atoms: C_31  and  O_33
REMARK   12  A    between atoms: C_31  and  C_34
REMARK   13  A    between atoms: C_34  and  O_35
REMARK   14  A    between atoms: C_36  and  O_37
REMARK                            x       y       z     vdW  Elec       q    Type
REMARK                         _______ _______ _______ _____ _____    ______ ____
ROOT
ATOM      1  C   UNL     1       7.636   3.187  -0.606  0.00  0.00    +0.133 C 
ATOM      2  C   UNL     1       6.365   2.364  -0.256  0.00  0.00    +0.177 C 
ATOM      3  O   UNL     1       5.273   3.220   0.177  0.00  0.00    -0.323 OA
ATOM      4  C   UNL     1       5.531   4.229   1.151  0.00  0.00    +0.314 C 
ATOM      5  C   UNL     1       6.817   5.039   0.944  0.00  0.00    +0.124 C 
ATOM      6  C   UNL     1       8.004   4.185   0.508  0.00  0.00    +0.144 C 
ENDROOT
BRANCH   1   9
ATOM      7  C   UNL     1       7.410   4.306  -4.259  0.00  0.00    +0.109 C 
ATOM      8  C   UNL     1       7.609   3.345  -3.113  0.00  0.00    +0.210 C 
ATOM      9  N   UNL     1       7.456   3.933  -1.877  0.00  0.00    -0.308 N 
ATOM     10  H   UNL     1       7.359   4.940  -1.858  0.00  0.00    +0.149 HD
ATOM     11  O   UNL     1       7.888   2.164  -3.270  0.00  0.00    -0.276 OA
ENDBRANCH   1   9
BRANCH   4  12
ATOM     12  C   UNL     1       5.507   3.639   2.590  0.00  0.00    +0.378 C 
ATOM     13  O   UNL     1       6.504   3.384   3.249  0.00  0.00    -0.244 OA
BRANCH  12  14
ATOM     14  O   UNL     1       4.253   3.339   3.031  0.00  0.00    -0.476 OA
ATOM     15  H   UNL     1       3.588   3.686   2.403  0.00  0.00    +0.295 HD
ENDBRANCH  12  14
ENDBRANCH   4  12
BRANCH   6  16
ATOM     16  O   UNL     1       8.657   3.566   1.605  0.00  0.00    -0.390 OA
ATOM     17  H   UNL     1       8.026   3.231   2.273  0.00  0.00    +0.210 HD
ENDBRANCH   6  16
BRANCH   2  18
ATOM     18  C   UNL     1       6.479   1.176   0.742  0.00  0.00    +0.176 C 
BRANCH  18  19
ATOM     19  O   UNL     1       5.201   0.510   0.804  0.00  0.00    -0.387 OA
ATOM     20  H   UNL     1       4.540   1.170   1.075  0.00  0.00    +0.210 HD
ENDBRANCH  18  19
BRANCH  18  21
ATOM     21  C   UNL     1       7.557   0.111   0.515  0.00  0.00    +0.171 C 
BRANCH  21  22
ATOM     22  O   UNL     1       8.858   0.695   0.595  0.00  0.00    -0.387 OA
ATOM     23  H   UNL     1       9.472  -0.034   0.791  0.00  0.00    +0.210 HD
ENDBRANCH  21  22
BRANCH  21  24
ATOM     24  C   UNL     1       7.419  -0.682  -0.783  0.00  0.00    +0.189 C 
BRANCH  24  25
ATOM     25  O   UNL     1       8.471  -1.653  -0.838  0.00  0.00    -0.392 OA
ATOM     26  H   UNL     1       9.266  -1.169  -1.125  0.00  0.00    +0.210 HD
ENDBRANCH  24  25
ENDBRANCH  21  24
ENDBRANCH  18  21
ENDBRANCH   2  18
BRANCH   4  27
ATOM     27  O   UNL     1       4.397   5.151   1.255  0.00  0.00    -0.451 OA
BRANCH  27  28
ATOM     28  C   UNL     1       3.694   5.453   0.125  0.00  0.00    +0.128 A 
ATOM     29  C   UNL     1       4.224   5.475  -1.155  0.00  0.00    +0.092 A 
ATOM     30  C   UNL     1       3.412   5.768  -2.244  0.00  0.00    +0.143 A 
ATOM     31  C   UNL     1       2.059   6.070  -2.112  0.00  0.00    +0.021 A 
ATOM     32  C   UNL     1       1.299   6.361  -3.334  0.00  0.00    -0.033 A 
ATOM     33  C   UNL     1       1.929   6.273  -4.516  0.00  0.00    +0.096 A 
ATOM     34  C   UNL     1       3.347   5.917  -4.663  0.00  0.00    +0.337 A 
ATOM     35  O   UNL     1       3.871   5.825  -5.766  0.00  0.00    -0.245 OA
ATOM     36  C   UNL     1      -0.146   6.760  -3.304  0.00  0.00    +0.045 C 
ATOM     37  C   UNL     1       1.536   6.065  -0.812  0.00  0.00    +0.015 A 
ATOM     38  O   UNL     1       4.054   5.716  -3.494  0.00  0.00    -0.422 OA
ATOM     39  C   UNL     1       2.348   5.771   0.296  0.00  0.00    +0.046 A 
ENDBRANCH  27  28
ENDBRANCH   4  27
TORSDOF 12
