REMARK  Name = 
REMARK  5 active torsions:
REMARK  status: ('A' for Active; 'I' for Inactive)
REMARK    1  A    between atoms: O_1  and  C_2
REMARK    2  A    between atoms: C_10  and  O_12
REMARK    3  A    between atoms: O_12  and  S_13
REMARK    4  A    between atoms: S_13  and  O_14
REMARK    5  A    between atoms: C_17  and  O_19
REMARK                            x       y       z     vdW  Elec       q    Type
REMARK                         _______ _______ _______ _____ _____    ______ ____
ROOT
ATOM      1  C   UNL     1       2.465  -0.040   0.011  0.00  0.00    +0.177 C 
ATOM      2  C   UNL     1       3.066   1.047  -0.859  0.00  0.00    +0.185 C 
ATOM      3  C   UNL     1       2.316   1.167  -2.188  0.00  0.00    +0.238 C 
ATOM      4  C   UNL     1       1.948  -0.229  -2.767  0.00  0.00    +0.282 C 
ATOM      5  O   UNL     1       2.166  -1.388  -1.965  0.00  0.00    -0.341 OA
ATOM      6  O   UNL     1       4.421   0.609  -1.132  0.00  0.00    -0.368 OA
ATOM      7  C   UNL     1       4.393  -0.838  -1.111  0.00  0.00    +0.194 C 
ATOM      8  C   UNL     1       2.954  -1.231  -0.786  0.00  0.00    +0.178 C 
ENDROOT
BRANCH   1   9
ATOM      9  O   UNL     1       1.052   0.044   0.111  0.00  0.00    -0.386 OA
ATOM     10  H   UNL     1       0.734  -0.801   0.480  0.00  0.00    +0.210 HD
ENDBRANCH   1   9
BRANCH   4  11
ATOM     11  O   UNL     1       0.562  -0.249  -3.104  0.00  0.00    -0.365 OA
ATOM     12  H   UNL     1       0.094  -0.145  -2.257  0.00  0.00    +0.213 HD
ENDBRANCH   4  11
BRANCH   3  13
ATOM     13  O   UNL     1       3.130   1.835  -3.164  0.00  0.00    -0.205 OA
BRANCH  13  14
ATOM     14  S   UNL     1       3.447   3.417  -3.023  0.00  0.00    +0.208 S 
ATOM     15  O   UNL     1       2.237   4.102  -2.635  0.00  0.00    -0.118 OA
ATOM     16  O   UNL     1       4.219   3.809  -4.178  0.00  0.00    -0.118 OA
BRANCH  14  17
ATOM     17  O   UNL     1       4.462   3.469  -1.773  0.00  0.00    -0.231 OA
ATOM     18  H   UNL     1       5.184   2.826  -1.931  0.00  0.00    +0.247 HD
ENDBRANCH  14  17
ENDBRANCH  13  14
ENDBRANCH   3  13
TORSDOF 5
