REMARK  Name = 
REMARK  4 active torsions:
REMARK  status: ('A' for Active; 'I' for Inactive)
REMARK    1  A    between atoms: O_1  and  C_2
REMARK    2  A    between atoms: C_5  and  C_8
REMARK    3  A    between atoms: C_13  and  O_14
REMARK    4  A    between atoms: C_16  and  O_17
REMARK                            x       y       z     vdW  Elec       q    Type
REMARK                         _______ _______ _______ _____ _____    ______ ____
ROOT
ATOM      1  C   UNL     1       6.623   0.220  -0.519  0.00  0.00    +0.064 A 
ATOM      2  C   UNL     1       7.338   1.524  -0.674  0.00  0.00    +0.204 A 
ATOM      3  O   UNL     1       6.791   2.618  -0.555  0.00  0.00    -0.286 OA
ATOM      4  C   UNL     1       8.771   1.486  -1.000  0.00  0.00    +0.106 A 
ATOM      5  C   UNL     1       9.513   2.661  -1.180  0.00  0.00    +0.135 A 
ATOM      6  C   UNL     1      10.866   2.601  -1.499  0.00  0.00    +0.091 A 
ATOM      7  C   UNL     1      11.473   1.357  -1.639  0.00  0.00    +0.124 A 
ATOM      8  C   UNL     1      10.748   0.181  -1.460  0.00  0.00    +0.092 A 
ATOM      9  C   UNL     1       9.392   0.249  -1.136  0.00  0.00    +0.145 A 
ATOM     10  O   UNL     1       8.723  -0.935  -0.965  0.00  0.00    -0.462 OA
ATOM     11  C   UNL     1       7.380  -0.881  -0.671  0.00  0.00    +0.208 A 
ENDROOT
BRANCH   1  15
ATOM     12  C   UNL     1       2.382   0.114   0.188  0.00  0.00    +0.117 A 
ATOM     13  C   UNL     1       2.977  -0.886  -0.567  0.00  0.00    +0.046 A 
ATOM     14  C   UNL     1       4.361  -0.868  -0.781  0.00  0.00    +0.012 A 
ATOM     15  C   UNL     1       5.168   0.143  -0.228  0.00  0.00    -0.011 A 
ATOM     16  C   UNL     1       4.537   1.117   0.565  0.00  0.00    +0.012 A 
ATOM     17  C   UNL     1       3.152   1.113   0.766  0.00  0.00    +0.046 A 
BRANCH  12  18
ATOM     18  O   UNL     1       1.028   0.089   0.330  0.00  0.00    -0.507 OA
ATOM     19  H   UNL     1       0.749   0.905   0.778  0.00  0.00    +0.292 HD
ENDBRANCH  12  18
ENDBRANCH   1  15
BRANCH   7  20
ATOM     20  O   UNL     1      12.795   1.249  -1.956  0.00  0.00    -0.507 OA
ATOM     21  H   UNL     1      13.170   2.142  -2.049  0.00  0.00    +0.292 HD
ENDBRANCH   7  20
BRANCH   5  22
ATOM     22  O   UNL     1       8.971   3.914  -1.055  0.00  0.00    -0.506 OA
ATOM     23  H   UNL     1       8.017   3.810  -0.840  0.00  0.00    +0.292 HD
ENDBRANCH   5  22
TORSDOF 4
