REMARK  Name = 
REMARK  9 active torsions:
REMARK  status: ('A' for Active; 'I' for Inactive)
REMARK    1  A    between atoms: C_1  and  C_2
REMARK    2  A    between atoms: C_2  and  C_3
REMARK    3  A    between atoms: C_3  and  C_4
REMARK    4  A    between atoms: C_4  and  C_5
REMARK    5  A    between atoms: C_5  and  N_6
REMARK    6  A    between atoms: N_9  and  N_10
REMARK    7  A    between atoms: N_10  and  C_11
REMARK    8  A    between atoms: C_18  and  C_19
REMARK    9  A    between atoms: C_19  and  O_20
REMARK                            x       y       z     vdW  Elec       q    Type
REMARK                         _______ _______ _______ _____ _____    ______ ____
ROOT
ATOM      1  N   UNL     1       9.369  -0.276  -5.121  0.00  0.00    -0.217 N 
ATOM      2  H   UNL     1       8.815  -0.049  -5.955  0.00  0.00    +0.187 HD
ENDROOT
BRANCH   1   3
ATOM      3  C   UNL     1      10.631  -0.784  -5.318  0.00  0.00    +0.114 C 
ATOM      4  C   UNL     1      11.399  -0.783  -6.411  0.00  0.00    +0.019 C 
ATOM      5  C   UNL     1      12.743  -1.320  -6.594  0.00  0.00    +0.011 A 
ATOM      6  C   UNL     1      13.627  -2.012  -5.782  0.00  0.00    +0.016 A 
ATOM      7  C   UNL     1      14.876  -2.382  -6.313  0.00  0.00    -0.021 A 
ATOM      8  C   UNL     1      15.197  -2.041  -7.646  0.00  0.00    +0.008 A 
ATOM      9  C   UNL     1      14.291  -1.343  -8.455  0.00  0.00    +0.029 A 
ATOM     10  C   UNL     1      13.065  -0.991  -7.921  0.00  0.00    +0.072 A 
ATOM     11  N   UNL     1      12.036  -0.295  -8.600  0.00  0.00    -0.254 NA
ATOM     12  C   UNL     1      11.073  -0.180  -7.725  0.00  0.00    +0.121 C 
BRANCH   7  13
ATOM     13  C   UNL     1      15.852  -3.161  -5.471  0.00  0.00    +0.191 C 
BRANCH  13  14
ATOM     14  O   UNL     1      16.218  -2.414  -4.320  0.00  0.00    -0.390 OA
ATOM     15  H   UNL     1      16.518  -1.544  -4.635  0.00  0.00    +0.210 HD
ENDBRANCH  13  14
ENDBRANCH   7  13
ENDBRANCH   1   3
BRANCH   1  18
ATOM     16  N   UNL     1       6.576  -0.249  -5.080  0.00  0.00    -0.112 NA
ATOM     17  C   UNL     1       7.260  -0.274  -3.990  0.00  0.00    +0.399 C 
ATOM     18  N   UNL     1       8.634  -0.380  -3.971  0.00  0.00    -0.186 N 
ATOM     19  H   UNL     1       9.054   0.066  -3.160  0.00  0.00    +0.287 HD
ATOM     20  N   UNL     1       6.783  -0.211  -2.714  0.00  0.00    -0.288 N 
ATOM     21  H   UNL     1       7.277  -0.811  -2.065  0.00  0.00    +0.255 HD
ATOM     22  H   UNL     1       5.782  -0.346  -2.635  0.00  0.00    +0.255 HD
BRANCH  16  23
ATOM     23  C   UNL     1       5.118  -0.180  -4.992  0.00  0.00    +0.243 C 
BRANCH  23  24
ATOM     24  C   UNL     1       4.518  -0.179  -6.400  0.00  0.00    +0.041 C 
BRANCH  24  25
ATOM     25  C   UNL     1       4.872  -1.447  -7.181  0.00  0.00    +0.003 C 
BRANCH  25  27
ATOM     26  C   UNL     1       4.640  -2.699  -9.346  0.00  0.00    +0.004 C 
ATOM     27  C   UNL     1       4.247  -1.448  -8.575  0.00  0.00    -0.003 C 
ENDBRANCH  25  27
ENDBRANCH  24  25
ENDBRANCH  23  24
ENDBRANCH  16  23
ENDBRANCH   1  18
TORSDOF 8
