REMARK  Name = 
REMARK  14 active torsions:
REMARK  status: ('A' for Active; 'I' for Inactive)
REMARK    1  A    between atoms: C_2  and  C_3
REMARK    2  A    between atoms: C_2  and  N_7
REMARK    3  A    between atoms: C_2  and  C_33
REMARK    4  A    between atoms: C_3  and  C_4
REMARK    5  A    between atoms: C_4  and  S_5
REMARK    6  A    between atoms: S_5  and  C_6
REMARK    7  A    between atoms: C_8  and  C_10
REMARK    8  A    between atoms: C_16  and  C_18
REMARK    9  A    between atoms: C_18  and  C_20
REMARK   10  A    between atoms: C_18  and  N_28
REMARK   11  A    between atoms: C_20  and  C_21
REMARK   12  A    between atoms: C_24  and  O_25
REMARK   13  A    between atoms: C_29  and  C_31
REMARK   14  A    between atoms: C_31  and  S_32
REMARK                            x       y       z     vdW  Elec       q    Type
REMARK                         _______ _______ _______ _____ _____    ______ ____
ROOT
ATOM      1  C   UNL     1       0.630  -4.066   1.406  0.00  0.00    +0.162 C 
ATOM      2  N   UNL     1       0.024  -2.813   0.928  0.00  0.00    -0.288 N 
ATOM      3  C   UNL     1       0.315  -2.289  -0.320  0.00  0.00    +0.237 C 
ATOM      4  O   UNL     1       0.878  -2.972  -1.182  0.00  0.00    -0.274 OA
ATOM      5  C   UNL     1      -0.563  -2.071   2.035  0.00  0.00    +0.109 C 
ATOM      6  C   UNL     1      -0.515  -3.013   3.223  0.00  0.00    +0.021 C 
ATOM      7  C   UNL     1       0.711  -3.868   2.925  0.00  0.00    +0.033 C 
ENDROOT
BRANCH   1  10
ATOM      8  N   UNL     1      -0.442  -5.491  -0.295  0.00  0.00    -0.302 N 
ATOM      9  H   UNL     1      -0.057  -4.817  -0.961  0.00  0.00    +0.150 HD
ATOM     10  C   UNL     1      -0.188  -5.325   1.046  0.00  0.00    +0.234 C 
ATOM     11  O   UNL     1      -0.500  -6.175   1.879  0.00  0.00    -0.274 OA
BRANCH   8  12
ATOM     12  C   UNL     1      -1.053  -6.713  -0.815  0.00  0.00    +0.159 C 
BRANCH  12  13
ATOM     13  C   UNL     1      -0.867  -6.722  -2.344  0.00  0.00    +0.231 C 
ATOM     14  O   UNL     1      -0.756  -5.703  -3.020  0.00  0.00    -0.274 OA
ATOM     15  N   UNL     1      -0.875  -7.948  -2.946  0.00  0.00    -0.328 N 
ATOM     16  H   UNL     1      -0.707  -7.980  -3.944  0.00  0.00    +0.145 HD
ATOM     17  H   UNL     1      -0.844  -8.813  -2.418  0.00  0.00    +0.145 HD
ENDBRANCH  12  13
BRANCH  12  18
ATOM     18  C   UNL     1      -2.543  -6.788  -0.435  0.00  0.00    +0.042 C 
BRANCH  18  19
ATOM     19  C   UNL     1      -3.296  -8.041  -0.889  0.00  0.00    +0.071 C 
BRANCH  19  20
ATOM     20  S   UNL     1      -2.539  -9.572  -0.250  0.00  0.00    -0.164 S 
ATOM     21  C   UNL     1      -3.669 -10.773  -0.986  0.00  0.00    +0.084 C 
ENDBRANCH  19  20
ENDBRANCH  18  19
ENDBRANCH  12  18
ENDBRANCH   8  12
ENDBRANCH   1  10
BRANCH   3  22
ATOM     22  C   UNL     1      -0.141  -0.831  -0.600  0.00  0.00    +0.163 C 
BRANCH  22  23
ATOM     23  N   UNL     1       0.774  -0.181  -1.532  0.00  0.00    -0.303 N 
ATOM     24  H   UNL     1       0.666  -0.354  -2.526  0.00  0.00    +0.149 HD
ATOM     25  C   UNL     1       1.962   0.365  -1.103  0.00  0.00    +0.223 C 
ATOM     26  O   UNL     1       2.281   0.402   0.085  0.00  0.00    -0.275 OA
BRANCH  25  27
ATOM     27  C   UNL     1       2.820   1.006  -2.182  0.00  0.00    +0.161 C 
BRANCH  27  28
ATOM     28  S   UNL     1       2.654   0.176  -3.794  0.00  0.00    -0.169 S 
ATOM     29  H   UNL     1       2.808  -1.075  -3.328  0.00  0.00    +0.102 HD
ENDBRANCH  27  28
ENDBRANCH  25  27
ENDBRANCH  22  23
BRANCH  22  30
ATOM     30  C   UNL     1      -1.583  -0.820  -1.132  0.00  0.00    +0.067 C 
BRANCH  30  31
ATOM     31  C   UNL     1      -2.151   0.578  -1.285  0.00  0.00    -0.045 A 
ATOM     32  C   UNL     1      -2.272   1.433  -0.178  0.00  0.00    +0.007 A 
ATOM     33  C   UNL     1      -2.772   2.727  -0.330  0.00  0.00    +0.045 A 
ATOM     34  C   UNL     1      -3.159   3.173  -1.587  0.00  0.00    +0.117 A 
ATOM     35  C   UNL     1      -3.068   2.338  -2.695  0.00  0.00    +0.045 A 
ATOM     36  C   UNL     1      -2.564   1.042  -2.543  0.00  0.00    +0.007 A 
BRANCH  34  37
ATOM     37  O   UNL     1      -3.624   4.450  -1.693  0.00  0.00    -0.507 OA
ATOM     38  H   UNL     1      -3.763   4.651  -2.633  0.00  0.00    +0.292 HD
ENDBRANCH  34  37
ENDBRANCH  30  31
ENDBRANCH  22  30
ENDBRANCH   3  22
TORSDOF 13
