REMARK  Name = 
REMARK  9 active torsions:
REMARK  status: ('A' for Active; 'I' for Inactive)
REMARK    1  A    between atoms: C_1  and  C_2
REMARK    2  A    between atoms: C_2  and  C_3
REMARK    3  A    between atoms: C_2  and  N_4
REMARK    4  A    between atoms: N_4  and  C_5
REMARK    5  A    between atoms: C_5  and  C_6
REMARK    6  A    between atoms: C_6  and  O_7
REMARK    7  A    between atoms: C_6  and  C_8
REMARK    8  A    between atoms: C_10  and  O_11
REMARK    9  A    between atoms: C_12  and  O_13
REMARK                            x       y       z     vdW  Elec       q    Type
REMARK                         _______ _______ _______ _____ _____    ______ ____
ROOT
ATOM      1  C   UNL     1       6.528  -2.378   1.499  0.00  0.00    -0.014 A 
ATOM      2  C   UNL     1       7.193  -2.404   0.257  0.00  0.00    +0.010 A 
ATOM      3  C   UNL     1       8.587  -2.390   0.188  0.00  0.00    +0.049 A 
ATOM      4  C   UNL     1       9.321  -2.349   1.361  0.00  0.00    +0.158 A 
ATOM      5  C   UNL     1       8.684  -2.331   2.599  0.00  0.00    +0.159 A 
ATOM      6  C   UNL     1       7.296  -2.346   2.678  0.00  0.00    +0.055 A 
ENDROOT
BRANCH   4   7
ATOM      7  O   UNL     1      10.684  -2.320   1.291  0.00  0.00    -0.503 OA
ATOM      8  H   UNL     1      10.977  -2.281   2.223  0.00  0.00    +0.292 HD
ENDBRANCH   4   7
BRANCH   5   9
ATOM      9  O   UNL     1       9.472  -2.289   3.715  0.00  0.00    -0.503 OA
ATOM     10  H   UNL     1       8.896  -2.295   4.502  0.00  0.00    +0.292 HD
ENDBRANCH   5   9
BRANCH   1  11
ATOM     11  C   UNL     1       5.009  -2.336   1.573  0.00  0.00    +0.158 C 
BRANCH  11  12
ATOM     12  O   UNL     1       4.431  -3.496   0.961  0.00  0.00    -0.386 OA
ATOM     13  H   UNL     1       5.104  -3.911   0.398  0.00  0.00    +0.210 HD
ENDBRANCH  11  12
BRANCH  11  14
ATOM     14  C   UNL     1       4.453  -1.067   0.878  0.00  0.00    +0.117 C 
BRANCH  14  15
ATOM     15  N   UNL     1       2.991  -0.949   1.014  0.00  0.00    -0.311 NA
ATOM     16  H   UNL     1       2.577  -1.829   0.689  0.00  0.00    +0.122 HD
BRANCH  15  18
ATOM     17  C   UNL     1       0.917   0.147   0.341  0.00  0.00    +0.023 C 
ATOM     18  C   UNL     1       2.444   0.181   0.250  0.00  0.00    +0.048 C 
ATOM     19  C   UNL     1       2.959   1.523   0.776  0.00  0.00    +0.023 C 
ENDBRANCH  15  18
ENDBRANCH  14  15
ENDBRANCH  11  14
ENDBRANCH   1  11
TORSDOF 7
