REMARK  Name = 
REMARK  6 active torsions:
REMARK  status: ('A' for Active; 'I' for Inactive)
REMARK    1  A    between atoms: C_1  and  N_2
REMARK    2  A    between atoms: N_2  and  C_3
REMARK    3  A    between atoms: C_3  and  C_4
REMARK    4  A    between atoms: N_6  and  C_7
REMARK    5  A    between atoms: C_14  and  C_16
REMARK    6  A    between atoms: C_17  and  C_18
REMARK                            x       y       z     vdW  Elec       q    Type
REMARK                         _______ _______ _______ _____ _____    ______ ____
ROOT
ATOM      1  C   UNL     1       1.058  -0.172   0.168  0.00  0.00    +0.132 C 
ATOM      2  N   UNL     1       2.509  -0.118   0.105  0.00  0.00    -0.297 N 
ATOM      3  C   UNL     1       3.196  -1.003   0.924  0.00  0.00    +0.239 C 
ATOM      4  O   UNL     1       2.625  -1.769   1.700  0.00  0.00    -0.271 OA
ENDROOT
BRANCH   3   5
ATOM      5  C   UNL     1       4.678  -1.000   0.845  0.00  0.00    +0.068 C 
ATOM      6  C   UNL     1       5.418  -1.803   1.627  0.00  0.00    +0.014 C 
BRANCH   6   7
ATOM      7  C   UNL     1       6.883  -1.842   1.547  0.00  0.00    -0.006 A 
ATOM      8  C   UNL     1       7.568  -1.596   0.353  0.00  0.00    +0.016 A 
ATOM      9  C   UNL     1       8.961  -1.662   0.318  0.00  0.00    -0.006 A 
ATOM     10  C   UNL     1       9.625  -2.030   1.481  0.00  0.00    +0.128 A 
ATOM     11  N   UNL     1      11.000  -2.209   1.448  0.00  0.00    -0.270 N 
ATOM     12  H   UNL     1      11.422  -2.642   2.257  0.00  0.00    +0.156 HD
ATOM     13  C   UNL     1      11.791  -1.919   0.374  0.00  0.00    +0.219 C 
ATOM     14  C   UNL     1      11.155  -1.081  -0.712  0.00  0.00    +0.101 C 
ATOM     15  O   UNL     1      12.979  -2.229   0.347  0.00  0.00    -0.275 OA
ATOM     16  N   UNL     1       9.006  -2.295   2.645  0.00  0.00    -0.239 NA
ATOM     17  C   UNL     1       9.710  -1.473  -0.964  0.00  0.00    +0.048 C 
ATOM     18  C   UNL     1       7.653  -2.189   2.653  0.00  0.00    +0.120 A 
ENDBRANCH   6   7
ENDBRANCH   3   5
BRANCH   2  19
ATOM     19  C   UNL     1       3.104   0.790  -0.882  0.00  0.00    +0.145 C 
BRANCH  19  20
ATOM     20  C   UNL     1       3.421   0.113  -2.183  0.00  0.00    -0.005 A 
ATOM     21  C   UNL     1       4.556   0.389  -3.025  0.00  0.00    +0.005 A 
ATOM     22  C   UNL     1       4.424  -0.377  -4.188  0.00  0.00    +0.049 A 
ATOM     23  C   UNL     1       5.359  -0.321  -5.236  0.00  0.00    +0.026 A 
ATOM     24  C   UNL     1       6.456   0.531  -5.096  0.00  0.00    +0.002 A 
ATOM     25  C   UNL     1       6.616   1.304  -3.950  0.00  0.00    +0.001 A 
ATOM     26  N   UNL     1       3.257  -1.096  -4.060  0.00  0.00    -0.349 N 
ATOM     27  C   UNL     1       2.707  -1.966  -5.078  0.00  0.00    +0.149 C 
ATOM     28  C   UNL     1       5.676   1.245  -2.914  0.00  0.00    +0.010 A 
ATOM     29  C   UNL     1       2.664  -0.831  -2.855  0.00  0.00    +0.091 A 
ENDBRANCH  19  20
ENDBRANCH   2  19
TORSDOF 4
