REMARK  Name = 
REMARK  16 active torsions:
REMARK  status: ('A' for Active; 'I' for Inactive)
REMARK    1  A    between atoms: O_1  and  C_2
REMARK    2  A    between atoms: C_2  and  C_3
REMARK    3  A    between atoms: C_6  and  O_8
REMARK    4  A    between atoms: O_8  and  C_9
REMARK    5  A    between atoms: C_11  and  O_13
REMARK    6  A    between atoms: C_14  and  O_16
REMARK    7  A    between atoms: C_17  and  O_19
REMARK    8  A    between atoms: O_19  and  C_20
REMARK    9  A    between atoms: C_22  and  O_24
REMARK   10  A    between atoms: C_32  and  C_34
REMARK   11  A    between atoms: C_34  and  O_35
REMARK   12  A    between atoms: C_37  and  C_39
REMARK   13  A    between atoms: C_39  and  O_40
REMARK   14  A    between atoms: C_41  and  O_43
REMARK   15  A    between atoms: C_44  and  O_46
REMARK   16  A    between atoms: C_47  and  O_49
REMARK                            x       y       z     vdW  Elec       q    Type
REMARK                         _______ _______ _______ _____ _____    ______ ____
ROOT
ATOM      1  C   UNL     1      -0.424   1.310  -0.259  0.00  0.00    +0.183 C 
ATOM      2  C   UNL     1      -0.002   0.462   0.967  0.00  0.00    +0.178 C 
ATOM      3  O   UNL     1      -0.795  -0.722   1.144  0.00  0.00    -0.341 OA
ATOM      4  C   UNL     1      -2.218  -0.505   1.217  0.00  0.00    +0.282 C 
ATOM      5  C   UNL     1      -2.679   0.082  -0.133  0.00  0.00    +0.201 C 
ATOM      6  C   UNL     1      -1.959   1.406  -0.434  0.00  0.00    +0.179 C 
ENDROOT
BRANCH   6   7
ATOM      7  O   UNL     1      -2.481   2.520   0.283  0.00  0.00    -0.386 OA
ATOM      8  H   UNL     1      -2.129   2.520   1.187  0.00  0.00    +0.210 HD
ENDBRANCH   6   7
BRANCH   5   9
ATOM      9  O   UNL     1      -2.413  -0.859  -1.195  0.00  0.00    -0.384 OA
ATOM     10  H   UNL     1      -1.444  -0.921  -1.292  0.00  0.00    +0.210 HD
ENDBRANCH   5   9
BRANCH   2  11
ATOM     11  C   UNL     1       0.218   1.302   2.238  0.00  0.00    +0.190 C 
BRANCH  11  12
ATOM     12  O   UNL     1       1.001   0.555   3.171  0.00  0.00    -0.392 OA
ATOM     13  H   UNL     1       0.403  -0.133   3.523  0.00  0.00    +0.210 HD
ENDBRANCH  11  12
ENDBRANCH   2  11
BRANCH   4  14
ATOM     14  O   UNL     1      -2.458   0.266   2.371  0.00  0.00    -0.340 OA
BRANCH  14  15
ATOM     15  C   UNL     1      -3.732   0.895   2.577  0.00  0.00    +0.183 C 
ATOM     16  C   UNL     1      -3.412   2.111   3.466  0.00  0.00    +0.174 C 
ATOM     17  O   UNL     1      -3.266   1.824   4.860  0.00  0.00    -0.382 OA
ATOM     18  C   UNL     1      -4.244   0.969   5.472  0.00  0.00    +0.061 C 
ATOM     19  O   UNL     1      -5.380   1.636   5.576  0.00  0.00    -0.831 OA
ATOM     20  C   UNL     1      -4.481  -0.333   4.656  0.00  0.00    +0.209 C 
ATOM     21  F   UNL     1      -3.380  -1.140   4.732  0.00  0.00    -0.241 F 
ATOM     22  C   UNL     1      -4.772  -0.041   3.182  0.00  0.00    +0.181 C 
BRANCH  22  23
ATOM     23  O   UNL     1      -6.075   0.547   3.016  0.00  0.00    -0.386 OA
ATOM     24  H   UNL     1      -6.185   1.106   3.832  0.00  0.00    +0.210 HD
ENDBRANCH  22  23
BRANCH  16  25
ATOM     25  C   UNL     1      -4.263   3.362   3.187  0.00  0.00    +0.190 C 
BRANCH  25  26
ATOM     26  O   UNL     1      -3.599   4.485   3.780  0.00  0.00    -0.392 OA
ATOM     27  H   UNL     1      -3.447   4.185   4.702  0.00  0.00    +0.210 HD
ENDBRANCH  25  26
ENDBRANCH  16  25
ENDBRANCH  14  15
ENDBRANCH   4  14
BRANCH   1  28
ATOM     28  O   UNL     1       0.072   0.748  -1.500  0.00  0.00    -0.340 OA
BRANCH  28  33
ATOM     29  C   UNL     1       2.008   2.815  -2.881  0.00  0.00    +0.178 C 
ATOM     30  C   UNL     1       2.402   1.984  -4.120  0.00  0.00    +0.177 C 
ATOM     31  C   UNL     1       1.763   0.585  -4.162  0.00  0.00    +0.179 C 
ATOM     32  C   UNL     1       1.939  -0.120  -2.816  0.00  0.00    +0.201 C 
ATOM     33  C   UNL     1       1.493   0.769  -1.639  0.00  0.00    +0.282 C 
ATOM     34  O   UNL     1       2.033   2.082  -1.650  0.00  0.00    -0.341 OA
BRANCH  30  35
ATOM     35  O   UNL     1       3.838   1.850  -4.135  0.00  0.00    -0.386 OA
ATOM     36  H   UNL     1       4.060   1.009  -3.680  0.00  0.00    +0.210 HD
ENDBRANCH  30  35
BRANCH  31  37
ATOM     37  O   UNL     1       0.406   0.582  -4.594  0.00  0.00    -0.386 OA
ATOM     38  H   UNL     1      -0.058   1.360  -4.218  0.00  0.00    +0.210 HD
ENDBRANCH  31  37
BRANCH  32  39
ATOM     39  O   UNL     1       3.337  -0.454  -2.666  0.00  0.00    -0.384 OA
ATOM     40  H   UNL     1       3.433  -0.909  -1.807  0.00  0.00    +0.210 HD
ENDBRANCH  32  39
BRANCH  29  41
ATOM     41  C   UNL     1       0.693   3.587  -3.054  0.00  0.00    +0.190 C 
BRANCH  41  42
ATOM     42  O   UNL     1      -0.395   2.727  -3.357  0.00  0.00    -0.392 OA
ATOM     43  H   UNL     1      -0.612   2.271  -2.521  0.00  0.00    +0.210 HD
ENDBRANCH  41  42
ENDBRANCH  29  41
ENDBRANCH  28  33
ENDBRANCH   1  28
TORSDOF 16
