REMARK  Name = 
REMARK  8 active torsions:
REMARK  status: ('A' for Active; 'I' for Inactive)
REMARK    1  A    between atoms: N_1  and  CA_2
REMARK    2  A    between atoms: CA_2  and  C_4
REMARK    3  A    between atoms: CA_2  and  C_15
REMARK    4  A    between atoms: C_4  and  C_5
REMARK    5  A    between atoms: N_10  and  P_11
REMARK    6  A    between atoms: P_11  and  O_12
REMARK    7  A    between atoms: P_11  and  O_13
REMARK    8  A    between atoms: C_15  and  O_16
REMARK                            x       y       z     vdW  Elec       q    Type
REMARK                         _______ _______ _______ _____ _____    ______ ____
ROOT
ATOM      1  C   UNL     1       2.344   1.576  -1.860  0.00  0.00    +0.099 A 
ATOM      2  N   UNL     1       2.306   2.802  -2.490  0.00  0.00    -0.198 N 
ATOM      3  C   UNL     1       1.942   2.725  -3.764  0.00  0.00    +0.416 A 
ATOM      4  N   UNL     1       1.719   1.424  -3.992  0.00  0.00    -0.200 N 
ATOM      5  H   UNL     1       1.434   1.055  -4.895  0.00  0.00    +0.454 HD
ATOM      6  C   UNL     1       1.951   0.694  -2.848  0.00  0.00    +0.330 A 
ENDROOT
BRANCH   2   7
ATOM      7  P   UNL     1       2.719   4.385  -1.789  0.00  0.00    +0.441 P 
ATOM      8  O   UNL     1       3.077   5.762  -1.179  0.00  0.00    -0.234 OA
BRANCH   7   9
ATOM      9  O   UNL     1       1.512   5.036  -2.683  0.00  0.00    -0.307 OA
ATOM     10  H   UNL     1       1.665   6.005  -2.623  0.00  0.00    +0.222 HD
ENDBRANCH   7   9
BRANCH   7  11
ATOM     11  O   UNL     1       3.843   4.457  -2.979  0.00  0.00    -0.307 OA
ATOM     12  H   UNL     1       4.700   4.110  -2.643  0.00  0.00    +0.222 HD
ENDBRANCH   7  11
ENDBRANCH   2   7
BRANCH   1  13
ATOM     13  C   UNL     1       2.738   1.337  -0.443  0.00  0.00    +0.090 C 
BRANCH  13  14
ATOM     14  CA  UNL     1       4.039   0.527  -0.329  0.00  0.00    +0.167 C 
BRANCH  14  15
ATOM     15  N   UNL     1       4.353   0.116   1.059  0.00  0.00    -0.318 NA
ATOM     16  H1  UNL     1       4.332   0.925   1.691  0.00  0.00    +0.119 HD
ATOM     17  H2  UNL     1       3.635  -0.519   1.421  0.00  0.00    +0.119 HD
ENDBRANCH  14  15
BRANCH  14  18
ATOM     18  C   UNL     1       5.228   1.355  -0.847  0.00  0.00    +0.322 C 
ATOM     19  OXT UNL     1       5.133   2.314  -1.606  0.00  0.00    -0.249 OA
BRANCH  18  20
ATOM     20  O   UNL     1       6.401   0.915  -0.341  0.00  0.00    -0.480 OA
ATOM     21  H   UNL     1       6.211   0.218   0.336  0.00  0.00    +0.295 HD
ENDBRANCH  18  20
ENDBRANCH  14  18
ENDBRANCH  13  14
ENDBRANCH   1  13
TORSDOF 8
