REMARK  Name = 
REMARK  10 active torsions:
REMARK  status: ('A' for Active; 'I' for Inactive)
REMARK    1  A    between atoms: C_4  and  C_5
REMARK    2  A    between atoms: C_4  and  C_6
REMARK    3  A    between atoms: CA_7  and  C_27
REMARK    4  A    between atoms: CA_12  and  N_14
REMARK    5  A    between atoms: C_15  and  C_17
REMARK    6  A    between atoms: C_18  and  O_19
REMARK    7  A    between atoms: O_19  and  C_20
REMARK    8  A    between atoms: C_24  and  O_25
REMARK    9  A    between atoms: O_25  and  C_26
REMARK   10  A    between atoms: C_27  and  O_28
REMARK                            x       y       z     vdW  Elec       q    Type
REMARK                         _______ _______ _______ _____ _____    ______ ____
ROOT
ATOM      1  C   UNL     1       2.344   0.034   0.074  0.00  0.00    +0.165 C 
ATOM      2  CA  UNL     1       2.912  -1.180   0.872  0.00  0.00    +0.190 C 
ATOM      3  C   UNL     1       3.731  -1.442  -0.406  0.00  0.00    +0.240 C 
ATOM      4  O   UNL     1       4.688  -2.103  -0.716  0.00  0.00    -0.273 OA
ATOM      5  N   UNL     1       3.101  -0.445  -1.114  0.00  0.00    -0.271 N 
ATOM      6  CA  UNL     1       3.926   0.559  -1.821  0.00  0.00    +0.201 C 
ATOM      7  C   UNL     1       4.382   1.598  -0.772  0.00  0.00    +0.042 C 
ATOM      8  C   UNL     1       5.617   1.120   0.015  0.00  0.00    +0.025 C 
ATOM      9  C   UNL     1       4.693   3.006  -1.287  0.00  0.00    +0.025 C 
ATOM     10  S   UNL     1       2.983   1.718   0.402  0.00  0.00    -0.127 S 
ENDROOT
BRANCH   2  11
ATOM     11  N   UNL     1       3.691  -0.935   2.134  0.00  0.00    -0.298 N 
ATOM     12  H   UNL     1       4.624  -1.318   2.264  0.00  0.00    +0.150 HD
ATOM     13  C   UNL     1       3.145  -0.167   3.144  0.00  0.00    +0.252 C 
ATOM     14  O   UNL     1       2.013   0.280   2.982  0.00  0.00    -0.270 OA
BRANCH  13  15
ATOM     15  C   UNL     1       3.925   0.101   4.401  0.00  0.00    +0.120 A 
ATOM     16  C   UNL     1       3.242   0.581   5.547  0.00  0.00    +0.136 A 
ATOM     17  C   UNL     1       3.958   1.000   6.680  0.00  0.00    +0.046 A 
ATOM     18  C   UNL     1       5.339   0.906   6.729  0.00  0.00    +0.007 A 
ATOM     19  C   UNL     1       6.024   0.397   5.633  0.00  0.00    +0.046 A 
ATOM     20  C   UNL     1       5.343   0.019   4.457  0.00  0.00    +0.136 A 
BRANCH  16  21
ATOM     21  O   UNL     1       1.898   0.828   5.683  0.00  0.00    -0.494 OA
ATOM     22  C   UNL     1       1.005  -0.249   5.411  0.00  0.00    +0.277 C 
ENDBRANCH  16  21
BRANCH  20  23
ATOM     23  O   UNL     1       6.038  -0.429   3.353  0.00  0.00    -0.494 OA
ATOM     24  C   UNL     1       7.394   0.023   3.250  0.00  0.00    +0.277 C 
ENDBRANCH  20  23
ENDBRANCH  13  15
ENDBRANCH   2  11
BRANCH   6  25
ATOM     25  C   UNL     1       3.128   1.128  -3.008  0.00  0.00    +0.327 C 
ATOM     26  OXT UNL     1       3.512   2.031  -3.738  0.00  0.00    -0.249 OA
BRANCH  25  27
ATOM     27  O   UNL     1       1.963   0.474  -3.250  0.00  0.00    -0.479 OA
ATOM     28  H   UNL     1       1.855  -0.271  -2.623  0.00  0.00    +0.295 HD
ENDBRANCH  25  27
ENDBRANCH   6  25
TORSDOF 6
