REMARK  Name = 
REMARK  9 active torsions:
REMARK  status: ('A' for Active; 'I' for Inactive)
REMARK    1  A    between atoms: C_2  and  C_20
REMARK    2  A    between atoms: N_3  and  C_4
REMARK    3  A    between atoms: C_13  and  C_15
REMARK    4  A    between atoms: C_23  and  O_24
REMARK    5  A    between atoms: O_24  and  C_25
REMARK    6  A    between atoms: C_25  and  C_26
REMARK    7  A    between atoms: C_26  and  C_27
REMARK    8  A    between atoms: C_27  and  C_28
REMARK    9  A    between atoms: C_28  and  C_29
REMARK                            x       y       z     vdW  Elec       q    Type
REMARK                         _______ _______ _______ _____ _____    ______ ____
ROOT
ATOM      1  O   UNL     1       1.102   0.165  -0.570  0.00  0.00    -0.270 OA
ATOM      2  C   UNL     1       2.149   0.060   0.062  0.00  0.00    +0.248 C 
ATOM      3  N   UNL     1       2.625  -1.090   0.660  0.00  0.00    -0.281 N 
ATOM      4  H   UNL     1       3.487  -1.029   1.186  0.00  0.00    +0.155 HD
ENDROOT
BRANCH   3   5
ATOM      5  C   UNL     1       1.942  -2.330   0.695  0.00  0.00    +0.037 A 
ATOM      6  C   UNL     1       2.543  -3.383   1.397  0.00  0.00    +0.024 A 
ATOM      7  C   UNL     1       1.903  -4.623   1.501  0.00  0.00    +0.017 A 
ATOM      8  C   UNL     1       0.661  -4.815   0.890  0.00  0.00    +0.064 A 
ATOM      9  C   UNL     1      -0.046  -6.098   0.979  0.00  0.00    +0.193 A 
ATOM     10  C   UNL     1      -1.304  -6.212   0.238  0.00  0.00    +0.101 A 
ATOM     11  C   UNL     1      -1.773  -5.159  -0.448  0.00  0.00    +0.180 A 
ATOM     12  O   UNL     1      -1.140  -3.922  -0.473  0.00  0.00    -0.451 OA
ATOM     13  O   UNL     1       0.396  -7.037   1.630  0.00  0.00    -0.287 OA
ATOM     14  C   UNL     1       0.064  -3.788   0.174  0.00  0.00    +0.141 A 
ATOM     15  C   UNL     1       0.700  -2.549   0.084  0.00  0.00    +0.070 A 
BRANCH  11  16
ATOM     16  C   UNL     1      -2.970  -5.223  -1.237  0.00  0.00    +0.239 A 
ATOM     17  N   UNL     1      -3.402  -4.133  -1.955  0.00  0.00    -0.105 NA
ATOM     18  N   UNL     1      -4.497  -4.509  -2.602  0.00  0.00    -0.048 NA
ATOM     19  N   UNL     1      -4.673  -5.785  -2.253  0.00  0.00    -0.176 N 
ATOM     20  H   UNL     1      -5.447  -6.340  -2.613  0.00  0.00    +0.214 HD
ATOM     21  N   UNL     1      -3.765  -6.296  -1.406  0.00  0.00    -0.130 NA
ENDBRANCH  11  16
ENDBRANCH   3   5
BRANCH   2  22
ATOM     22  C   UNL     1       2.939   1.302   0.236  0.00  0.00    +0.037 A 
ATOM     23  C   UNL     1       4.335   1.371   0.292  0.00  0.00    +0.016 A 
ATOM     24  C   UNL     1       4.962   2.629   0.345  0.00  0.00    +0.046 A 
ATOM     25  C   UNL     1       4.203   3.807   0.344  0.00  0.00    +0.121 A 
ATOM     26  C   UNL     1       2.812   3.717   0.324  0.00  0.00    +0.046 A 
ATOM     27  C   UNL     1       2.188   2.480   0.267  0.00  0.00    +0.016 A 
BRANCH  25  28
ATOM     28  O   UNL     1       4.892   4.995   0.349  0.00  0.00    -0.492 OA
BRANCH  28  29
ATOM     29  C   UNL     1       4.062   6.158   0.238  0.00  0.00    +0.229 C 
BRANCH  29  30
ATOM     30  C   UNL     1       4.891   7.427   0.130  0.00  0.00    +0.041 C 
BRANCH  30  31
ATOM     31  C   UNL     1       5.725   7.438  -1.147  0.00  0.00    +0.008 C 
BRANCH  31  32
ATOM     32  C   UNL     1       6.508   8.742  -1.276  0.00  0.00    +0.035 C 
BRANCH  32  33
ATOM     33  C   UNL     1       7.328   8.743  -2.539  0.00  0.00    -0.047 A 
ATOM     34  C   UNL     1       8.618   8.198  -2.544  0.00  0.00    +0.003 A 
ATOM     35  C   UNL     1       9.359   8.155  -3.725  0.00  0.00    +0.000 A 
ATOM     36  C   UNL     1       8.815   8.650  -4.908  0.00  0.00    +0.000 A 
ATOM     37  C   UNL     1       7.529   9.188  -4.914  0.00  0.00    +0.000 A 
ATOM     38  C   UNL     1       6.787   9.233  -3.734  0.00  0.00    +0.003 A 
ENDBRANCH  32  33
ENDBRANCH  31  32
ENDBRANCH  30  31
ENDBRANCH  29  30
ENDBRANCH  28  29
ENDBRANCH  25  28
ENDBRANCH   2  22
TORSDOF 9
