REMARK  Name = 
REMARK  1 active torsions:
REMARK  status: ('A' for Active; 'I' for Inactive)
REMARK    1  A    between atoms: C_7  and  C_8
REMARK                            x       y       z     vdW  Elec       q    Type
REMARK                         _______ _______ _______ _____ _____    ______ ____
ROOT
ATOM      1  C   UNL     1       2.160  -2.035   0.069  0.00  0.00    +0.180 C 
ATOM      2  C   UNL     1       1.351  -2.060   1.366  0.00  0.00    +0.026 A 
ATOM      3  C   UNL     1       1.182  -3.251   2.108  0.00  0.00    +0.025 A 
ATOM      4  C   UNL     1       0.543  -3.240   3.346  0.00  0.00    +0.018 A 
ATOM      5  C   UNL     1       0.144  -2.039   3.915  0.00  0.00    +0.017 A 
ATOM      6  C   UNL     1       0.269  -0.864   3.178  0.00  0.00    +0.025 A 
ATOM      7 BR   UNL     1       0.190  -4.865   4.243  0.00  0.00    -0.050 Br
ATOM      8  C   UNL     1       0.768  -0.887   1.865  0.00  0.00    +0.041 A 
ATOM      9  N   UNL     1       0.572   0.291   1.130  0.00  0.00    -0.284 N 
ATOM     10  H   UNL     1       0.208   1.085   1.645  0.00  0.00    +0.155 HD
ATOM     11  C   UNL     1       0.469   0.530  -0.204  0.00  0.00    +0.231 C 
ATOM     12  O   UNL     1       0.036   1.652  -0.515  0.00  0.00    -0.274 OA
ATOM     13  C   UNL     1       0.813  -0.437  -1.333  0.00  0.00    +0.184 C 
ATOM     14  N   UNL     1       1.155  -1.791  -0.964  0.00  0.00    -0.256 NA
ATOM     15  C   UNL     1       1.411  -2.724  -2.036  0.00  0.00    +0.116 C 
ATOM     16  C   UNL     1       1.874  -3.921  -1.232  0.00  0.00    +0.178 C 
ATOM     17  O   UNL     1       2.701  -3.358  -0.202  0.00  0.00    -0.349 OA
ENDROOT
BRANCH   1  20
ATOM     18  F   UNL     1       3.731  -1.485   2.456  0.00  0.00    -0.205 F 
ATOM     19  C   UNL     1       4.087  -0.858   1.319  0.00  0.00    +0.131 A 
ATOM     20  C   UNL     1       3.409  -1.119   0.114  0.00  0.00    +0.039 A 
ATOM     21  C   UNL     1       3.974  -0.526  -1.033  0.00  0.00    +0.011 A 
ATOM     22  C   UNL     1       5.035   0.388  -0.956  0.00  0.00    +0.001 A 
ATOM     23  C   UNL     1       5.610   0.690   0.272  0.00  0.00    +0.003 A 
ATOM     24  C   UNL     1       5.154   0.035   1.406  0.00  0.00    +0.039 A 
ENDBRANCH   1  20
TORSDOF 1
