REMARK  Name = 
REMARK  13 active torsions:
REMARK  status: ('A' for Active; 'I' for Inactive)
REMARK    1  A    between atoms: C_2  and  C_3
REMARK    2  A    between atoms: C_2  and  N_7
REMARK    3  A    between atoms: C_2  and  C_24
REMARK    4  A    between atoms: C_3  and  C_4
REMARK    5  A    between atoms: C_4  and  C_5
REMARK    6  A    between atoms: C_5  and  C_6
REMARK    7  A    between atoms: C_8  and  O_10
REMARK    8  A    between atoms: O_10  and  C_11
REMARK    9  A    between atoms: C_11  and  C_12
REMARK   10  A    between atoms: C_12  and  C_13
REMARK   11  A    between atoms: C_13  and  C_14
REMARK   12  A    between atoms: C_24  and  C_26
REMARK   13  A    between atoms: N_28  and  C_29
REMARK                            x       y       z     vdW  Elec       q    Type
REMARK                         _______ _______ _______ _____ _____    ______ ____
ROOT
ATOM      1  N   UNL     1       2.593   0.884   1.066  0.00  0.00    -0.271 N 
ATOM      2  H   UNL     1       3.573   0.814   1.318  0.00  0.00    +0.153 HD
ATOM      3  C   UNL     1       2.116   2.149   1.254  0.00  0.00    +0.401 C 
ATOM      4  O   UNL     1       2.852   3.058   1.600  0.00  0.00    -0.226 OA
ENDROOT
BRANCH   1   5
ATOM      5  C   UNL     1       2.116   0.003   0.004  0.00  0.00    +0.152 C 
BRANCH   5   6
ATOM      6  C   UNL     1       1.983  -1.401   0.579  0.00  0.00    +0.238 C 
ATOM      7  O   UNL     1       2.877  -2.063   1.097  0.00  0.00    -0.285 OA
BRANCH   6   8
ATOM      8  C   UNL     1       0.593  -2.003   0.520  0.00  0.00    +0.287 C 
ATOM      9  N   UNL     1       0.478  -3.292   1.148  0.00  0.00    -0.264 N 
ATOM     10  H   UNL     1       1.336  -3.695   1.521  0.00  0.00    +0.157 HD
ATOM     11  O   UNL     1      -0.337  -1.446  -0.028  0.00  0.00    -0.267 OA
BRANCH   9  12
ATOM     12  C   UNL     1      -0.726  -3.975   1.277  0.00  0.00    +0.121 A 
ATOM     13  N   UNL     1      -0.892  -5.214   1.829  0.00  0.00    -0.264 N 
ATOM     14  H   UNL     1      -0.190  -5.836   2.221  0.00  0.00    +0.190 HD
ATOM     15  N   UNL     1      -2.167  -5.638   1.840  0.00  0.00    -0.181 NA
ATOM     16  C   UNL     1      -2.837  -4.630   1.279  0.00  0.00    +0.136 A 
ATOM     17  C   UNL     1      -1.990  -3.569   0.906  0.00  0.00    +0.064 A 
ENDBRANCH   9  12
ENDBRANCH   6   8
ENDBRANCH   5   6
BRANCH   5  18
ATOM     18  C   UNL     1       3.125   0.049  -1.155  0.00  0.00    +0.030 C 
BRANCH  18  19
ATOM     19  C   UNL     1       2.775  -0.884  -2.314  0.00  0.00    +0.002 C 
BRANCH  19  20
ATOM     20  C   UNL     1       3.790  -0.757  -3.452  0.00  0.00    -0.003 C 
ATOM     21  C   UNL     1       3.465  -1.707  -4.593  0.00  0.00    +0.004 C 
ENDBRANCH  19  20
ENDBRANCH  18  19
ENDBRANCH   5  18
ENDBRANCH   1   5
BRANCH   3  22
ATOM     22  O   UNL     1       0.780   2.231   1.057  0.00  0.00    -0.450 OA
BRANCH  22  23
ATOM     23  C   UNL     1       0.183   3.520   1.303  0.00  0.00    +0.241 C 
BRANCH  23  24
ATOM     24  C   UNL     1      -0.878   3.771   0.224  0.00  0.00    +0.009 C 
ATOM     25  C   UNL     1      -0.188   3.980  -1.165  0.00  0.00    +0.010 C 
ATOM     26  C   UNL     1      -1.105   5.189  -1.402  0.00  0.00    +0.001 C 
ATOM     27  C   UNL     1      -1.322   5.267   0.120  0.00  0.00    +0.010 C 
BRANCH  24  28
ATOM     28  C   UNL     1      -2.000   2.713   0.176  0.00  0.00    +0.045 C 
BRANCH  28  29
ATOM     29  C   UNL     1      -2.830   2.656   1.442  0.00  0.00    -0.047 A 
ATOM     30  C   UNL     1      -2.425   1.867   2.532  0.00  0.00    +0.006 A 
ATOM     31  C   UNL     1      -3.193   1.810   3.697  0.00  0.00    +0.038 A 
ATOM     32  C   UNL     1      -4.382   2.525   3.768  0.00  0.00    +0.123 A 
ATOM     33  F   UNL     1      -5.124   2.461   4.880  0.00  0.00    -0.205 F 
ATOM     34  C   UNL     1      -4.811   3.300   2.698  0.00  0.00    +0.038 A 
ATOM     35  C   UNL     1      -4.035   3.369   1.539  0.00  0.00    +0.006 A 
ENDBRANCH  28  29
ENDBRANCH  24  28
ENDBRANCH  23  24
ENDBRANCH  22  23
ENDBRANCH   3  22
TORSDOF 12
