REMARK  Name = 
REMARK  9 active torsions:
REMARK  status: ('A' for Active; 'I' for Inactive)
REMARK    1  A    between atoms: C_1  and  C_2
REMARK    2  A    between atoms: C_2  and  O_3
REMARK    3  A    between atoms: C_2  and  C_4
REMARK    4  A    between atoms: C_2  and  C_15
REMARK    5  A    between atoms: C_4  and  S_5
REMARK    6  A    between atoms: S_5  and  C_8
REMARK    7  A    between atoms: N_17  and  C_18
REMARK    8  A    between atoms: C_20  and  C_26
REMARK    9  A    between atoms: C_21  and  C_24
REMARK                            x       y       z     vdW  Elec       q    Type
REMARK                         _______ _______ _______ _____ _____    ______ ____
ROOT
ATOM      1  C   UNL     1       2.863   1.476  -0.331  0.00  0.00    +0.250 C 
ATOM      2  N   UNL     1       4.219   1.753  -0.477  0.00  0.00    -0.283 N 
ATOM      3  H   UNL     1       4.870   0.977  -0.458  0.00  0.00    +0.155 HD
ATOM      4  O   UNL     1       1.975   2.297  -0.573  0.00  0.00    -0.272 OA
ENDROOT
BRANCH   2   5
ATOM      5  C   UNL     1       4.722   3.028  -0.824  0.00  0.00    +0.034 A 
ATOM      6  C   UNL     1       5.942   3.130  -1.493  0.00  0.00    +0.024 A 
ATOM      7  C   UNL     1       6.378   4.377  -1.964  0.00  0.00    +0.021 A 
ATOM      8  C   UNL     1       5.618   5.537  -1.742  0.00  0.00    +0.064 A 
ATOM      9  C   UNL     1       4.431   5.457  -1.001  0.00  0.00    +0.074 A 
ATOM     10  C   UNL     1       4.012   4.199  -0.536  0.00  0.00    +0.037 A 
BRANCH   9  11
ATOM     11  C   UNL     1       3.582   6.671  -0.719  0.00  0.00    +0.419 C 
ATOM     12  F   UNL     1       3.129   7.262  -1.857  0.00  0.00    -0.166 F 
ATOM     13  F   UNL     1       4.258   7.629  -0.029  0.00  0.00    -0.166 F 
ATOM     14  F   UNL     1       2.472   6.401   0.023  0.00  0.00    -0.166 F 
ENDBRANCH   9  11
BRANCH   8  15
ATOM     15  C   UNL     1       6.065   6.783  -2.302  0.00  0.00    +0.100 C 
ATOM     16  N   UNL     1       6.421   7.783  -2.768  0.00  0.00    -0.191 NA
ENDBRANCH   8  15
ENDBRANCH   2   5
BRANCH   1  18
ATOM     17  C   UNL     1       0.991   0.001   0.356  0.00  0.00    +0.053 C 
ATOM     18  C   UNL     1       2.501   0.020   0.073  0.00  0.00    +0.158 C 
BRANCH  18  19
ATOM     19  O   UNL     1       3.238  -0.290   1.260  0.00  0.00    -0.378 OA
ATOM     20  H   UNL     1       2.838  -1.082   1.674  0.00  0.00    +0.211 HD
ENDBRANCH  18  19
BRANCH  18  21
ATOM     21  C   UNL     1       2.920  -0.927  -1.054  0.00  0.00    +0.215 C 
BRANCH  21  22
ATOM     22  S   UNL     1       2.390  -2.607  -0.765  0.00  0.00    +0.000 S 
ATOM     23  O   UNL     1       0.960  -2.689  -0.976  0.00  0.00    -0.169 OA
ATOM     24  O   UNL     1       2.987  -3.063   0.475  0.00  0.00    -0.169 OA
BRANCH  22  25
ATOM     25  C   UNL     1       3.150  -3.495  -2.103  0.00  0.00    +0.088 A 
ATOM     26  C   UNL     1       2.477  -3.559  -3.331  0.00  0.00    +0.030 A 
ATOM     27  C   UNL     1       3.072  -4.225  -4.399  0.00  0.00    +0.040 A 
ATOM     28  C   UNL     1       4.315  -4.828  -4.230  0.00  0.00    +0.124 A 
ATOM     29  F   UNL     1       4.890  -5.449  -5.267  0.00  0.00    -0.205 F 
ATOM     30  C   UNL     1       4.967  -4.797  -3.000  0.00  0.00    +0.040 A 
ATOM     31  C   UNL     1       4.379  -4.133  -1.920  0.00  0.00    +0.030 A 
ENDBRANCH  22  25
ENDBRANCH  21  22
ENDBRANCH  18  21
ENDBRANCH   1  18
TORSDOF 8
