REMARK  Name = 
REMARK  5 active torsions:
REMARK  status: ('A' for Active; 'I' for Inactive)
REMARK    1  A    between atoms: O5*_1  and  C5*_2
REMARK    2  A    between atoms: C5*_2  and  C4*_3
REMARK    3  A    between atoms: C1*_6  and  N_14
REMARK    4  A    between atoms: C2*_8  and  O2*_10
REMARK    5  A    between atoms: C3*_11  and  O3*_13
REMARK                            x       y       z     vdW  Elec       q    Type
REMARK                         _______ _______ _______ _____ _____    ______ ____
ROOT
ATOM      1  C4* UNL     1       2.872  -1.472  -0.515  0.00  0.00    +0.177 C 
ATOM      2  C3* UNL     1       1.891  -2.622  -0.305  0.00  0.00    +0.178 C 
ATOM      3  C2* UNL     1       2.770  -3.817   0.053  0.00  0.00    +0.195 C 
ATOM      4  C1* UNL     1       4.207  -3.265  -0.003  0.00  0.00    +0.255 C 
ATOM      5  O4* UNL     1       4.101  -1.844   0.139  0.00  0.00    -0.346 OA
ENDROOT
BRANCH   4   6
ATOM      6  N   UNL     1       5.099  -3.845   1.007  0.00  0.00    -0.269 N 
ATOM      7  C   UNL     1       5.352  -5.210   0.916  0.00  0.00    +0.332 A 
ATOM      8  O   UNL     1       4.831  -5.939   0.074  0.00  0.00    -0.246 OA
ATOM      9  N   UNL     1       6.223  -5.725   1.841  0.00  0.00    -0.273 N 
ATOM     10  H   UNL     1       6.423  -6.712   1.783  0.00  0.00    +0.174 HD
ATOM     11  C   UNL     1       6.884  -5.019   2.813  0.00  0.00    +0.289 A 
ATOM     12  O   UNL     1       7.682  -5.550   3.576  0.00  0.00    -0.265 OA
ATOM     13  C   UNL     1       6.561  -3.581   2.859  0.00  0.00    +0.204 A 
ATOM     14  F   UNL     1       7.169  -2.836   3.801  0.00  0.00    -0.198 F 
ATOM     15  C   UNL     1       5.705  -3.064   1.977  0.00  0.00    +0.137 A 
ENDBRANCH   4   6
BRANCH   2  16
ATOM     16  O3* UNL     1       1.126  -2.853  -1.491  0.00  0.00    -0.386 OA
ATOM     17  H3* UNL     1       1.153  -3.826  -1.626  0.00  0.00    +0.210 HD
ENDBRANCH   2  16
BRANCH   3  18
ATOM     18  O2* UNL     1       2.531  -4.901  -0.855  0.00  0.00    -0.385 OA
ATOM     19  H2* UNL     1       3.245  -5.560  -0.694  0.00  0.00    +0.210 HD
ENDBRANCH   3  18
BRANCH   1  20
ATOM     20  C5* UNL     1       2.361  -0.134   0.019  0.00  0.00    +0.190 C 
BRANCH  20  21
ATOM     21  O5* UNL     1       2.055  -0.221   1.411  0.00  0.00    -0.392 OA
ATOM     22  H5* UNL     1       1.783   0.670   1.692  0.00  0.00    +0.210 HD
ENDBRANCH  20  21
ENDBRANCH   1  20
TORSDOF 5
