REMARK  Name = 
REMARK  25 active torsions:
REMARK  status: ('A' for Active; 'I' for Inactive)
REMARK    1  A    between atoms: N_10  and  C_11
REMARK    2  A    between atoms: C_14  and  C_16
REMARK    3  A    between atoms: C_16  and  O_17
REMARK    4  A    between atoms: O_17  and  P_18
REMARK    5  A    between atoms: P_18  and  O_19
REMARK    6  A    between atoms: P_18  and  O_21
REMARK    7  A    between atoms: O_21  and  P_22
REMARK    8  A    between atoms: P_22  and  O_23
REMARK    9  A    between atoms: P_22  and  O_25
REMARK   10  A    between atoms: O_25  and  P_26
REMARK   11  A    between atoms: P_26  and  O_27
REMARK   12  A    between atoms: P_26  and  O_29
REMARK   13  A    between atoms: O_29  and  P_30
REMARK   14  A    between atoms: P_30  and  O_31
REMARK   15  A    between atoms: P_30  and  O_33
REMARK   16  A    between atoms: O_33  and  P_34
REMARK   17  A    between atoms: P_34  and  O_35
REMARK   18  A    between atoms: P_34  and  O_37
REMARK   19  A    between atoms: O_37  and  C_38
REMARK   20  A    between atoms: C_38  and  C_39
REMARK   21  A    between atoms: C_42  and  N_50
REMARK   22  A    between atoms: C_44  and  O_46
REMARK   23  A    between atoms: C_47  and  O_49
REMARK   24  A    between atoms: C_60  and  O_62
REMARK   25  A    between atoms: C_63  and  O_65
REMARK                            x       y       z     vdW  Elec       q    Type
REMARK                         _______ _______ _______ _____ _____    ______ ____
ROOT
ATOM      1  P   UNL     1      -8.305  -2.510  13.831  0.00  0.00    +0.492 P 
ATOM      2  O   UNL     1      -8.136  -1.502  14.971  0.00  0.00    -0.226 OA
ENDROOT
BRANCH   1   3
ATOM      3  O   UNL     1      -9.557  -1.989  12.909  0.00  0.00    -0.302 OA
ATOM      4  H   UNL     1      -9.981  -2.755  12.466  0.00  0.00    +0.222 HD
ENDBRANCH   1   3
BRANCH   1   5
ATOM      5  O   UNL     1      -7.164  -1.633  12.870  0.00  0.00    -0.186 OA
BRANCH   5   6
ATOM      6  P   UNL     1      -6.687  -2.650  11.554  0.00  0.00    +0.492 P 
ATOM      7  O   UNL     1      -7.424  -3.993  11.698  0.00  0.00    -0.226 OA
BRANCH   6   8
ATOM      8  O   UNL     1      -8.012  -2.057  10.614  0.00  0.00    -0.302 OA
ATOM      9  H   UNL     1      -8.711  -2.739  10.589  0.00  0.00    +0.222 HD
ENDBRANCH   6   8
BRANCH   6  10
ATOM     10  O   UNL     1      -5.361  -3.244  12.494  0.00  0.00    -0.186 OA
BRANCH  10  11
ATOM     11  P   UNL     1      -3.894  -2.504  11.954  0.00  0.00    +0.483 P 
ATOM     12  O   UNL     1      -3.227  -3.879  11.961  0.00  0.00    -0.227 OA
BRANCH  11  13
ATOM     13  O   UNL     1      -3.644  -1.912  13.446  0.00  0.00    -0.302 OA
ATOM     14  H   UNL     1      -3.130  -2.559  13.966  0.00  0.00    +0.222 HD
ENDBRANCH  11  13
BRANCH  11  15
ATOM     15  O   UNL     1      -2.427  -1.764  11.413  0.00  0.00    -0.284 OA
BRANCH  15  16
ATOM     16  C   UNL     1      -2.076  -2.101  10.072  0.00  0.00    +0.206 C 
BRANCH  16  17
ATOM     17  C   UNL     1      -0.760  -1.445   9.646  0.00  0.00    +0.178 C 
ATOM     18  C   UNL     1      -0.768   0.077   9.757  0.00  0.00    +0.178 C 
ATOM     19  C   UNL     1      -0.068   0.389  11.078  0.00  0.00    +0.195 C 
ATOM     20  C   UNL     1       0.346  -0.987  11.622  0.00  0.00    +0.253 C 
ATOM     21  O   UNL     1       0.312  -1.891  10.498  0.00  0.00    -0.346 OA
BRANCH  20  22
ATOM     22  N   UNL     1       1.669  -0.997  12.211  0.00  0.00    -0.286 N 
ATOM     23  C   UNL     1       2.051  -0.215  13.269  0.00  0.00    +0.167 A 
ATOM     24  N   UNL     1       1.308   0.687  13.934  0.00  0.00    -0.216 NA
ATOM     25  C   UNL     1       2.037   1.263  14.916  0.00  0.00    +0.225 A 
ATOM     26  N   UNL     1       3.332   1.050  15.237  0.00  0.00    -0.219 NA
ATOM     27  C   UNL     1       4.035   0.152  14.511  0.00  0.00    +0.147 A 
ATOM     28  N   UNL     1       5.376  -0.048  14.822  0.00  0.00    -0.341 N 
ATOM     29  H   UNL     1       5.741  -0.935  14.494  0.00  0.00    +0.144 HD
ATOM     30  H   UNL     1       5.603   0.241  15.763  0.00  0.00    +0.144 HD
ATOM     31  C   UNL     1       3.378  -0.546  13.488  0.00  0.00    +0.147 A 
ATOM     32  N   UNL     1       3.787  -1.537  12.619  0.00  0.00    -0.231 NA
ATOM     33  C   UNL     1       2.727  -1.796  11.882  0.00  0.00    +0.203 A 
ENDBRANCH  20  22
BRANCH  19  34
ATOM     34  O   UNL     1      -0.950   1.078  11.967  0.00  0.00    -0.385 OA
ATOM     35  H   UNL     1      -0.437   1.268  12.779  0.00  0.00    +0.210 HD
ENDBRANCH  19  34
BRANCH  18  36
ATOM     36  O   UNL     1      -0.015   0.629   8.664  0.00  0.00    -0.386 OA
ATOM     37  H   UNL     1       0.862   0.204   8.641  0.00  0.00    +0.210 HD
ENDBRANCH  18  36
ENDBRANCH  16  17
ENDBRANCH  15  16
ENDBRANCH  11  15
ENDBRANCH  10  11
ENDBRANCH   6  10
ENDBRANCH   5   6
ENDBRANCH   1   5
BRANCH   1  38
ATOM     38  O   UNL     1      -9.445  -3.386  14.792  0.00  0.00    -0.186 OA
BRANCH  38  39
ATOM     39  P   UNL     1      -9.428  -5.053  14.330  0.00  0.00    +0.492 P 
ATOM     40  O   UNL     1     -10.063  -4.670  12.983  0.00  0.00    -0.226 OA
BRANCH  39  41
ATOM     41  O   UNL     1      -7.820  -5.037  14.006  0.00  0.00    -0.302 OA
ATOM     42  H   UNL     1      -7.686  -4.959  13.020  0.00  0.00    +0.222 HD
ENDBRANCH  39  41
BRANCH  39  43
ATOM     43  O   UNL     1      -9.411  -6.720  13.868  0.00  0.00    -0.186 OA
BRANCH  43  44
ATOM     44  P   UNL     1      -8.277  -7.580  14.852  0.00  0.00    +0.483 P 
ATOM     45  O   UNL     1      -9.384  -8.055  15.788  0.00  0.00    -0.227 OA
BRANCH  44  46
ATOM     46  O   UNL     1      -7.143  -8.440  15.835  0.00  0.00    -0.302 OA
ATOM     47  H   UNL     1      -7.670  -9.185  16.193  0.00  0.00    +0.222 HD
ENDBRANCH  44  46
BRANCH  44  48
ATOM     48  O   UNL     1      -8.067  -8.705  13.660  0.00  0.00    -0.284 OA
BRANCH  48  49
ATOM     49  C   UNL     1      -7.080  -8.298  12.730  0.00  0.00    +0.206 C 
BRANCH  49  53
ATOM     50  C   UNL     1      -5.632  -9.384   9.647  0.00  0.00    +0.253 C 
ATOM     51  C   UNL     1      -7.127  -9.598   9.380  0.00  0.00    +0.195 C 
ATOM     52  C   UNL     1      -7.732  -9.856  10.763  0.00  0.00    +0.178 C 
ATOM     53  C   UNL     1      -6.654  -9.367  11.737  0.00  0.00    +0.178 C 
ATOM     54  O   UNL     1      -5.619  -8.745  10.942  0.00  0.00    -0.346 OA
BRANCH  50  62
ATOM     55  N   UNL     1      -2.258 -14.356   8.893  0.00  0.00    -0.341 N 
ATOM     56  H   UNL     1      -1.485 -13.860   9.321  0.00  0.00    +0.144 HD
ATOM     57  H   UNL     1      -2.051 -14.970   8.116  0.00  0.00    +0.144 HD
ATOM     58  C   UNL     1      -3.360 -13.547   8.638  0.00  0.00    +0.147 A 
ATOM     59  C   UNL     1      -3.594 -12.329   9.292  0.00  0.00    +0.147 A 
ATOM     60  N   UNL     1      -2.886 -11.645  10.260  0.00  0.00    -0.231 NA
ATOM     61  C   UNL     1      -3.584 -10.549  10.468  0.00  0.00    +0.203 A 
ATOM     62  N   UNL     1      -4.725 -10.506   9.699  0.00  0.00    -0.286 N 
ATOM     63  C   UNL     1      -4.722 -11.623   8.912  0.00  0.00    +0.167 A 
ATOM     64  N   UNL     1      -5.608 -11.961   7.965  0.00  0.00    -0.216 NA
ATOM     65  C   UNL     1      -5.287 -13.150   7.411  0.00  0.00    +0.225 A 
ATOM     66  N   UNL     1      -4.235 -13.941   7.680  0.00  0.00    -0.219 NA
ENDBRANCH  50  62
BRANCH  52  67
ATOM     67  O   UNL     1      -7.954 -11.255  10.927  0.00  0.00    -0.386 OA
ATOM     68  H   UNL     1      -8.449 -11.385  11.757  0.00  0.00    +0.210 HD
ENDBRANCH  52  67
BRANCH  51  69
ATOM     69  O   UNL     1      -7.692  -8.377   8.846  0.00  0.00    -0.385 OA
ATOM     70  H   UNL     1      -7.477  -7.650   9.456  0.00  0.00    +0.210 HD
ENDBRANCH  51  69
ENDBRANCH  49  53
ENDBRANCH  48  49
ENDBRANCH  44  48
ENDBRANCH  43  44
ENDBRANCH  39  43
ENDBRANCH  38  39
ENDBRANCH   1  38
TORSDOF 25
