REMARK  Name = 
REMARK  4 active torsions:
REMARK  status: ('A' for Active; 'I' for Inactive)
REMARK    1  A    between atoms: C_1  and  C_2
REMARK    2  A    between atoms: C_2  and  C_3
REMARK    3  A    between atoms: C_5  and  C_9
REMARK    4  A    between atoms: C_9  and  O_10
REMARK                            x       y       z     vdW  Elec       q    Type
REMARK                         _______ _______ _______ _____ _____    ______ ____
ROOT
ATOM      1  C   UNK     1       0.870   0.062  -0.001  0.00  0.00    +0.039 C 
ATOM      2  C   UNK     1       2.396  -0.033  -0.127  0.00  0.00    +0.061 C 
ATOM      3  S   UNK     1       2.952  -1.589   0.618  0.00  0.00    -0.137 S 
ATOM      4  C   UNK     1       4.361  -0.857   1.478  0.00  0.00    +0.101 C 
ATOM      5  C   UNK     1       4.362   0.623   1.123  0.00  0.00    +0.174 C 
ATOM      6  N   UNK     1       3.019   1.077   0.630  0.00  0.00    -0.290 NA
ATOM      7  H   UNK     1       2.443   1.200   1.468  0.00  0.00    +0.124 HD
ATOM      8  C   UNK     1       2.786  -0.011  -1.609  0.00  0.00    +0.039 C 
ENDROOT
BRANCH   5   9
ATOM      9  C   UNK     1       5.453   1.010   0.119  0.00  0.00    +0.323 C 
ATOM     10  O   UNK     1       6.566   0.516   0.056  0.00  0.00    -0.249 OA
BRANCH   9  11
ATOM     11  O   UNK     1       5.060   2.057  -0.655  0.00  0.00    -0.480 OA
ATOM     12  H   UNK     1       4.116   2.241  -0.431  0.00  0.00    +0.295 HD
ENDBRANCH   9  11
ENDBRANCH   5   9
TORSDOF 2
