REMARK  Name = 
REMARK  11 active torsions:
REMARK  status: ('A' for Active; 'I' for Inactive)
REMARK    1  A    between atoms: C_2  and  C_3
REMARK    2  A    between atoms: C_2  and  N_10
REMARK    3  A    between atoms: C_2  and  C_30
REMARK    4  A    between atoms: C_3  and  C_4
REMARK    5  A    between atoms: C_11  and  C_13
REMARK    6  A    between atoms: N_19  and  S_20
REMARK    7  A    between atoms: S_20  and  C_23
REMARK    8  A    between atoms: C_26  and  C_27
REMARK    9  A    between atoms: C_30  and  O_32
REMARK   10  A    between atoms: O_32  and  C_33
REMARK   11  A    between atoms: C_33  and  C_34
REMARK                            x       y       z     vdW  Elec       q    Type
REMARK                         _______ _______ _______ _____ _____    ______ ____
ROOT
ATOM      1  N   UNL     1       2.239   4.804   2.657  0.00  0.00    -0.301 N 
ATOM      2  H   UNL     1       2.659   5.712   2.437  0.00  0.00    +0.150 HD
ATOM      3  C   UNL     1       2.082   3.901   1.641  0.00  0.00    +0.233 C 
ATOM      4  O   UNL     1       1.342   2.922   1.799  0.00  0.00    -0.274 OA
ENDROOT
BRANCH   3   5
ATOM      5  C   UNL     1       2.856   4.041   0.333  0.00  0.00    +0.175 C 
ATOM      6  N   UNL     1       2.936   5.338  -0.454  0.00  0.00    -0.163 NA
ATOM      7  C   UNL     1       3.130   5.003  -1.911  0.00  0.00    +0.121 C 
ATOM      8  C   UNL     1       4.456   4.301  -2.217  0.00  0.00    +0.086 C 
ATOM      9  S   UNL     1       4.751   2.768  -1.262  0.00  0.00    -0.157 S 
ATOM     10  C   UNL     1       4.202   3.315   0.408  0.00  0.00    +0.099 C 
BRANCH   6  11
ATOM     11  S   UNL     1       3.921   6.600   0.148  0.00  0.00    +0.062 S 
ATOM     12  O   UNL     1       5.306   6.236  -0.046  0.00  0.00    -0.153 OA
ATOM     13  O   UNL     1       3.426   6.937   1.463  0.00  0.00    -0.153 OA
BRANCH  11  14
ATOM     14  C   UNL     1       3.575   7.989  -0.921  0.00  0.00    +0.106 A 
ATOM     15  C   UNL     1       4.608   8.638  -1.613  0.00  0.00    +0.029 A 
ATOM     16  C   UNL     1       4.308   9.722  -2.454  0.00  0.00    +0.005 A 
ATOM     17  C   UNL     1       2.985  10.150  -2.614  0.00  0.00    -0.050 A 
ATOM     18  C   UNL     1       2.666  11.319  -3.508  0.00  0.00    +0.044 C 
ATOM     19  C   UNL     1       1.967   9.498  -1.908  0.00  0.00    +0.005 A 
ATOM     20  C   UNL     1       2.255   8.423  -1.062  0.00  0.00    +0.029 A 
ENDBRANCH  11  14
ENDBRANCH   6  11
ENDBRANCH   3   5
BRANCH   1  21
ATOM     21  C   UNL     1       1.297   4.791   3.796  0.00  0.00    +0.186 C 
BRANCH  21  22
ATOM     22  C   UNL     1       1.130   6.154   4.487  0.00  0.00    +0.328 C 
ATOM     23  O   UNL     1       0.442   6.358   5.475  0.00  0.00    -0.249 OA
BRANCH  22  24
ATOM     24  O   UNL     1       1.669   7.129   3.699  0.00  0.00    -0.464 OA
BRANCH  24  25
ATOM     25  C   UNL     1       0.960   8.373   3.676  0.00  0.00    +0.229 C 
ATOM     26  C   UNL     1      -0.163   8.244   2.659  0.00  0.00    +0.048 C 
ENDBRANCH  24  25
ENDBRANCH  22  24
ENDBRANCH  21  22
BRANCH  21  27
ATOM     27  C   UNL     1       1.448   3.636   4.806  0.00  0.00    +0.069 C 
BRANCH  27  28
ATOM     28  C   UNL     1       2.839   3.343   5.313  0.00  0.00    -0.045 A 
ATOM     29  C   UNL     1       3.476   2.148   4.941  0.00  0.00    +0.004 A 
ATOM     30  C   UNL     1       4.755   1.847   5.409  0.00  0.00    +0.000 A 
ATOM     31  C   UNL     1       5.411   2.736   6.257  0.00  0.00    +0.000 A 
ATOM     32  C   UNL     1       4.778   3.912   6.655  0.00  0.00    +0.000 A 
ATOM     33  C   UNL     1       3.494   4.213   6.192  0.00  0.00    +0.004 A 
ENDBRANCH  27  28
ENDBRANCH  21  27
ENDBRANCH   1  21
TORSDOF 9
