REMARK  Name = 
REMARK  6 active torsions:
REMARK  status: ('A' for Active; 'I' for Inactive)
REMARK    1  A    between atoms: C_1  and  C_2
REMARK    2  A    between atoms: C_2  and  C_3
REMARK    3  A    between atoms: C_2  and  C_6
REMARK    4  A    between atoms: C_3  and  O_4
REMARK    5  A    between atoms: C_8  and  C_12
REMARK    6  A    between atoms: C_12  and  C_14
REMARK                            x       y       z     vdW  Elec       q    Type
REMARK                         _______ _______ _______ _____ _____    ______ ____
ROOT
ATOM      1  C   UNL     1       2.826  -0.568   1.355  0.00  0.00    -0.033 A 
ATOM      2  C   UNL     1       2.774  -1.959   1.534  0.00  0.00    +0.004 A 
ATOM      3  C   UNL     1       3.305  -2.555   2.680  0.00  0.00    +0.001 A 
ATOM      4  C   UNL     1       3.933  -1.773   3.647  0.00  0.00    +0.012 A 
ATOM      5  C   UNL     1       4.009  -0.387   3.479  0.00  0.00    +0.023 A 
ATOM      6  C   UNL     1       3.395   0.217   2.371  0.00  0.00    +0.016 A 
ENDROOT
BRANCH   1   8
ATOM      7  C   UNL     1       0.803   0.418   0.250  0.00  0.00    +0.024 C 
ATOM      8  C   UNL     1       2.274   0.047   0.076  0.00  0.00    +0.124 C 
BRANCH   8   9
ATOM      9  C   UNL     1       3.086   1.235  -0.446  0.00  0.00    +0.312 C 
ATOM     10  O   UNL     1       2.619   2.320  -0.753  0.00  0.00    -0.250 OA
BRANCH   9  11
ATOM     11  O   UNL     1       4.409   0.968  -0.584  0.00  0.00    -0.480 OA
ATOM     12  H   UNL     1       4.650   0.057  -0.326  0.00  0.00    +0.295 HD
ENDBRANCH   9  11
ENDBRANCH   8   9
ENDBRANCH   1   8
BRANCH   5  13
ATOM     13  C   UNL     1       4.790   0.403   4.468  0.00  0.00    +0.193 C 
ATOM     14  O   UNL     1       4.756   0.076   5.651  0.00  0.00    -0.287 OA
BRANCH  13  15
ATOM     15  C   UNL     1       5.652   1.543   4.037  0.00  0.00    +0.022 A 
ATOM     16  C   UNL     1       6.001   2.517   4.979  0.00  0.00    +0.012 A 
ATOM     17  C   UNL     1       6.810   3.594   4.607  0.00  0.00    +0.001 A 
ATOM     18  C   UNL     1       7.270   3.704   3.294  0.00  0.00    +0.000 A 
ATOM     19  C   UNL     1       6.941   2.730   2.357  0.00  0.00    +0.001 A 
ATOM     20  C   UNL     1       6.154   1.642   2.732  0.00  0.00    +0.012 A 
ENDBRANCH  13  15
ENDBRANCH   5  13
TORSDOF 5
