REMARK  Name = 
REMARK  5 active torsions:
REMARK  status: ('A' for Active; 'I' for Inactive)
REMARK    1  A    between atoms: O_1  and  C_2
REMARK    2  A    between atoms: C_2  and  C_3
REMARK    3  A    between atoms: C_6  and  O_8
REMARK    4  A    between atoms: C_9  and  O_11
REMARK    5  A    between atoms: C_12  and  O_14
REMARK                            x       y       z     vdW  Elec       q    Type
REMARK                         _______ _______ _______ _____ _____    ______ ____
ROOT
ATOM      1  C   UNL     1       2.938  -0.913  -1.281  0.00  0.00    +0.178 C 
ATOM      2  C   UNL     1       2.390  -2.335  -1.180  0.00  0.00    +0.179 C 
ATOM      3  C   UNL     1       3.520  -3.212  -1.718  0.00  0.00    +0.201 C 
ATOM      4  C   UNL     1       4.642  -2.225  -2.064  0.00  0.00    +0.279 C 
ATOM      5  O   UNL     1       4.374  -1.034  -1.332  0.00  0.00    -0.341 OA
ENDROOT
BRANCH   2   6
ATOM      6  O   UNL     1       1.189  -2.471  -1.940  0.00  0.00    -0.386 OA
ATOM      7  H   UNL     1       0.931  -3.410  -1.890  0.00  0.00    +0.210 HD
ENDBRANCH   2   6
BRANCH   3   8
ATOM      8  O   UNL     1       3.935  -4.123  -0.684  0.00  0.00    -0.384 OA
ATOM      9  H   UNL     1       4.226  -3.583   0.076  0.00  0.00    +0.210 HD
ENDBRANCH   3   8
BRANCH   4  10
ATOM     10  O   UNL     1       4.632  -1.912  -3.445  0.00  0.00    -0.365 OA
ATOM     11  H   UNL     1       5.436  -1.386  -3.588  0.00  0.00    +0.213 HD
ENDBRANCH   4  10
BRANCH   1  12
ATOM     12  C   UNL     1       2.536  -0.026  -0.103  0.00  0.00    +0.190 C 
BRANCH  12  13
ATOM     13  O   UNL     1       2.905  -0.626   1.142  0.00  0.00    -0.392 OA
ATOM     14  H   UNL     1       2.701   0.026   1.835  0.00  0.00    +0.210 HD
ENDBRANCH  12  13
ENDBRANCH   1  12
TORSDOF 5
