REMARK  Name = 
REMARK  12 active torsions:
REMARK  status: ('A' for Active; 'I' for Inactive)
REMARK    1  A    between atoms: O_1  and  C_2
REMARK    2  A    between atoms: C_4  and  O_6
REMARK    3  A    between atoms: C_7  and  C_9
REMARK    4  A    between atoms: C_9  and  O_10
REMARK    5  A    between atoms: O_10  and  C_11
REMARK    6  A    between atoms: N_17  and  C_18
REMARK    7  A    between atoms: C_18  and  C_19
REMARK    8  A    between atoms: N_27  and  C_28
REMARK    9  A    between atoms: C_28  and  C_29
REMARK   10  A    between atoms: C_35  and  C_37
REMARK   11  A    between atoms: C_37  and  O_38
REMARK   12  A    between atoms: O_38  and  C_39
REMARK                            x       y       z     vdW  Elec       q    Type
REMARK                         _______ _______ _______ _____ _____    ______ ____
ROOT
ATOM      1  C   UNL     1       2.320  -0.357  -0.074  0.00  0.00    +0.169 C 
ATOM      2  C   UNL     1       2.805   0.919  -0.808  0.00  0.00    +0.146 C 
ATOM      3  N   UNL     1       4.225   1.233  -0.450  0.00  0.00    -0.272 N 
ATOM      4  C   UNL     1       5.322   0.533  -0.947  0.00  0.00    +0.306 C 
ATOM      5  O   UNL     1       6.479   0.905  -0.790  0.00  0.00    -0.252 OA
ATOM      6  N   UNL     1       5.010  -0.681  -1.520  0.00  0.00    -0.272 N 
ATOM      7  C   UNL     1       4.456  -1.695  -0.588  0.00  0.00    +0.146 C 
ATOM      8  C   UNL     1       2.914  -1.695  -0.563  0.00  0.00    +0.169 C 
ENDROOT
BRANCH   1   9
ATOM      9  O   UNL     1       2.565  -0.216   1.340  0.00  0.00    -0.387 OA
ATOM     10  H   UNL     1       3.511  -0.008   1.450  0.00  0.00    +0.210 HD
ENDBRANCH   1   9
BRANCH   8  11
ATOM     11  O   UNL     1       2.411  -2.068  -1.847  0.00  0.00    -0.387 OA
ATOM     12  H   UNL     1       1.452  -1.893  -1.855  0.00  0.00    +0.210 HD
ENDBRANCH   8  11
BRANCH   2  13
ATOM     13  C   UNL     1       2.509   0.946  -2.338  0.00  0.00    +0.254 C 
BRANCH  13  14
ATOM     14  O   UNL     1       1.158   0.543  -2.638  0.00  0.00    -0.490 OA
BRANCH  14  15
ATOM     15  C   UNL     1       0.864   0.413  -3.978  0.00  0.00    +0.121 A 
ATOM     16  C   UNL     1       1.451   1.158  -5.004  0.00  0.00    +0.045 A 
ATOM     17  C   UNL     1       1.060   0.966  -6.339  0.00  0.00    +0.004 A 
ATOM     18  C   UNL     1       0.078   0.028  -6.652  0.00  0.00    +0.000 A 
ATOM     19  C   UNL     1      -0.522  -0.710  -5.635  0.00  0.00    +0.004 A 
ATOM     20  C   UNL     1      -0.137  -0.510  -4.304  0.00  0.00    +0.045 A 
ENDBRANCH  14  15
ENDBRANCH  13  14
ENDBRANCH   2  13
BRANCH   3  21
ATOM     21  C   UNL     1       4.488   2.270   0.559  0.00  0.00    +0.145 C 
BRANCH  21  22
ATOM     22  C   UNL     1       4.646   3.680   0.047  0.00  0.00    -0.030 A 
ATOM     23  C   UNL     1       5.271   3.970  -1.172  0.00  0.00    +0.005 A 
ATOM     24  C   UNL     1       5.389   5.289  -1.615  0.00  0.00    +0.000 A 
ATOM     25  C   UNL     1       4.906   6.337  -0.834  0.00  0.00    +0.000 A 
ATOM     26  C   UNL     1       4.352   6.071   0.415  0.00  0.00    +0.000 A 
ATOM     27  C   UNL     1       4.238   4.752   0.859  0.00  0.00    +0.005 A 
ENDBRANCH  21  22
ENDBRANCH   3  21
BRANCH   6  28
ATOM     28  C   UNL     1       5.514  -1.091  -2.844  0.00  0.00    +0.145 C 
BRANCH  28  29
ATOM     29  C   UNL     1       6.472  -0.158  -3.542  0.00  0.00    -0.030 A 
ATOM     30  C   UNL     1       6.016   0.871  -4.374  0.00  0.00    +0.005 A 
ATOM     31  C   UNL     1       6.926   1.727  -4.998  0.00  0.00    +0.000 A 
ATOM     32  C   UNL     1       8.296   1.562  -4.799  0.00  0.00    +0.000 A 
ATOM     33  C   UNL     1       8.761   0.538  -3.978  0.00  0.00    +0.000 A 
ATOM     34  C   UNL     1       7.855  -0.317  -3.353  0.00  0.00    +0.005 A 
ENDBRANCH  28  29
ENDBRANCH   6  28
BRANCH   7  35
ATOM     35  C   UNL     1       5.042  -3.099  -0.794  0.00  0.00    +0.254 C 
BRANCH  35  36
ATOM     36  O   UNL     1       4.699  -3.952   0.300  0.00  0.00    -0.490 OA
BRANCH  36  37
ATOM     37  C   UNL     1       5.216  -5.218   0.214  0.00  0.00    +0.121 A 
ATOM     38  C   UNL     1       4.499  -6.204   0.890  0.00  0.00    +0.045 A 
ATOM     39  C   UNL     1       4.942  -7.523   0.873  0.00  0.00    +0.004 A 
ATOM     40  C   UNL     1       6.108  -7.866   0.181  0.00  0.00    +0.000 A 
ATOM     41  C   UNL     1       6.837  -6.880  -0.477  0.00  0.00    +0.004 A 
ATOM     42  C   UNL     1       6.393  -5.560  -0.458  0.00  0.00    +0.045 A 
ENDBRANCH  36  37
ENDBRANCH  35  36
ENDBRANCH   7  35
TORSDOF 12
