REMARK  Name = 
REMARK  23 active torsions:
REMARK  status: ('A' for Active; 'I' for Inactive)
REMARK    1  A    between atoms: C_3  and  O_5
REMARK    2  A    between atoms: O_5  and  C_6
REMARK    3  A    between atoms: C_6  and  C_8
REMARK    4  A    between atoms: C_14  and  O_15
REMARK    5  A    between atoms: C_17  and  O_19
REMARK    6  A    between atoms: O_19  and  C_20
REMARK    7  A    between atoms: C_20  and  C_22
REMARK    8  A    between atoms: C_22  and  O_24
REMARK    9  A    between atoms: C_22  and  C_25
REMARK   10  A    between atoms: C_25  and  N_27
REMARK   11  A    between atoms: C_25  and  C_36
REMARK   12  A    between atoms: C_28  and  C_30
REMARK   13  A    between atoms: C_42  and  C_43
REMARK   14  A    between atoms: C_45  and  O_47
REMARK   15  A    between atoms: O_47  and  C_48
REMARK   16  A    between atoms: C_48  and  C_49
REMARK   17  A    between atoms: C_53  and  C_54
REMARK   18  A    between atoms: C_55  and  O_57
REMARK   19  A    between atoms: C_63  and  O_64
REMARK   20  A    between atoms: O_64  and  C_65
REMARK   21  A    between atoms: C_65  and  C_66
REMARK   22  A    between atoms: C_68  and  C_69
REMARK   23  A    between atoms: C_68  and  C_70
REMARK                            x       y       z     vdW  Elec       q    Type
REMARK                         _______ _______ _______ _____ _____    ______ ____
ROOT
ATOM      1  C   UNL     1      -0.000  -0.000  -0.000  0.00  0.00    +0.097 C 
ATOM      2  C   UNL     1      -0.000  -0.000  -0.000  0.00  0.00    +0.170 C 
ATOM      3  C   UNL     1      -0.000  -0.000  -0.000  0.00  0.00    +0.167 C 
ATOM      4  O   UNL     1      -0.000  -0.000  -0.000  0.00  0.00    -0.368 OA
ATOM      5  C   UNL     1      -0.000  -0.000  -0.000  0.00  0.00    +0.068 C 
ATOM      6  C   UNL     1      -0.000  -0.000  -0.000  0.00  0.00    +0.131 C 
ATOM      7  C   UNL     1      -0.000  -0.000  -0.000  0.00  0.00    +0.211 C 
ATOM      8  C   UNL     1      -0.000  -0.000  -0.000  0.00  0.00    +0.066 C 
ATOM      9  C   UNL     1      -0.000  -0.000  -0.000  0.00  0.00    +0.022 C 
ATOM     10  C   UNL     1      -0.000  -0.000  -0.000  0.00  0.00    +0.187 C 
ATOM     11  O   UNL     1      -0.000  -0.000  -0.000  0.00  0.00    -0.292 OA
ATOM     12  C   UNL     1      -0.000  -0.000  -0.000  0.00  0.00    +0.270 C 
ATOM     13  C   UNL     1      -0.000  -0.000  -0.000  0.00  0.00    -0.011 C 
ATOM     14  C   UNL     1      -0.000  -0.000  -0.000  0.00  0.00    +0.023 C 
ATOM     15  C   UNL     1      -0.000  -0.000  -0.000  0.00  0.00    +0.018 C 
ATOM     16  C   UNL     1      -0.000  -0.000  -0.000  0.00  0.00    +0.018 C 
ATOM     17  C   UNL     1      -0.000  -0.000  -0.000  0.00  0.00    +0.116 C 
ATOM     18  C   UNL     1      -0.000  -0.000   0.000  0.00  0.00    +0.088 C 
ATOM     19  C   UNL     1      -0.000  -0.000  -0.000  0.00  0.00    +0.205 C 
ATOM     20  C   UNL     1      -0.000  -0.000   0.000  0.00  0.00    -0.029 C 
ATOM     21  C   UNL     1      -0.000  -0.000   0.000  0.00  0.00    +0.043 C 
ATOM     22  C   UNL     1      -0.000  -0.000  -0.000  0.00  0.00    +0.217 C 
ENDROOT
BRANCH   6  23
ATOM     23  O   UNL     1      -0.000  -0.000  -0.000  0.00  0.00    -0.391 OA
ATOM     24  H   UNL     1       0.000   0.000   0.000  0.00  0.00    +0.210 HD
ENDBRANCH   6  23
BRANCH  17  25
ATOM     25  O   UNL     1      -0.000  -0.000  -0.000  0.00  0.00    -0.384 OA
ATOM     26  H   UNL     1       0.000   0.000   0.000  0.00  0.00    +0.210 HD
ENDBRANCH  17  25
BRANCH  22  27
ATOM     27  O   UNL     1      -0.000  -0.000   0.000  0.00  0.00    -0.454 OA
BRANCH  27  28
ATOM     28  C   UNL     1      -0.000  -0.000  -0.000  0.00  0.00    +0.340 C 
ATOM     29  O   UNL     1      -0.000  -0.000  -0.000  0.00  0.00    -0.245 OA
BRANCH  28  30
ATOM     30  C   UNL     1      -0.000  -0.000  -0.000  0.00  0.00    +0.059 A 
ATOM     31  C   UNL     1      -0.000  -0.000  -0.000  0.00  0.00    +0.015 A 
ATOM     32  C   UNL     1      -0.000  -0.000  -0.000  0.00  0.00    +0.001 A 
ATOM     33  C   UNL     1      -0.000  -0.000  -0.000  0.00  0.00    +0.000 A 
ATOM     34  C   UNL     1      -0.000  -0.000  -0.000  0.00  0.00    +0.001 A 
ATOM     35  C   UNL     1      -0.000  -0.000  -0.000  0.00  0.00    +0.015 A 
ENDBRANCH  28  30
ENDBRANCH  27  28
ENDBRANCH  22  27
BRANCH  19  36
ATOM     36  O   UNL     1      -0.000  -0.000  -0.000  0.00  0.00    -0.455 OA
BRANCH  36  37
ATOM     37  C   UNL     1      -0.000  -0.000  -0.000  0.00  0.00    +0.339 C 
ATOM     38  O   UNL     1      -0.000  -0.000  -0.000  0.00  0.00    -0.248 OA
BRANCH  37  39
ATOM     39  C   UNL     1      -0.000  -0.000  -0.000  0.00  0.00    +0.247 C 
BRANCH  39  40
ATOM     40  O   UNL     1      -0.000  -0.000  -0.000  0.00  0.00    -0.379 OA
ATOM     41  H   UNL     1      -0.000  -0.000  -0.000  0.00  0.00    +0.211 HD
ENDBRANCH  39  40
BRANCH  39  42
ATOM     42  C   UNL     1      -0.000  -0.000  -0.000  0.00  0.00    +0.143 C 
BRANCH  42  43
ATOM     43  C   UNL     1      -0.000  -0.000  -0.000  0.00  0.00    -0.024 A 
ATOM     44  C   UNL     1      -0.000  -0.000  -0.000  0.00  0.00    +0.005 A 
ATOM     45  C   UNL     1      -0.000  -0.000  -0.000  0.00  0.00    +0.000 A 
ATOM     46  C   UNL     1      -0.000  -0.000  -0.000  0.00  0.00    +0.000 A 
ATOM     47  C   UNL     1      -0.000  -0.000  -0.000  0.00  0.00    +0.000 A 
ATOM     48  C   UNL     1      -0.000  -0.000  -0.000  0.00  0.00    +0.005 A 
ENDBRANCH  42  43
BRANCH  42  49
ATOM     49  N   UNL     1      -0.000  -0.000  -0.000  0.00  0.00    -0.301 N 
ATOM     50  H   UNL     1      -0.000  -0.000  -0.000  0.00  0.00    +0.150 HD
ATOM     51  C   UNL     1      -0.000  -0.000  -0.000  0.00  0.00    +0.245 C 
ATOM     52  O   UNL     1      -0.000  -0.000  -0.000  0.00  0.00    -0.270 OA
BRANCH  51  53
ATOM     53  C   UNL     1      -0.000  -0.000  -0.000  0.00  0.00    +0.037 A 
ATOM     54  C   UNL     1      -0.000  -0.000  -0.000  0.00  0.00    +0.013 A 
ATOM     55  C   UNL     1      -0.000  -0.000  -0.000  0.00  0.00    +0.001 A 
ATOM     56  C   UNL     1      -0.000  -0.000  -0.000  0.00  0.00    +0.000 A 
ATOM     57  C   UNL     1      -0.000  -0.000  -0.000  0.00  0.00    +0.001 A 
ATOM     58  C   UNL     1      -0.000  -0.000  -0.000  0.00  0.00    +0.013 A 
ENDBRANCH  51  53
ENDBRANCH  42  49
ENDBRANCH  39  42
ENDBRANCH  37  39
ENDBRANCH  36  37
ENDBRANCH  19  36
BRANCH  12  59
ATOM     59  O   UNL     1      -0.000  -0.000  -0.000  0.00  0.00    -0.449 OA
BRANCH  59  60
ATOM     60  C   UNL     1      -0.000  -0.000  -0.000  0.00  0.00    +0.305 C 
ATOM     61  O   UNL     1      -0.000  -0.000  -0.000  0.00  0.00    -0.251 OA
ATOM     62  C   UNL     1      -0.000  -0.000  -0.000  0.00  0.00    +0.136 C 
ENDBRANCH  59  60
ENDBRANCH  12  59
BRANCH   2  63
ATOM     63  O   UNL     1      -0.000  -0.000  -0.000  0.00  0.00    -0.453 OA
BRANCH  63  64
ATOM     64  C   UNL     1      -0.000  -0.000  -0.000  0.00  0.00    +0.305 C 
ATOM     65  O   UNL     1      -0.000  -0.000  -0.000  0.00  0.00    -0.251 OA
ATOM     66  C   UNL     1      -0.000  -0.000  -0.000  0.00  0.00    +0.136 C 
ENDBRANCH  63  64
ENDBRANCH   2  63
TORSDOF 17
