REMARK  Name = 
REMARK  31 active torsions:
REMARK  status: ('A' for Active; 'I' for Inactive)
REMARK    1  A    between atoms: C_1  and  C_2
REMARK    2  A    between atoms: C_2  and  C_3
REMARK    3  A    between atoms: C_3  and  C_4
REMARK    4  A    between atoms: C_4  and  C_5
REMARK    5  A    between atoms: C_5  and  O_6
REMARK    6  A    between atoms: O_6  and  C_7
REMARK    7  A    between atoms: C_10  and  C_13
REMARK    8  A    between atoms: C_15  and  C_18
REMARK    9  A    between atoms: C_21  and  C_24
REMARK   10  A    between atoms: N_26  and  C_27
REMARK   11  A    between atoms: C_30  and  O_32
REMARK   12  A    between atoms: C_33  and  O_35
REMARK   13  A    between atoms: C_41  and  O_43
REMARK   14  A    between atoms: C_44  and  C_46
REMARK   15  A    between atoms: C_51  and  C_98
REMARK   16  A    between atoms: C_56  and  C_80
REMARK   17  A    between atoms: C_64  and  O_66
REMARK   18  A    between atoms: C_71  and  C_76
REMARK   19  A    between atoms: C_76  and  C_78
REMARK   20  A    between atoms: C_76  and  O_79
REMARK   21  A    between atoms: C_80  and  O_82
REMARK   22  A    between atoms: C_80  and  C_83
REMARK   23  A    between atoms: C_83  and  O_85
REMARK   24  A    between atoms: C_83  and  C_86
REMARK   25  A    between atoms: C_88  and  O_89
REMARK   26  A    between atoms: O_89  and  S_90
REMARK   27  A    between atoms: S_90  and  O_91
REMARK   28  A    between atoms: C_94  and  O_95
REMARK   29  A    between atoms: C_98  and  O_100
REMARK   30  A    between atoms: C_98  and  C_101
REMARK   31  A    between atoms: C_101  and  C_102
REMARK                            x       y       z     vdW  Elec       q    Type
REMARK                         _______ _______ _______ _____ _____    ______ ____
ROOT
ATOM      1  C   UNL     1      12.120  15.301   7.964  0.00  0.00    +0.162 C 
ATOM      2  C   UNL     1      12.777  16.778   8.369  0.00  0.00    +0.234 C 
ATOM      3  O   UNL     1      13.635  16.786   9.272  0.00  0.00    -0.274 OA
ATOM      4  N   UNL     1      12.681  18.017   7.736  0.00  0.00    -0.300 N 
ATOM      5  H   UNL     1      13.640  18.329   7.842  0.00  0.00    +0.150 HD
ATOM      6  C   UNL     1      12.125  18.913   6.600  0.00  0.00    +0.187 C 
ATOM      7  C   UNL     1      12.352  20.535   6.653  0.00  0.00    +0.239 C 
ATOM      8  O   UNL     1      11.634  21.280   5.960  0.00  0.00    -0.273 OA
ATOM      9  N   UNL     1      13.517  21.116   7.082  0.00  0.00    -0.286 N 
ATOM     10  C   UNL     1      14.754  21.226   6.271  0.00  0.00    +0.164 C 
ATOM     11  C   UNL     1      15.669  20.270   7.035  0.00  0.00    +0.065 C 
ATOM     12  C   UNL     1      15.354  20.639   8.497  0.00  0.00    +0.134 C 
ATOM     13  C   UNL     1      14.861  21.148   4.714  0.00  0.00    +0.234 C 
ATOM     14  O   UNL     1      15.906  21.334   4.117  0.00  0.00    -0.274 OA
ATOM     15  N   UNL     1      13.703  20.786   4.061  0.00  0.00    -0.300 N 
ATOM     16  H   UNL     1      13.005  20.398   4.666  0.00  0.00    +0.150 HD
ATOM     17  C   UNL     1      13.705  20.054   2.799  0.00  0.00    +0.190 C 
ATOM     18  C   UNL     1      14.659  18.881   3.007  0.00  0.00    +0.237 C 
ATOM     19  O   UNL     1      14.573  18.234   4.053  0.00  0.00    -0.274 OA
ATOM     20  N   UNL     1      15.596  18.654   2.061  0.00  0.00    -0.300 N 
ATOM     21  H   UNL     1      16.194  19.473   1.942  0.00  0.00    +0.150 HD
ATOM     22  C   UNL     1      16.272  17.378   1.821  0.00  0.00    +0.188 C 
ATOM     23  C   UNL     1      15.847  16.843   0.438  0.00  0.00    +0.239 C 
ATOM     24  O   UNL     1      16.745  16.867  -0.426  0.00  0.00    -0.273 OA
ATOM     25  N   UNL     1      14.607  16.345   0.052  0.00  0.00    -0.285 N 
ATOM     26  C   UNL     1      13.220  16.383   0.611  0.00  0.00    +0.191 C 
ATOM     27  C   UNL     1      12.405  15.615  -0.473  0.00  0.00    +0.148 C 
ATOM     28  C   UNL     1      12.964  16.372  -1.687  0.00  0.00    +0.034 C 
ATOM     29  C   UNL     1      12.536  16.012  -3.091  0.00  0.00    +0.012 C 
ATOM     30  C   UNL     1      12.755  16.205   2.053  0.00  0.00    +0.238 C 
ATOM     31  O   UNL     1      12.454  17.262   2.636  0.00  0.00    -0.274 OA
ATOM     32  N   UNL     1      12.732  15.014   2.770  0.00  0.00    -0.287 N 
ATOM     33  H   UNL     1      12.139  14.295   2.376  0.00  0.00    +0.151 HD
ATOM     34  C   UNL     1      12.539  15.274   4.179  0.00  0.00    +0.231 C 
ATOM     35  C   UNL     1      12.542  14.243   5.356  0.00  0.00    +0.163 C 
ATOM     36  C   UNL     1      14.460  16.252  -1.415  0.00  0.00    +0.114 C 
ATOM     37  C   UNL     1      13.871  21.033   8.486  0.00  0.00    +0.140 C 
ATOM     38  C   UNL     1      12.724  15.176   6.589  0.00  0.00    +0.067 C 
ENDROOT
BRANCH   1  40
ATOM     39  C   UNL     1      12.740  12.791   8.611  0.00  0.00    +0.245 C 
ATOM     40  N   UNL     1      12.394  14.122   8.923  0.00  0.00    -0.300 N 
ATOM     41  H   UNL     1      12.225  14.321   9.903  0.00  0.00    +0.150 HD
ATOM     42  O   UNL     1      13.098  12.444   7.489  0.00  0.00    -0.270 OA
BRANCH  39  46
ATOM     43  C   UNL     1      12.413   9.540  11.635  0.00  0.00    +0.004 A 
ATOM     44  C   UNL     1      11.475  10.590  11.543  0.00  0.00    +0.011 A 
ATOM     45  C   UNL     1      11.597  11.649  10.597  0.00  0.00    +0.014 A 
ATOM     46  C   UNL     1      12.648  11.699   9.691  0.00  0.00    +0.037 A 
ATOM     47  C   UNL     1      13.539  10.592   9.719  0.00  0.00    +0.014 A 
ATOM     48  C   UNL     1      13.425   9.535  10.667  0.00  0.00    +0.011 A 
BRANCH  43  52
ATOM     49  C   UNL     1      12.790   7.025  14.341  0.00  0.00    +0.168 A 
ATOM     50  O   UNL     1      11.656   7.705  14.652  0.00  0.00    -0.354 OA
ATOM     51  N   UNL     1      11.368   8.639  13.676  0.00  0.00    -0.078 NA
ATOM     52  C   UNL     1      12.339   8.551  12.749  0.00  0.00    +0.114 A 
ATOM     53  C   UNL     1      13.225   7.477  13.104  0.00  0.00    +0.081 A 
BRANCH  49  57
ATOM     54  C   UNL     1      14.118   4.218  17.345  0.00  0.00    +0.121 A 
ATOM     55  C   UNL     1      14.367   3.985  15.986  0.00  0.00    +0.046 A 
ATOM     56  C   UNL     1      13.942   4.888  14.993  0.00  0.00    +0.015 A 
ATOM     57  C   UNL     1      13.253   6.047  15.351  0.00  0.00    +0.020 A 
ATOM     58  C   UNL     1      13.003   6.279  16.704  0.00  0.00    +0.015 A 
ATOM     59  C   UNL     1      13.438   5.375  17.708  0.00  0.00    +0.046 A 
BRANCH  54  60
ATOM     60  O   UNL     1      14.575   3.265  18.222  0.00  0.00    -0.492 OA
BRANCH  60  61
ATOM     61  C   UNL     1      14.309   3.502  19.608  0.00  0.00    +0.229 C 
BRANCH  61  62
ATOM     62  C   UNL     1      14.856   2.353  20.454  0.00  0.00    +0.041 C 
BRANCH  62  63
ATOM     63  C   UNL     1      16.375   2.224  20.338  0.00  0.00    +0.003 C 
BRANCH  63  65
ATOM     64  C   UNL     1      18.418   0.976  21.103  0.00  0.00    +0.004 C 
ATOM     65  C   UNL     1      16.909   1.106  21.233  0.00  0.00    -0.003 C 
ENDBRANCH  63  65
ENDBRANCH  62  63
ENDBRANCH  61  62
ENDBRANCH  60  61
ENDBRANCH  54  60
ENDBRANCH  49  57
ENDBRANCH  43  52
ENDBRANCH  39  46
ENDBRANCH   1  40
BRANCH  35  66
ATOM     66  O   UNL     1      11.404  13.417   5.441  0.00  0.00    -0.387 OA
ATOM     67  H   UNL     1      11.707  12.677   6.016  0.00  0.00    +0.210 HD
ENDBRANCH  35  66
BRANCH  34  68
ATOM     68  O   UNL     1      13.706  16.024   4.505  0.00  0.00    -0.372 OA
ATOM     69  H   UNL     1      13.567  16.934   4.166  0.00  0.00    +0.212 HD
ENDBRANCH  34  68
BRANCH  27  70
ATOM     70  O   UNL     1      11.001  15.743  -0.389  0.00  0.00    -0.389 OA
ATOM     71  H   UNL     1      10.616  15.277  -1.156  0.00  0.00    +0.210 HD
ENDBRANCH  27  70
BRANCH  12  72
ATOM     72  O   UNL     1      16.177  21.729   8.914  0.00  0.00    -0.390 OA
ATOM     73  H   UNL     1      16.005  22.503   8.348  0.00  0.00    +0.210 HD
ENDBRANCH  12  72
BRANCH   6  74
ATOM     74  C   UNL     1      10.674  18.767   6.022  0.00  0.00    +0.141 C 
ATOM     75  C   UNL     1       9.535  19.541   6.733  0.00  0.00    +0.040 C 
BRANCH  74  76
ATOM     76  O   UNL     1      10.696  19.273   4.661  0.00  0.00    -0.390 OA
ATOM     77  H   UNL     1      10.681  20.259   4.709  0.00  0.00    +0.210 HD
ENDBRANCH  74  76
ENDBRANCH   6  74
BRANCH  17  78
ATOM     78  C   UNL     1      13.538  20.804   1.461  0.00  0.00    +0.176 C 
BRANCH  78  79
ATOM     79  O   UNL     1      14.749  21.451   1.069  0.00  0.00    -0.387 OA
ATOM     80  H   UNL     1      14.745  22.321   1.516  0.00  0.00    +0.210 HD
ENDBRANCH  78  79
BRANCH  78  81
ATOM     81  C   UNL     1      12.356  21.814   1.605  0.00  0.00    +0.175 C 
BRANCH  81  82
ATOM     82  C   UNL     1      11.780  22.553   0.415  0.00  0.00    -0.013 A 
ATOM     83  C   UNL     1      12.226  22.425  -0.906  0.00  0.00    +0.010 A 
ATOM     84  C   UNL     1      11.609  23.155  -1.932  0.00  0.00    +0.049 A 
ATOM     85  C   UNL     1      10.528  23.987  -1.651  0.00  0.00    +0.161 A 
ATOM     86  C   UNL     1      10.041  24.099  -0.346  0.00  0.00    +0.200 A 
ATOM     87  C   UNL     1      10.694  23.416   0.671  0.00  0.00    +0.058 A 
BRANCH  85  88
ATOM     88  O   UNL     1       9.950  24.667  -2.686  0.00  0.00    -0.503 OA
ATOM     89  H   UNL     1       9.268  25.249  -2.306  0.00  0.00    +0.292 HD
ENDBRANCH  85  88
BRANCH  86  90
ATOM     90  O   UNL     1       8.933  24.891  -0.162  0.00  0.00    -0.321 OA
BRANCH  90  91
ATOM     91  S   UNL     1       7.984  24.701   1.145  0.00  0.00    +0.251 S 
ATOM     92  O   UNL     1       8.524  25.477   2.249  0.00  0.00    -0.108 OA
ATOM     93  O   UNL     1       7.633  23.311   1.305  0.00  0.00    -0.108 OA
BRANCH  91  94
ATOM     94  O   UNL     1       6.601  25.405   0.708  0.00  0.00    -0.222 OA
ATOM     95  H   UNL     1       5.925  24.695   0.695  0.00  0.00    +0.248 HD
ENDBRANCH  91  94
ENDBRANCH  90  91
ENDBRANCH  86  90
ENDBRANCH  81  82
BRANCH  81  96
ATOM     96  O   UNL     1      12.744  22.842   2.529  0.00  0.00    -0.385 OA
ATOM     97  H   UNL     1      12.839  22.408   3.399  0.00  0.00    +0.210 HD
ENDBRANCH  81  96
ENDBRANCH  78  81
ENDBRANCH  17  78
BRANCH  22  98
ATOM     98  C   UNL     1      16.430  16.336   2.950  0.00  0.00    +0.152 C 
BRANCH  98  99
ATOM     99  O   UNL     1      17.106  16.976   4.051  0.00  0.00    -0.389 OA
ATOM    100  H   UNL     1      17.326  16.301   4.718  0.00  0.00    +0.210 HD
ENDBRANCH  98  99
BRANCH  98 101
ATOM    101  C   UNL     1      17.267  15.127   2.520  0.00  0.00    +0.129 C 
BRANCH 101 102
ATOM    102  C   UNL     1      17.517  14.044   3.559  0.00  0.00    +0.213 C 
ATOM    103  O   UNL     1      18.326  13.143   3.368  0.00  0.00    -0.276 OA
ATOM    104  N   UNL     1      16.812  14.074   4.726  0.00  0.00    -0.329 N 
ATOM    105  H   UNL     1      16.957  13.280   5.341  0.00  0.00    +0.145 HD
ATOM    106  H   UNL     1      15.932  14.571   4.838  0.00  0.00    +0.145 HD
ENDBRANCH 101 102
ENDBRANCH  98 101
ENDBRANCH  22  98
TORSDOF 28
