REMARK  Name = 
REMARK  11 active torsions:
REMARK  status: ('A' for Active; 'I' for Inactive)
REMARK    1  A    between atoms: C_1  and  O_2
REMARK    2  A    between atoms: O_2  and  C_3
REMARK    3  A    between atoms: C_4  and  C_5
REMARK    4  A    between atoms: C_5  and  C_6
REMARK    5  A    between atoms: C_7  and  C_8
REMARK    6  A    between atoms: C_7  and  C_9
REMARK    7  A    between atoms: C_9  and  C_10
REMARK    8  A    between atoms: C_10  and  C_11
REMARK    9  A    between atoms: C_11  and  O_12
REMARK   10  A    between atoms: C_14  and  O_15
REMARK   11  A    between atoms: C_22  and  C_23
REMARK                            x       y       z     vdW  Elec       q    Type
REMARK                         _______ _______ _______ _____ _____    ______ ____
ROOT
ATOM      1  C   UNL     1       3.051   0.957   0.924  0.00  0.00    +0.130 A 
ATOM      2  C   UNL     1       2.684   2.330   0.906  0.00  0.00    -0.001 A 
ATOM      3  C   UNL     1       1.704   2.864  -0.101  0.00  0.00    +0.048 C 
ATOM      4  C   UNL     1       3.244   3.173   1.860  0.00  0.00    +0.014 A 
ATOM      5  C   UNL     1       4.156   2.692   2.770  0.00  0.00    +0.107 A 
ATOM      6  C   UNL     1       4.590   3.789   3.639  0.00  0.00    +0.343 C 
ATOM      7  O   UNL     1       3.914   4.905   3.213  0.00  0.00    -0.456 OA
ATOM      8  O   UNL     1       5.363   3.763   4.573  0.00  0.00    -0.245 OA
ATOM      9  C   UNL     1       4.543   1.358   2.794  0.00  0.00    +0.138 A 
ATOM     10  C   UNL     1       3.042   4.615   2.109  0.00  0.00    +0.269 C 
ATOM     11  C   UNL     1       3.969   0.434   1.890  0.00  0.00    +0.040 A 
ENDROOT
BRANCH   1  13
ATOM     12  C   UNL     1       3.132  -0.651  -0.849  0.00  0.00    +0.277 C 
ATOM     13  O   UNL     1       2.360   0.173   0.024  0.00  0.00    -0.494 OA
ENDBRANCH   1  13
BRANCH   9  14
ATOM     14  O   UNL     1       5.506   1.053   3.703  0.00  0.00    -0.506 OA
ATOM     15  H   UNL     1       5.369   0.164   4.054  0.00  0.00    +0.292 HD
ENDBRANCH   9  14
BRANCH  11  16
ATOM     16  C   UNL     1       4.349  -1.038   1.832  0.00  0.00    +0.069 C 
BRANCH  16  17
ATOM     17  C   UNL     1       4.699  -1.745   3.106  0.00  0.00    -0.023 C 
ATOM     18  C   UNL     1       5.926  -1.986   3.617  0.00  0.00    -0.076 C 
ATOM     19  C   UNL     1       7.205  -1.471   2.994  0.00  0.00    +0.039 C 
BRANCH  18  20
ATOM     20  C   UNL     1       6.109  -2.678   4.958  0.00  0.00    +0.041 C 
BRANCH  20  21
ATOM     21  C   UNL     1       5.067  -3.758   5.259  0.00  0.00    +0.125 C 
BRANCH  21  22
ATOM     22  C   UNL     1       5.304  -4.434   6.581  0.00  0.00    +0.305 C 
ATOM     23  O   UNL     1       6.195  -4.158   7.370  0.00  0.00    -0.251 OA
BRANCH  22  24
ATOM     24  O   UNL     1       4.390  -5.404   6.826  0.00  0.00    -0.481 OA
ATOM     25  H   UNL     1       3.732  -5.513   6.112  0.00  0.00    +0.295 HD
ENDBRANCH  22  24
ENDBRANCH  21  22
ENDBRANCH  20  21
ENDBRANCH  18  20
ENDBRANCH  16  17
ENDBRANCH  11  16
TORSDOF 8
