REMARK  Name = 
REMARK  1 active torsions:
REMARK  status: ('A' for Active; 'I' for Inactive)
REMARK    1  A    between atoms: C_1  and  C_2
REMARK                            x       y       z     vdW  Elec       q    Type
REMARK                         _______ _______ _______ _____ _____    ______ ____
ROOT
ATOM      1  C   UNL     1       0.989  -0.067   0.045  0.00  0.00    +0.147 C 
ATOM      2  C   UNL     1       2.502  -0.145   0.054  0.00  0.00    +0.315 C 
ATOM      3  N   UNL     1       3.159   1.059   0.056  0.00  0.00    -0.201 N 
ATOM      4  H   UNL     1       2.619   1.917   0.048  0.00  0.00    +0.298 HD
ATOM      5  C   UNL     1       4.547   1.176   0.051  0.00  0.00    +0.148 A 
ATOM      6  C   UNL     1       5.160   2.434   0.045  0.00  0.00    +0.052 A 
ATOM      7  C   UNL     1       6.556   2.548   0.040  0.00  0.00    +0.024 A 
ATOM      8  C   UNL     1       7.351   1.402   0.041  0.00  0.00    +0.043 A 
ATOM      9  C   UNL     1       6.764   0.144   0.048  0.00  0.00    +0.055 A 
ATOM     10 CL   UNL     1       9.063   1.551   0.035  0.00  0.00    -0.083 Cl
ATOM     11  C   UNL     1       5.368   0.054   0.054  0.00  0.00    +0.180 A 
ATOM     12  S   UNL     1       4.612  -1.537   0.068  0.00  0.00    +0.182 S 
ATOM     13  O   UNL     1       5.004  -2.159  -1.182  0.00  0.00    -0.125 OA
ATOM     14  O   UNL     1       4.990  -2.129   1.337  0.00  0.00    -0.125 OA
ATOM     15  N   UNL     1       3.010  -1.328   0.057  0.00  0.00    +0.090 NA
ENDROOT
TORSDOF 0
