REMARK  Name = 
REMARK  7 active torsions:
REMARK  status: ('A' for Active; 'I' for Inactive)
REMARK    1  A    between atoms: C_4  and  C_5
REMARK    2  A    between atoms: C_4  and  C_6
REMARK    3  A    between atoms: CA_7  and  C_24
REMARK    4  A    between atoms: CA_12  and  N_14
REMARK    5  A    between atoms: C_15  and  C_17
REMARK    6  A    between atoms: C_17  and  C_18
REMARK    7  A    between atoms: C_24  and  O_25
REMARK                            x       y       z     vdW  Elec       q    Type
REMARK                         _______ _______ _______ _____ _____    ______ ____
ROOT
ATOM      1  C   UNL     1       2.169   0.353   0.095  0.00  0.00    +0.165 C 
ATOM      2  CA  UNL     1       2.637  -0.875   0.925  0.00  0.00    +0.190 C 
ATOM      3  C   UNL     1       3.560  -1.155  -0.281  0.00  0.00    +0.240 C 
ATOM      4  O   UNL     1       4.553  -1.815  -0.496  0.00  0.00    -0.273 OA
ATOM      5  N   UNL     1       2.978  -0.166  -1.036  0.00  0.00    -0.271 N 
ATOM      6  CA  UNL     1       3.823   0.826  -1.735  0.00  0.00    +0.201 C 
ATOM      7  C   UNL     1       4.301   1.848  -0.675  0.00  0.00    +0.042 C 
ATOM      8  C   UNL     1       5.518   1.336   0.124  0.00  0.00    +0.025 C 
ATOM      9  C   UNL     1       4.667   3.242  -1.196  0.00  0.00    +0.025 C 
ATOM     10  S   UNL     1       2.890   2.001   0.495  0.00  0.00    -0.127 S 
ENDROOT
BRANCH   2  11
ATOM     11  N   UNL     1       3.295  -0.593   2.230  0.00  0.00    -0.301 N 
ATOM     12  H   UNL     1       4.255  -0.872   2.398  0.00  0.00    +0.150 HD
ATOM     13  C   UNL     1       2.605   0.087   3.211  0.00  0.00    +0.218 C 
ATOM     14  O   UNL     1       1.417   0.378   3.083  0.00  0.00    -0.275 OA
BRANCH  13  15
ATOM     15  C   UNL     1       3.415   0.449   4.439  0.00  0.00    +0.130 C 
BRANCH  15  16
ATOM     16  C   UNL     1       3.205  -0.521   5.572  0.00  0.00    -0.039 A 
ATOM     17  C   UNL     1       1.922  -0.721   6.103  0.00  0.00    +0.004 A 
ATOM     18  C   UNL     1       1.724  -1.602   7.165  0.00  0.00    +0.000 A 
ATOM     19  C   UNL     1       2.806  -2.287   7.710  0.00  0.00    +0.000 A 
ATOM     20  C   UNL     1       4.086  -2.095   7.192  0.00  0.00    +0.000 A 
ATOM     21  C   UNL     1       4.287  -1.215   6.127  0.00  0.00    +0.004 A 
ENDBRANCH  15  16
ENDBRANCH  13  15
ENDBRANCH   2  11
BRANCH   6  22
ATOM     22  C   UNL     1       2.998   1.414  -2.897  0.00  0.00    +0.327 C 
ATOM     23  OXT UNL     1       3.354   2.342  -3.608  0.00  0.00    -0.249 OA
BRANCH  22  24
ATOM     24  O   UNL     1       1.841   0.743  -3.138  0.00  0.00    -0.479 OA
ATOM     25  H   UNL     1       1.762  -0.024  -2.534  0.00  0.00    +0.295 HD
ENDBRANCH  22  24
ENDBRANCH   6  22
TORSDOF 5
