REMARK  Name = 
REMARK  5 active torsions:
REMARK  status: ('A' for Active; 'I' for Inactive)
REMARK    1  A    between atoms: C_1  and  O_2
REMARK    2  A    between atoms: O_2  and  C_3
REMARK    3  A    between atoms: C_4  and  O_5
REMARK    4  A    between atoms: O_5  and  C_6
REMARK    5  A    between atoms: C_22  and  C_24
REMARK                            x       y       z     vdW  Elec       q    Type
REMARK                         _______ _______ _______ _____ _____    ______ ____
ROOT
ATOM      1  C   UNL     1       4.132  -0.813  -0.671  0.00  0.00    +0.164 A 
ATOM      2  C   UNL     1       3.846  -2.180  -0.821  0.00  0.00    +0.078 A 
ATOM      3  C   UNL     1       4.104  -2.875  -1.994  0.00  0.00    +0.082 A 
ATOM      4  C   UNL     1       4.633  -2.185  -3.074  0.00  0.00    +0.044 A 
ATOM      5  C   UNL     1       4.853  -2.965  -4.210  0.00  0.00    +0.129 A 
ATOM      6  N   UNL     1       4.609  -4.280  -4.254  0.00  0.00    -0.199 NA
ATOM      7  C   UNL     1       4.144  -4.873  -3.145  0.00  0.00    +0.220 A 
ATOM      8  N   UNL     1       4.055  -6.258  -3.106  0.00  0.00    -0.297 N 
ATOM      9  C   UNL     1       3.280  -6.829  -1.997  0.00  0.00    +0.127 C 
ATOM     10  C   UNL     1       3.558  -8.340  -1.862  0.00  0.00    +0.127 C 
ATOM     11  N   UNL     1       3.423  -9.048  -3.141  0.00  0.00    -0.296 N 
ATOM     12  C   UNL     1       3.000 -10.365  -3.282  0.00  0.00    +0.245 C 
ATOM     13  O   UNL     1       3.180 -10.974  -4.340  0.00  0.00    -0.273 OA
ATOM     14  C   UNL     1       4.169  -8.436  -4.250  0.00  0.00    +0.127 C 
ATOM     15  C   UNL     1       3.876  -6.932  -4.397  0.00  0.00    +0.127 C 
ATOM     16  N   UNL     1       5.354  -2.409  -5.396  0.00  0.00    -0.343 N 
ATOM     17  H   UNL     1       5.485  -3.177  -6.051  0.00  0.00    +0.144 HD
ATOM     18  H   UNL     1       6.220  -1.908  -5.234  0.00  0.00    +0.144 HD
ATOM     19  C   UNL     1       4.918  -0.803  -2.947  0.00  0.00    +0.062 A 
ATOM     20  N   UNL     1       3.861  -4.187  -2.029  0.00  0.00    -0.214 NA
ATOM     21  C   UNL     1       4.705  -0.120  -1.744  0.00  0.00    +0.162 A 
ENDROOT
BRANCH  12  22
ATOM     22  C   UNL     1       2.180 -11.010  -2.135  0.00  0.00    +0.204 C 
ATOM     23  O   UNL     1       2.829 -11.099  -0.860  0.00  0.00    -0.367 OA
ATOM     24  C   UNL     1       2.623 -12.411  -0.319  0.00  0.00    +0.161 C 
ATOM     25  C   UNL     1       1.546 -13.071  -1.148  0.00  0.00    +0.031 C 
ATOM     26  C   UNL     1       1.765 -12.436  -2.493  0.00  0.00    +0.043 C 
ENDBRANCH  12  22
BRANCH   1  28
ATOM     27  C   UNL     1       2.838  -0.614   1.313  0.00  0.00    +0.277 C 
ATOM     28  O   UNL     1       3.929  -0.162   0.517  0.00  0.00    -0.491 OA
ENDBRANCH   1  28
BRANCH  21  29
ATOM     29  O   UNL     1       5.112   1.185  -1.807  0.00  0.00    -0.491 OA
ATOM     30  C   UNL     1       5.027   1.991  -0.641  0.00  0.00    +0.277 C 
ENDBRANCH  21  29
TORSDOF 3
