REMARK  Name = 
REMARK  9 active torsions:
REMARK  status: ('A' for Active; 'I' for Inactive)
REMARK    1  A    between atoms: C_1  and  C_2
REMARK    2  A    between atoms: C_2  and  C_3
REMARK    3  A    between atoms: C_3  and  C_5
REMARK    4  A    between atoms: C_5  and  C_6
REMARK    5  A    between atoms: C_5  and  C_15
REMARK    6  A    between atoms: C_5  and  C_21
REMARK    7  A    between atoms: C_6  and  C_7
REMARK    8  A    between atoms: C_7  and  C_8
REMARK    9  A    between atoms: C_7  and  N_9
REMARK                            x       y       z     vdW  Elec       q    Type
REMARK                         _______ _______ _______ _____ _____    ______ ____
ROOT
ATOM      1  C   UNL     1       4.432  -0.404  -1.762  0.00  0.00    +0.080 C 
ENDROOT
BRANCH   1   2
ATOM      2  C   UNL     1       4.505  -0.573  -3.315  0.00  0.00    -0.030 A 
ATOM      3  C   UNL     1       4.458  -1.842  -3.927  0.00  0.00    +0.005 A 
ATOM      4  C   UNL     1       4.700  -2.014  -5.294  0.00  0.00    +0.000 A 
ATOM      5  C   UNL     1       4.895  -0.908  -6.109  0.00  0.00    +0.000 A 
ATOM      6  C   UNL     1       4.771   0.364  -5.565  0.00  0.00    +0.000 A 
ATOM      7  C   UNL     1       4.540   0.526  -4.192  0.00  0.00    +0.005 A 
ENDBRANCH   1   2
BRANCH   1   8
ATOM      8  C   UNL     1       5.123  -1.528  -0.893  0.00  0.00    -0.030 A 
ATOM      9  C   UNL     1       4.851  -1.607   0.493  0.00  0.00    +0.005 A 
ATOM     10  C   UNL     1       5.380  -2.625   1.295  0.00  0.00    +0.000 A 
ATOM     11  C   UNL     1       6.173  -3.615   0.732  0.00  0.00    +0.000 A 
ATOM     12  C   UNL     1       6.492  -3.544  -0.618  0.00  0.00    +0.000 A 
ATOM     13  C   UNL     1       6.016  -2.487  -1.405  0.00  0.00    +0.005 A 
ENDBRANCH   1   8
BRANCH   1  14
ATOM     14  C   UNL     1       2.869  -0.493  -1.430  0.00  0.00    +0.148 C 
ATOM     15  O   UNL     1       2.209  -1.492  -1.717  0.00  0.00    -0.296 OA
BRANCH  14  17
ATOM     16  C   UNL     1       0.729   0.428  -0.416  0.00  0.00    +0.012 C 
ATOM     17  C   UNL     1       2.201   0.678  -0.707  0.00  0.00    +0.072 C 
ENDBRANCH  14  17
ENDBRANCH   1  14
BRANCH   1  18
ATOM     18  C   UNL     1       5.023   0.980  -1.247  0.00  0.00    +0.042 C 
BRANCH  18  19
ATOM     19  C   UNL     1       6.564   1.243  -1.272  0.00  0.00    +0.055 C 
ATOM     20  C   UNL     1       7.054   1.513  -2.706  0.00  0.00    +0.024 C 
BRANCH  19  21
ATOM     21  N   UNL     1       6.919   2.393  -0.365  0.00  0.00    -0.300 NA
ATOM     22  C   UNL     1       8.337   2.813  -0.453  0.00  0.00    +0.084 C 
ATOM     23  C   UNL     1       9.305   1.697  -0.052  0.00  0.00    +0.015 C 
ATOM     24  C   UNL     1       8.995   1.136   1.337  0.00  0.00    +0.002 C 
ATOM     25  C   UNL     1       7.501   0.957   1.609  0.00  0.00    +0.015 C 
ATOM     26  C   UNL     1       6.671   2.122   1.070  0.00  0.00    +0.084 C 
ENDBRANCH  19  21
ENDBRANCH  18  19
ENDBRANCH   1  18
TORSDOF 7
