REMARK  Name = 
REMARK  5 active torsions:
REMARK  status: ('A' for Active; 'I' for Inactive)
REMARK    1  A    between atoms: C_1  and  C_2
REMARK    2  A    between atoms: C_2  and  O_3
REMARK    3  A    between atoms: O_3  and  C_4
REMARK    4  A    between atoms: C_4  and  C_6
REMARK    5  A    between atoms: C_8  and  C_9
REMARK                            x       y       z     vdW  Elec       q    Type
REMARK                         _______ _______ _______ _____ _____    ______ ____
ROOT
ATOM      1  C   UNL     1       4.939  -2.512  -1.572  0.00  0.00    +0.299 C 
ATOM      2  C   UNL     1       5.630  -1.981  -2.810  0.00  0.00    +0.253 C 
ATOM      3  O   UNL     1       5.792  -0.783  -3.047  0.00  0.00    -0.273 OA
ATOM      4  N   UNL     1       5.972  -2.890  -3.785  0.00  0.00    -0.283 N 
ATOM      5  H   UNL     1       6.211  -2.443  -4.662  0.00  0.00    +0.155 HD
ATOM      6  C   UNL     1       5.777  -4.281  -3.758  0.00  0.00    +0.043 A 
ATOM      7  C   UNL     1       5.554  -4.891  -5.000  0.00  0.00    +0.025 A 
ATOM      8  C   UNL     1       5.251  -6.251  -5.079  0.00  0.00    +0.022 A 
ATOM      9  C   UNL     1       5.179  -7.009  -3.914  0.00  0.00    +0.042 A 
ATOM     10  C   UNL     1       5.441  -6.430  -2.673  0.00  0.00    +0.032 A 
ATOM     11 CL   UNL     1       4.789  -8.682  -4.013  0.00  0.00    -0.084 Cl
ATOM     12  C   UNL     1       5.783  -5.071  -2.593  0.00  0.00    +0.023 A 
ATOM     13  C   UNL     1       6.234  -4.518  -1.281  0.00  0.00    +0.079 C 
ATOM     14  N   UNL     1       5.859  -3.375  -0.821  0.00  0.00    -0.258 NA
ENDROOT
BRANCH  13  15
ATOM     15  C   UNL     1       7.205  -5.269  -0.411  0.00  0.00    +0.036 A 
ATOM     16  C   UNL     1       8.165  -6.146  -0.921  0.00  0.00    +0.133 A 
ATOM     17  F   UNL     1       8.231  -6.427  -2.229  0.00  0.00    -0.205 F 
ATOM     18  C   UNL     1       9.116  -6.732  -0.084  0.00  0.00    +0.039 A 
ATOM     19  C   UNL     1       9.130  -6.434   1.277  0.00  0.00    +0.003 A 
ATOM     20  C   UNL     1       8.183  -5.559   1.804  0.00  0.00    +0.001 A 
ATOM     21  C   UNL     1       7.225  -4.983   0.965  0.00  0.00    +0.013 A 
ENDBRANCH  13  15
BRANCH   1  22
ATOM     22  C   UNL     1       4.482  -1.400  -0.636  0.00  0.00    +0.341 C 
ATOM     23  O   UNL     1       5.105  -0.956   0.322  0.00  0.00    -0.248 OA
BRANCH  22  24
ATOM     24  O   UNL     1       3.193  -1.052  -0.946  0.00  0.00    -0.463 OA
BRANCH  24  26
ATOM     25  C   UNL     1       1.872  -1.418   1.013  0.00  0.00    +0.048 C 
ATOM     26  C   UNL     1       2.485  -0.371   0.099  0.00  0.00    +0.229 C 
ENDBRANCH  24  26
ENDBRANCH  22  24
ENDBRANCH   1  22
TORSDOF 4
