REMARK  Name = 
REMARK  3 active torsions:
REMARK  status: ('A' for Active; 'I' for Inactive)
REMARK    1  A    between atoms: C_5  and  O_6
REMARK    2  A    between atoms: N_14  and  C_15
REMARK    3  A    between atoms: C_23  and  O_25
REMARK                            x       y       z     vdW  Elec       q    Type
REMARK                         _______ _______ _______ _____ _____    ______ ____
ROOT
ATOM      1  C   UNL     1       0.000   0.00068678468106951829090395139055449658726469159138629365318901453111758178254034843642646734267396823365516192484670945703699855464944342276738383872.000  0.00  0.00    +0.213 C 
ATOM      2  C   UNL     1       0.000   0.000   0.000  0.00  0.00    +0.156 C 
ATOM      3  C   UNL     1       0.000   0.000   0.000  0.00  0.00    +0.035 C 
ATOM      4  C   UNL     1       0.000   0.000   0.000  0.00  0.00    +0.009 C 
ATOM      5  C   UNL     1       0.000   0.000   0.000  0.00  0.00    +0.021 C 
ATOM      6  C   UNL     1       0.000   0.000   0.000  0.00  0.00    +0.065 C 
ATOM      7  C   UNL     1       0.000   0.000   0.000  0.00  0.00    +0.054 C 
ATOM      8  C   UNL     1       0.000   0.000   0.000  0.00  0.00    -0.038 A 
ATOM      9  C   UNL     1       0.000   0.000   0.000  0.00  0.00    +0.011 A 
ATOM     10  C   UNL     1       0.000   0.000   0.000  0.00  0.00    +0.166 A 
ATOM     11  C   UNL     1       0.000   0.000   0.000  0.00  0.00    +0.159 A 
ATOM     12  C   UNL     1       0.000870124335023493262874408114501561181671821971107625072135408808410097904466693113577808613554873699151020832384722949597814995043752838430720.000   0.000  0.00  0.00    +0.049 A 
ATOM     13  C   UNL     1       0.000   0.000   0.000  0.00  0.00    +0.008 A 
ATOM     14  N   UNL     1       0.000   0.000   0.000  0.00  0.00    -0.302 NA
ATOM     15  C   UNL     1       0.000   0.000   0.000  0.00  0.00    +0.105 C 
ATOM     16  C   UNL     1       0.000   0.000   0.000  0.00  0.00    +0.085 C 
ATOM     17  C   UNL     1       0.000   0.000   0.000  0.00  0.00    +0.031 C 
ATOM     18  C   UNL     1       0.000   0.000   0.000  0.00  0.00    +0.044 C 
ATOM     19  O   UNL     1    509888021580894496837961982381335005249840247507398318121148778466714654991655428112705824960629423893562227425523648061305472992703096821275893721985662416436268150337339899638955652310534234061407194073728691601727350223116790329826767706952691577419657538277939304226543436768399907178042028457984.000   0.000   0.000  0.00  0.00    -0.481 OA
ENDROOT
BRANCH   2  20
ATOM     20  O   UNL     1       0.000   0.000   0.000  0.00  0.00    -0.388 OA
ATOM     21  H   UNL     1    20395520863235778851194354716777544536325642422239297634604562497834895598823063844799031200647170143439272880913454891965596313950454900663508392567303822551254701505597290759765773284792706026859381001869453565779646908558058534021493472299565102488780780041415140098280727471012056220783003828224.00034804973400939732630355424708857963913001864549172330336311337822103817889543869421210876498391254606646306702477829496204478281824860110848.0002747138724278073177479154032822060646950837286260593129938243501349410006013791648778975909724001049820519729907535718634950273404791550214406144.000  0.00  0.00    +0.210 HD
ENDBRANCH   2  20
BRANCH  11  22
ATOM     22  O   UNL     1       0.000   0.000   0.000  0.00  0.00    -0.503 OA
ATOM     23  H   UNL     1    20395520863235778851194354716777544536325642422239297634604562497834895598823063844799031200647170143439272880913454891965596313950454900663508392567303822551254701505597290759765773284792706026859381001869453565779646908558058534021493472299565102488780780041415140098280727471012056220783003828224.00034804973400939732630355424708857963913001864549172330336311337822103817889543869421210876498391254606646306702477829496204478281824860110848.0002747138724278073177479154032822060646950837286260593129938243501349410006013791648778975909724001049820519729907535718634950273404791550214406144.000  0.00  0.00    +0.292 HD
ENDBRANCH  11  22
TORSDOF 2
