REMARK  Name = 
REMARK  11 active torsions:
REMARK  status: ('A' for Active; 'I' for Inactive)
REMARK    1  A    between atoms: C_1  and  C_2
REMARK    2  A    between atoms: C_2  and  C_3
REMARK    3  A    between atoms: C_2  and  C_4
REMARK    4  A    between atoms: C_2  and  C_6
REMARK    5  A    between atoms: C_4  and  O_5
REMARK    6  A    between atoms: C_6  and  O_7
REMARK    7  A    between atoms: C_6  and  C_8
REMARK    8  A    between atoms: N_10  and  C_11
REMARK    9  A    between atoms: C_11  and  C_12
REMARK   10  A    between atoms: C_12  and  C_13
REMARK   11  A    between atoms: C_13  and  O_14
REMARK                            x       y       z     vdW  Elec       q    Type
REMARK                         _______ _______ _______ _____ _____    ______ ____
ROOT
ATOM      1  C   UNL     1       4.795  -1.291  -0.340  0.00  0.00    +0.242 C 
ATOM      2  N   UNL     1       5.359  -2.544  -0.149  0.00  0.00    -0.313 N 
ATOM      3  H   UNL     1       4.792  -3.316  -0.496  0.00  0.00    +0.149 HD
ATOM      4  O   UNL     1       5.491  -0.289  -0.481  0.00  0.00    -0.273 OA
ENDROOT
BRANCH   1   5
ATOM      5  C   UNL     1       3.252  -1.280  -0.401  0.00  0.00    +0.208 C 
BRANCH   5   7
ATOM      6  C   UNL     1       1.073  -0.093   0.076  0.00  0.00    +0.016 C 
ATOM      7  C   UNL     1       2.611   0.070   0.044  0.00  0.00    +0.023 C 
ATOM      8  C   UNL     1       2.912   1.239  -0.917  0.00  0.00    +0.016 C 
BRANCH   7   9
ATOM      9  C   UNL     1       3.109   0.435   1.461  0.00  0.00    +0.165 C 
BRANCH   9  10
ATOM     10  O   UNL     1       2.850  -0.622   2.379  0.00  0.00    -0.394 OA
ATOM     11  H   UNL     1       1.935  -0.514   2.697  0.00  0.00    +0.209 HD
ENDBRANCH   9  10
ENDBRANCH   7   9
ENDBRANCH   5   7
BRANCH   5  12
ATOM     12  O   UNL     1       2.837  -1.671  -1.711  0.00  0.00    -0.382 OA
ATOM     13  H   UNL     1       3.162  -0.998  -2.336  0.00  0.00    +0.210 HD
ENDBRANCH   5  12
ENDBRANCH   1   5
BRANCH   2  14
ATOM     14  C   UNL     1       6.810  -2.655  -0.184  0.00  0.00    +0.115 C 
BRANCH  14  15
ATOM     15  C   UNL     1       7.312  -4.053   0.116  0.00  0.00    +0.139 C 
BRANCH  15  16
ATOM     16  C   UNL     1       6.998  -4.616   1.480  0.00  0.00    +0.306 C 
ATOM     17  O   UNL     1       7.478  -5.676   1.864  0.00  0.00    -0.251 OA
BRANCH  16  18
ATOM     18  O   UNL     1       6.130  -3.923   2.241  0.00  0.00    -0.481 OA
ATOM     19  H   UNL     1       5.745  -3.122   1.828  0.00  0.00    +0.295 HD
ENDBRANCH  16  18
ENDBRANCH  15  16
ENDBRANCH  14  15
ENDBRANCH   2  14
TORSDOF 9
