REMARK  Name = 
REMARK  1 active torsions:
REMARK  status: ('A' for Active; 'I' for Inactive)
REMARK    1  A    between atoms: C_5  and  C_7
REMARK                            x       y       z     vdW  Elec       q    Type
REMARK                         _______ _______ _______ _____ _____    ______ ____
ROOT
ATOM      1  N   UNL     1       1.193   0.111   0.305  0.00  0.00    -0.313 N 
ATOM      2  H   UNL     1       0.847   0.949  -0.143  0.00  0.00    +0.147 HD
ATOM      3  H   UNL     1       0.675  -0.730   0.087  0.00  0.00    +0.147 HD
ATOM      4  C   UNL     1       2.526  -0.047   0.213  0.00  0.00    +0.276 C 
ATOM      5  O   UNL     1       3.189   1.114   0.005  0.00  0.00    -0.456 OA
ATOM      6  C   UNL     1       4.516   0.713  -0.328  0.00  0.00    +0.228 C 
ATOM      7  C   UNL     1       4.581  -0.723   0.177  0.00  0.00    +0.196 C 
ATOM      8  N   UNL     1       3.176  -1.160   0.265  0.00  0.00    -0.233 NA
ENDROOT
BRANCH   6   9
ATOM      9  C   UNL     1       4.728   0.921  -1.816  0.00  0.00    -0.005 A 
ATOM     10  C   UNL     1       5.326   2.108  -2.269  0.00  0.00    +0.007 A 
ATOM     11  C   UNL     1       5.527   2.333  -3.633  0.00  0.00    +0.000 A 
ATOM     12  C   UNL     1       5.122   1.379  -4.564  0.00  0.00    +0.000 A 
ATOM     13  C   UNL     1       4.507   0.207  -4.134  0.00  0.00    +0.000 A 
ATOM     14  C   UNL     1       4.305  -0.018  -2.771  0.00  0.00    +0.007 A 
ENDBRANCH   6   9
TORSDOF 1
