REMARK  Name = 
REMARK  16 active torsions:
REMARK  status: ('A' for Active; 'I' for Inactive)
REMARK    1  A    between atoms: CA_2  and  C_3
REMARK    2  A    between atoms: CA_2  and  CB_5
REMARK    3  A    between atoms: CA_2  and  N_12
REMARK    4  A    between atoms: C_3  and  O_4
REMARK    5  A    between atoms: CB_5  and  CG_6
REMARK    6  A    between atoms: C_13  and  CA_15
REMARK    7  A    between atoms: CA_15  and  N_17
REMARK    8  A    between atoms: CA_15  and  CB_34
REMARK    9  A    between atoms: C_18  and  CA_20
REMARK   10  A    between atoms: CA_20  and  CB_22
REMARK   11  A    between atoms: CA_20  and  N_23
REMARK   12  A    between atoms: C_24  and  O_26
REMARK   13  A    between atoms: O_26  and  C_27
REMARK   14  A    between atoms: C_27  and  C_28
REMARK   15  A    between atoms: CB_34  and  CG1_35
REMARK   16  A    between atoms: CB_34  and  CG2_36
REMARK                            x       y       z     vdW  Elec       q    Type
REMARK                         _______ _______ _______ _____ _____    ______ ____
ROOT
ATOM      1  CA  ALA A   1       2.871  -5.311   4.155  0.00  0.00    +0.161 C 
ENDROOT
BRANCH   1   4
ATOM      2  N   ALA A   1       5.114  -5.189   2.980  0.00  0.00    -0.308 N 
ATOM      3  H   ALA A   1       5.487  -4.937   3.889  0.00  0.00    +0.149 HD
ATOM      4  C   ALA A   1       3.743  -5.350   2.837  0.00  0.00    +0.234 C 
ATOM      5  O   ALA A   1       3.240  -5.520   1.730  0.00  0.00    -0.274 OA
BRANCH   2   6
ATOM      6  CA  ALA A   1       6.105  -5.206   1.839  0.00  0.00    +0.103 C 
BRANCH   6   7
ATOM      7  CB  ALA A   1       5.942  -3.948   0.967  0.00  0.00    +0.059 C 
BRANCH   7   8
ATOM      8  CG  ALA A   1       6.841  -3.489  -0.169  0.00  0.00    -0.046 A 
ATOM      9  CD2 ALA A   1       7.238  -2.133  -0.223  0.00  0.00    +0.004 A 
ATOM     10  CE2 ALA A   1       7.756  -1.570  -1.394  0.00  0.00    +0.000 A 
ATOM     11  CZ  ALA A   1       7.926  -2.360  -2.522  0.00  0.00    +0.000 A 
ATOM     12  CE1 ALA A   1       7.576  -3.712  -2.474  0.00  0.00    +0.000 A 
ATOM     13  CD1 ALA A   1       7.030  -4.274  -1.312  0.00  0.00    +0.004 A 
ENDBRANCH   7   8
ENDBRANCH   6   7
BRANCH   6  14
ATOM     14  C   ALA A   1       7.529  -5.298   2.392  0.00  0.00    +0.178 C 
BRANCH  14  15
ATOM     15  O   ALA A   1       7.785  -4.234   3.309  0.00  0.00    -0.393 OA
ATOM     16  H   ALA A   1       7.797  -3.406   2.796  0.00  0.00    +0.209 HD
ENDBRANCH  14  15
ENDBRANCH   6  14
ENDBRANCH   2   6
ENDBRANCH   1   4
BRANCH   1  17
ATOM     17  N   ALA A   1       2.178  -4.009   4.393  0.00  0.00    -0.302 N 
ATOM     18  H   ALA A   1       1.523  -3.674   3.694  0.00  0.00    +0.150 HD
ATOM     19  C   ALA A   1       2.401  -3.254   5.532  0.00  0.00    +0.234 C 
ATOM     20  O   ALA A   1       3.167  -3.649   6.409  0.00  0.00    -0.274 OA
BRANCH  19  21
ATOM     21  CA  ALA A   1       1.621  -1.906   5.726  0.00  0.00    +0.159 C 
ATOM     22  CB  ALA A   1       0.663  -1.965   6.913  0.00  0.00    +0.038 C 
BRANCH  21  23
ATOM     23  N   ALA A   1       0.920  -1.386   4.558  0.00  0.00    -0.270 N 
ATOM     24  H   ALA A   1       0.057  -1.813   4.250  0.00  0.00    +0.153 HD
ATOM     25  C   UNK A   0       1.381  -0.372   3.758  0.00  0.00    +0.401 C 
ATOM     26  O   UNK A   0       0.787  -0.047   2.741  0.00  0.00    -0.226 OA
BRANCH  25  27
ATOM     27  O   UNK A   0       2.587   0.112   4.166  0.00  0.00    -0.446 OA
BRANCH  27  28
ATOM     28  C   UNK A   0       3.406   0.758   3.165  0.00  0.00    +0.269 C 
BRANCH  28  29
ATOM     29  C   UNK A   0       3.824  -0.212   2.084  0.00  0.00    -0.010 A 
ATOM     30  C   UNK A   0       4.300   0.239   0.849  0.00  0.00    +0.007 A 
ATOM     31  C   UNK A   0       4.318  -0.624  -0.246  0.00  0.00    +0.000 A 
ATOM     32  C   UNK A   0       3.789  -1.900  -0.123  0.00  0.00    +0.000 A 
ATOM     33  C   UNK A   0       3.389  -2.358   1.124  0.00  0.00    +0.000 A 
ATOM     34  C   UNK A   0       3.558  -1.569   2.241  0.00  0.00    +0.007 A 
ENDBRANCH  28  29
ENDBRANCH  27  28
ENDBRANCH  25  27
ENDBRANCH  21  23
ENDBRANCH  19  21
ENDBRANCH   1  17
BRANCH   1  35
ATOM     35  CB  ALA A   1       1.836  -6.476   4.066  0.00  0.00    +0.012 C 
ATOM     36  CG2 ALA A   1       0.997  -6.639   5.339  0.00  0.00    +0.009 C 
ATOM     37  CG1 ALA A   1       2.534  -7.817   3.779  0.00  0.00    +0.009 C 
ENDBRANCH   1  35
TORSDOF 13
