REMARK  Name = 
REMARK  6 active torsions:
REMARK  status: ('A' for Active; 'I' for Inactive)
REMARK    1  A    between atoms: O_1  and  C_2
REMARK    2  A    between atoms: C_2  and  C_3
REMARK    3  A    between atoms: C_3  and  O_4
REMARK    4  A    between atoms: O_4  and  C_5
REMARK    5  A    between atoms: C_5  and  C_6
REMARK    6  A    between atoms: C_6  and  N_7
REMARK                            x       y       z     vdW  Elec       q    Type
REMARK                         _______ _______ _______ _____ _____    ______ ____
ROOT
ATOM      1  N   UNL     1       6.910   3.057   2.540  0.00  0.00    -0.293 NA
ATOM      2  C   UNL     1       6.682   4.406   1.968  0.00  0.00    +0.128 C 
ATOM      3  C   UNL     1       7.381   4.677   0.616  0.00  0.00    +0.241 C 
ATOM      4  N   UNL     1       8.799   4.283   0.636  0.00  0.00    -0.218 N 
ATOM      5  C   UNL     1       9.785   5.095   0.076  0.00  0.00    +0.322 C 
ATOM      6  C   UNL     1      10.954   4.409  -0.575  0.00  0.00    +0.079 A 
ATOM      7  C   UNL     1      12.281   4.731  -0.274  0.00  0.00    +0.028 A 
ATOM      8  C   UNL     1      13.316   3.979  -0.850  0.00  0.00    +0.016 A 
ATOM      9  C   UNL     1      13.032   2.912  -1.706  0.00  0.00    +0.001 A 
ATOM     10  C   UNL     1      11.711   2.593  -2.005  0.00  0.00    +0.001 A 
ATOM     11  S   UNL     1      12.718   6.083   0.797  0.00  0.00    -0.084 S 
ATOM     12  C   UNL     1      11.902   7.365  -0.141  0.00  0.00    +0.063 A 
ATOM     13  C   UNL     1      10.516   7.342  -0.384  0.00  0.00    +0.190 A 
ATOM     14  C   UNL     1       9.953   8.404  -1.105  0.00  0.00    +0.056 A 
ATOM     15  C   UNL     1      10.744   9.432  -1.624  0.00  0.00    +0.004 A 
ATOM     16  C   UNL     1      12.120   9.419  -1.418  0.00  0.00    +0.001 A 
ATOM     17  C   UNL     1      12.697   8.393  -0.672  0.00  0.00    +0.019 A 
ATOM     18  C   UNL     1      10.675   3.345  -1.451  0.00  0.00    +0.017 A 
ATOM     19  N   UNL     1       9.619   6.391   0.130  0.00  0.00    -0.040 NA
ATOM     20  C   UNL     1       9.091   2.984   1.254  0.00  0.00    +0.241 C 
ATOM     21  C   UNL     1       8.369   2.842   2.607  0.00  0.00    +0.128 C 
ENDROOT
BRANCH   1  22
ATOM     22  C   UNL     1       6.191   2.016   1.774  0.00  0.00    +0.112 C 
BRANCH  22  23
ATOM     23  C   UNL     1       6.334   0.583   2.323  0.00  0.00    +0.175 C 
BRANCH  23  24
ATOM     24  O   UNL     1       5.824   0.519   3.653  0.00  0.00    -0.376 OA
BRANCH  24  25
ATOM     25  C   UNL     1       6.022  -0.762   4.240  0.00  0.00    +0.187 C 
BRANCH  25  26
ATOM     26  C   UNL     1       5.473  -0.739   5.660  0.00  0.00    +0.184 C 
BRANCH  26  27
ATOM     27  O   UNL     1       5.622  -2.017   6.265  0.00  0.00    -0.393 OA
ATOM     28  H   UNL     1       5.256  -1.941   7.163  0.00  0.00    +0.209 HD
ENDBRANCH  26  27
ENDBRANCH  25  26
ENDBRANCH  24  25
ENDBRANCH  23  24
ENDBRANCH  22  23
ENDBRANCH   1  22
TORSDOF 6
