REMARK  Name = 
REMARK  4 active torsions:
REMARK  status: ('A' for Active; 'I' for Inactive)
REMARK    1  A    between atoms: C_1  and  C_2
REMARK    2  A    between atoms: C_5  and  O_7
REMARK    3  A    between atoms: C_8  and  O_10
REMARK    4  A    between atoms: C_11  and  O_13
REMARK                            x       y       z     vdW  Elec       q    Type
REMARK                         _______ _______ _______ _____ _____    ______ ____
ROOT
ATOM      1  C   UNL     1       3.129   0.403   1.441  0.00  0.00    +0.038 C 
ATOM      2  C   UNL     1       2.609   0.005   0.070  0.00  0.00    +0.121 C 
ATOM      3  O   UNL     1       3.142   0.920  -0.892  0.00  0.00    -0.346 OA
ATOM      4  C   UNL     1       2.598   0.711  -2.192  0.00  0.00    +0.279 C 
ATOM      5  C   UNL     1       2.963  -0.696  -2.703  0.00  0.00    +0.198 C 
ATOM      6  C   UNL     1       2.513  -1.754  -1.690  0.00  0.00    +0.150 C 
ATOM      7  C   UNL     1       3.021  -1.419  -0.295  0.00  0.00    +0.065 C 
ENDROOT
BRANCH   4   8
ATOM      8  O   UNL     1       3.109   1.701  -3.080  0.00  0.00    -0.365 OA
ATOM      9  H   UNL     1       3.287   1.242  -3.920  0.00  0.00    +0.213 HD
ENDBRANCH   4   8
BRANCH   5  10
ATOM     10  O   UNL     1       2.341  -0.935  -3.974  0.00  0.00    -0.384 OA
ATOM     11  H   UNL     1       2.349  -1.906  -4.086  0.00  0.00    +0.210 HD
ENDBRANCH   5  10
BRANCH   6  12
ATOM     12  O   UNL     1       2.995  -3.031  -2.119  0.00  0.00    -0.389 OA
ATOM     13  H   UNL     1       2.833  -3.669  -1.401  0.00  0.00    +0.210 HD
ENDBRANCH   6  12
TORSDOF 3
