REMARK  Name = 
REMARK  13 active torsions:
REMARK  status: ('A' for Active; 'I' for Inactive)
REMARK    1  A    between atoms: C_1  and  C_2
REMARK    2  A    between atoms: C_2  and  C_3
REMARK    3  A    between atoms: C_2  and  C_4
REMARK    4  A    between atoms: C_4  and  N_6
REMARK    5  A    between atoms: C_4  and  C_7
REMARK    6  A    between atoms: C_7  and  O_9
REMARK    7  A    between atoms: O_9  and  C_10
REMARK    8  A    between atoms: C_10  and  C_11
REMARK    9  A    between atoms: C_11  and  C_12
REMARK   10  A    between atoms: C_11  and  O_14
REMARK   11  A    between atoms: C_12  and  O_13
REMARK   12  A    between atoms: O_14  and  C_15
REMARK   13  A    between atoms: C_15  and  N_16
REMARK                            x       y       z     vdW  Elec       q    Type
REMARK                         _______ _______ _______ _____ _____    ______ ____
ROOT
ATOM      1  O   UNL     1       8.548   2.903   2.984  0.00  0.00    -0.350 OA
ENDROOT
BRANCH   1   2
ATOM      2  C   UNL     1       7.104   2.937   2.935  0.00  0.00    +0.183 C 
BRANCH   2   3
ATOM      3  C   UNL     1       6.516   1.983   1.882  0.00  0.00    +0.266 C 
BRANCH   3   4
ATOM      4  O   UNL     1       6.975   0.641   2.124  0.00  0.00    -0.461 OA
BRANCH   4   5
ATOM      5  C   UNL     1       6.004  -0.304   2.298  0.00  0.00    +0.324 C 
ATOM      6  O   UNL     1       4.808  -0.091   2.147  0.00  0.00    -0.249 OA
BRANCH   5   7
ATOM      7  C   UNL     1       6.613  -1.685   2.628  0.00  0.00    +0.163 C 
BRANCH   7   9
ATOM      8  C   UNL     1       5.218  -2.032   4.761  0.00  0.00    +0.009 C 
ATOM      9  C   UNL     1       5.589  -2.575   3.375  0.00  0.00    +0.010 C 
ATOM     10  C   UNL     1       6.073  -4.023   3.500  0.00  0.00    +0.009 C 
ENDBRANCH   7   9
BRANCH   7  11
ATOM     11  N   UNL     1       7.879  -1.548   3.382  0.00  0.00    -0.318 NA
ATOM     12  H   UNL     1       8.339  -2.456   3.443  0.00  0.00    +0.119 HD
ATOM     13  H   UNL     1       8.512  -0.943   2.856  0.00  0.00    +0.119 HD
ENDBRANCH   7  11
ENDBRANCH   5   7
ENDBRANCH   4   5
ENDBRANCH   3   4
ENDBRANCH   2   3
BRANCH   2  14
ATOM     14  C   UNL     1       6.586   2.569   4.333  0.00  0.00    +0.190 C 
BRANCH  14  15
ATOM     15  O   UNL     1       7.007   3.562   5.270  0.00  0.00    -0.392 OA
ATOM     16  H   UNL     1       7.978   3.489   5.304  0.00  0.00    +0.210 HD
ENDBRANCH  14  15
ENDBRANCH   2  14
ENDBRANCH   1   2
BRANCH   1  17
ATOM     17  C   UNL     1       9.158   3.371   1.784  0.00  0.00    +0.287 C 
BRANCH  17  18
ATOM     18  N   UNL     1      10.597   3.322   1.937  0.00  0.00    -0.292 N 
ATOM     19  C   UNL     1      11.391   4.120   2.693  0.00  0.00    +0.148 A 
ATOM     20  N   UNL     1      11.077   5.091   3.559  0.00  0.00    -0.312 N 
ATOM     21  H   UNL     1      10.134   5.396   3.761  0.00  0.00    +0.170 HD
ATOM     22  C   UNL     1      12.128   5.768   4.123  0.00  0.00    +0.195 A 
ATOM     23  N   UNL     1      13.393   5.542   3.917  0.00  0.00    -0.176 NA
ATOM     24  C   UNL     1      13.788   4.514   3.048  0.00  0.00    +0.302 A 
ATOM     25  O   UNL     1      14.969   4.248   2.840  0.00  0.00    -0.263 OA
ATOM     26  N   UNL     1      11.737   6.775   4.944  0.00  0.00    -0.329 N 
ATOM     27  H   UNL     1      12.531   7.152   5.456  0.00  0.00    +0.145 HD
ATOM     28  H   UNL     1      10.972   6.558   5.570  0.00  0.00    +0.145 HD
ATOM     29  C   UNL     1      12.689   3.786   2.399  0.00  0.00    +0.172 A 
ATOM     30  N   UNL     1      12.712   2.773   1.465  0.00  0.00    -0.229 NA
ATOM     31  C   UNL     1      11.443   2.519   1.210  0.00  0.00    +0.203 A 
ENDBRANCH  17  18
ENDBRANCH   1  17
TORSDOF 11
