REMARK  Name = 
REMARK  14 active torsions:
REMARK  status: ('A' for Active; 'I' for Inactive)
REMARK    1  A    between atoms: C_6  and  C_8
REMARK    2  A    between atoms: C_8  and  C_9
REMARK    3  A    between atoms: C_9  and  C_10
REMARK    4  A    between atoms: C_10  and  C_11
REMARK    5  A    between atoms: C_11  and  C_12
REMARK    6  A    between atoms: C_12  and  C_13
REMARK    7  A    between atoms: C_13  and  C_14
REMARK    8  A    between atoms: C_14  and  O_15
REMARK    9  A    between atoms: C_21  and  O_22
REMARK   10  A    between atoms: C_21  and  C_24
REMARK   11  A    between atoms: C_24  and  C_27
REMARK   12  A    between atoms: C_27  and  C_28
REMARK   13  A    between atoms: C_28  and  C_29
REMARK   14  A    between atoms: C_29  and  C_30
REMARK                            x       y       z     vdW  Elec       q    Type
REMARK                         _______ _______ _______ _____ _____    ______ ____
ROOT
ATOM      1  C   UNL     1       2.286  -0.026  -0.112  0.00  0.00    +0.133 C 
ATOM      2  O   UNL     1       2.725  -0.040  -1.458  0.00  0.00    -0.340 OA
ATOM      3  C   UNL     1       2.338  -1.231  -2.177  0.00  0.00    +0.232 C 
ATOM      4  C   UNL     1       2.676  -2.541  -1.427  0.00  0.00    +0.071 C 
ATOM      5  C   UNL     1       2.398  -2.473   0.064  0.00  0.00    +0.012 C 
ATOM      6  C   UNL     1       2.961  -1.179   0.620  0.00  0.00    +0.029 C 
ATOM      7  C   UNL     1       2.781  -0.859   2.102  0.00  0.00    +0.061 C 
ATOM      8  C   UNL     1       2.800   0.664   2.056  0.00  0.00    +0.139 C 
ATOM      9  O   UNL     1       2.878   1.370   3.055  0.00  0.00    -0.297 OA
ATOM     10  C   UNL     1       2.734   1.210   0.650  0.00  0.00    +0.106 C 
ENDROOT
BRANCH   3  11
ATOM     11  C   UNL     1       3.126  -1.277  -3.518  0.00  0.00    +0.301 C 
ATOM     12  F   UNL     1       2.807  -2.419  -4.193  0.00  0.00    -0.200 F 
ATOM     13  F   UNL     1       4.462  -1.370  -3.245  0.00  0.00    -0.200 F 
BRANCH  11  14
ATOM     14  C   UNL     1       2.896  -0.079  -4.421  0.00  0.00    +0.081 C 
BRANCH  14  15
ATOM     15  C   UNL     1       3.758  -0.202  -5.675  0.00  0.00    +0.006 C 
BRANCH  15  16
ATOM     16  C   UNL     1       3.553   0.989  -6.600  0.00  0.00    -0.003 C 
ATOM     17  C   UNL     1       4.412   0.856  -7.845  0.00  0.00    +0.004 C 
ENDBRANCH  15  16
ENDBRANCH  14  15
ENDBRANCH  11  14
ENDBRANCH   3  11
BRANCH   3  18
ATOM     18  O   UNL     1       0.930  -1.152  -2.431  0.00  0.00    -0.360 OA
ATOM     19  H   UNL     1       0.463  -1.616  -1.720  0.00  0.00    +0.213 HD
ENDBRANCH   3  18
BRANCH   7  20
ATOM     20  C   UNL     1       1.497  -1.374   2.759  0.00  0.00    +0.011 C 
BRANCH  20  21
ATOM     21  C   UNL     1       1.451  -2.887   3.035  0.00  0.00    +0.001 C 
BRANCH  21  22
ATOM     22  C   UNL     1       2.669  -3.444   3.776  0.00  0.00    +0.000 C 
BRANCH  22  23
ATOM     23  C   UNL     1       2.733  -2.875   5.186  0.00  0.00    +0.001 C 
BRANCH  23  24
ATOM     24  C   UNL     1       3.942  -3.377   5.961  0.00  0.00    +0.011 C 
BRANCH  24  25
ATOM     25  C   UNL     1       3.902  -2.814   7.379  0.00  0.00    +0.120 C 
BRANCH  25  26
ATOM     26  C   UNL     1       5.074  -3.271   8.209  0.00  0.00    +0.305 C 
ATOM     27  O   UNL     1       5.966  -4.011   7.829  0.00  0.00    -0.251 OA
BRANCH  26  28
ATOM     28  O   UNL     1       5.026  -2.773   9.469  0.00  0.00    -0.481 OA
ATOM     29  H   UNL     1       4.256  -2.199   9.635  0.00  0.00    +0.295 HD
ENDBRANCH  26  28
ENDBRANCH  25  26
ENDBRANCH  24  25
ENDBRANCH  23  24
ENDBRANCH  22  23
ENDBRANCH  21  22
ENDBRANCH  20  21
ENDBRANCH   7  20
TORSDOF 13
