REMARK  Name = 
REMARK  3 active torsions:
REMARK  status: ('A' for Active; 'I' for Inactive)
REMARK    1  A    between atoms: C_9  and  N_13
REMARK    2  A    between atoms: C_15  and  C_16
REMARK    3  A    between atoms: C_17  and  C_18
REMARK                            x       y       z     vdW  Elec       q    Type
REMARK                         _______ _______ _______ _____ _____    ______ ____
ROOT
ATOM      1  N   UNL     1       5.259  -4.599   0.291  0.00  0.00    +0.068 N 
ATOM      2  N   UNL     1       6.568  -4.811   0.291  0.00  0.00    +0.028 N 
ATOM      3  C   UNL     1       7.639  -3.927   0.041  0.00  0.00    +0.259 A 
ATOM      4  S   UNL     1       9.240  -4.518  -0.231  0.00  0.00    -0.042 S 
ATOM      5  C   UNL     1       9.738  -2.964  -0.746  0.00  0.00    +0.041 A 
ATOM      6  C   UNL     1      10.956  -2.585  -1.328  0.00  0.00    +0.017 A 
ATOM      7  C   UNL     1      11.152  -1.235  -1.615  0.00  0.00    +0.001 A 
ATOM      8  C   UNL     1      10.188  -0.290  -1.278  0.00  0.00    +0.002 A 
ATOM      9  C   UNL     1       8.967  -0.683  -0.710  0.00  0.00    +0.029 A 
ATOM     10  C   UNL     1       8.715  -2.053  -0.490  0.00  0.00    +0.081 A 
ATOM     11  N   UNL     1       7.514  -2.627  -0.085  0.00  0.00    -0.216 NA
ATOM     12  N   UNL     1       6.824  -6.167   0.351  0.00  0.00    -0.084 NA
ATOM     13  C   UNL     1       5.611  -6.672   0.303  0.00  0.00    +0.247 A 
ATOM     14  N   UNL     1       4.602  -5.825   0.263  0.00  0.00    +0.057 NA
ENDROOT
BRANCH   1  20
ATOM     15  O   UNL     1       0.970   0.168  -0.426  0.00  0.00    -0.266 OA
ATOM     16  C   UNL     1       2.118   0.197  -0.002  0.00  0.00    +0.271 A 
ATOM     17  C   UNL     1       2.918  -1.040   0.099  0.00  0.00    +0.053 A 
ATOM     18  C   UNL     1       4.186  -1.008   0.671  0.00  0.00    +0.059 A 
ATOM     19  C   UNL     1       4.936  -2.184   0.823  0.00  0.00    +0.098 A 
ATOM     20  C   UNL     1       4.466  -3.364   0.266  0.00  0.00    +0.271 A 
ATOM     21  C   UNL     1       3.187  -3.413  -0.306  0.00  0.00    +0.085 A 
ATOM     22  C   UNL     1       4.801   0.282   1.040  0.00  0.00    +0.271 A 
ATOM     23  O   UNL     1       5.966   0.328   1.415  0.00  0.00    -0.266 OA
ATOM     24  N   UNL     1       4.031   1.404   0.875  0.00  0.00    -0.263 N 
ATOM     25  H   UNL     1       4.470   2.310   1.019  0.00  0.00    +0.190 HD
ATOM     26  C   UNL     1       2.405  -2.254  -0.373  0.00  0.00    +0.021 A 
ATOM     27  N   UNL     1       2.725   1.358   0.409  0.00  0.00    -0.263 N 
ATOM     28  H   UNL     1       2.182   2.218   0.370  0.00  0.00    +0.190 HD
ENDBRANCH   1  20
BRANCH  13  29
ATOM     29  C   UNL     1       5.384  -8.085   0.254  0.00  0.00    +0.057 C 
ATOM     30  C   UNL     1       6.333  -9.038   0.292  0.00  0.00    +0.012 C 
BRANCH  30  31
ATOM     31  C   UNL     1       6.055 -10.484   0.290  0.00  0.00    -0.025 A 
ATOM     32  C   UNL     1       6.938 -11.338   0.966  0.00  0.00    +0.008 A 
ATOM     33  C   UNL     1       6.710 -12.715   1.002  0.00  0.00    +0.001 A 
ATOM     34  C   UNL     1       5.605 -13.258   0.353  0.00  0.00    +0.000 A 
ATOM     35  C   UNL     1       4.735 -12.424  -0.346  0.00  0.00    +0.001 A 
ATOM     36  C   UNL     1       4.963 -11.047  -0.386  0.00  0.00    +0.008 A 
ENDBRANCH  30  31
ENDBRANCH  13  29
TORSDOF 3
