REMARK  Name = 
REMARK  17 active torsions:
REMARK  status: ('A' for Active; 'I' for Inactive)
REMARK    1  A    between atoms: C_4  and  O_6
REMARK    2  A    between atoms: O_6  and  C_7
REMARK    3  A    between atoms: C_7  and  C_9
REMARK    4  A    between atoms: C_10  and  C_11
REMARK    5  A    between atoms: C_13  and  O_14
REMARK    6  A    between atoms: O_14  and  C_15
REMARK    7  A    between atoms: C_16  and  O_17
REMARK    8  A    between atoms: O_17  and  C_18
REMARK    9  A    between atoms: C_19  and  O_20
REMARK   10  A    between atoms: O_20  and  C_21
REMARK   11  A    between atoms: C_23  and  O_25
REMARK   12  A    between atoms: O_25  and  C_26
REMARK   13  A    between atoms: C_27  and  C_29
REMARK   14  A    between atoms: C_29  and  O_31
REMARK   15  A    between atoms: O_31  and  C_32
REMARK   16  A    between atoms: C_48  and  O_49
REMARK   17  A    between atoms: O_49  and  C_50
REMARK                            x       y       z     vdW  Elec       q    Type
REMARK                         _______ _______ _______ _____ _____    ______ ____
ROOT
ATOM      1  C   UNL     1       1.935   0.335  -0.313  0.00  0.00    +0.011 C 
ATOM      2  C   UNL     1       1.686   1.685   0.387  0.00  0.00    +0.089 C 
ATOM      3  N   UNL     1       2.756   1.848   1.347  0.00  0.00    -0.293 NA
ATOM      4  C   UNL     1       3.124   3.240   1.640  0.00  0.00    +0.090 C 
ATOM      5  C   UNL     1       2.135   3.983   2.549  0.00  0.00    +0.053 C 
ATOM      6  C   UNL     1       1.803   3.113   3.707  0.00  0.00    -0.016 A 
ATOM      7  C   UNL     1       1.471   3.494   5.032  0.00  0.00    +0.003 A 
ATOM      8  C   UNL     1       1.259   4.732   5.671  0.00  0.00    +0.014 A 
ATOM      9  C   UNL     1       1.054   4.762   7.054  0.00  0.00    +0.046 A 
ATOM     10  C   UNL     1       1.066   3.588   7.809  0.00  0.00    +0.122 A 
ATOM     11  C   UNL     1       1.262   2.344   7.186  0.00  0.00    +0.071 A 
ATOM     12  C   UNL     1       1.455   2.324   5.790  0.00  0.00    +0.050 A 
ATOM     13  N   UNL     1       1.702   1.272   4.926  0.00  0.00    -0.356 N 
ATOM     14  H   UNL     1       1.804   0.313   5.219  0.00  0.00    +0.166 HD
ATOM     15  C   UNL     1       1.949   1.731   3.654  0.00  0.00    +0.038 A 
ATOM     16  C   UNL     1       2.579   0.949   2.503  0.00  0.00    +0.104 C 
ATOM     17  C   UNL     1       1.881  -0.424   2.059  0.00  0.00    +0.030 C 
ATOM     18  C   UNL     1       2.068  -0.957   0.538  0.00  0.00    +0.012 C 
ATOM     19  C   UNL     1       3.169  -2.050  -0.269  0.00  0.00    +0.133 C 
ATOM     20  C   UNL     1       4.507  -1.460  -0.940  0.00  0.00    +0.172 C 
ATOM     21  C   UNL     1       4.545  -0.069  -0.379  0.00  0.00    +0.206 C 
ATOM     22  C   UNL     1       3.230   0.521  -1.078  0.00  0.00    +0.052 C 
ENDROOT
BRANCH  10  23
ATOM     23  O   UNL     1       0.875   3.802   9.149  0.00  0.00    -0.495 OA
ATOM     24  C   UNL     1       0.992   2.679  10.011  0.00  0.00    +0.277 C 
ENDBRANCH  10  23
BRANCH  19  25
ATOM     25  C   UNL     1       3.624  -3.342   0.446  0.00  0.00    +0.313 C 
ATOM     26  O   UNL     1       3.201  -3.704   1.517  0.00  0.00    -0.250 OA
BRANCH  25  27
ATOM     27  O   UNL     1       4.556  -3.982  -0.316  0.00  0.00    -0.468 OA
ATOM     28  C   UNL     1       5.425  -4.966   0.275  0.00  0.00    +0.280 C 
ENDBRANCH  25  27
ENDBRANCH  19  25
BRANCH  20  29
ATOM     29  O   UNL     1       4.511  -1.322  -2.377  0.00  0.00    -0.375 OA
ATOM     30  C   UNL     1       4.929  -2.418  -3.156  0.00  0.00    +0.194 C 
ENDBRANCH  20  29
BRANCH  21  31
ATOM     31  O   UNL     1       4.572  -0.255   1.098  0.00  0.00    -0.456 OA
BRANCH  31  32
ATOM     32  C   UNL     1       5.461  -1.071   1.769  0.00  0.00    +0.332 C 
ATOM     33  O   UNL     1       6.539  -1.453   1.345  0.00  0.00    -0.246 OA
BRANCH  32  34
ATOM     34  C   UNL     1       4.815  -1.633   3.016  0.00  0.00    +0.092 C 
ATOM     35  C   UNL     1       5.307  -2.517   3.902  0.00  0.00    +0.015 C 
BRANCH  35  36
ATOM     36  C   UNL     1       4.526  -3.198   4.991  0.00  0.00    -0.018 A 
ATOM     37  C   UNL     1       3.373  -2.722   5.636  0.00  0.00    +0.057 A 
ATOM     38  C   UNL     1       2.744  -3.461   6.674  0.00  0.00    +0.166 A 
ATOM     39  C   UNL     1       3.272  -4.697   7.107  0.00  0.00    +0.204 A 
ATOM     40  C   UNL     1       4.437  -5.182   6.486  0.00  0.00    +0.166 A 
ATOM     41  C   UNL     1       5.008  -4.443   5.418  0.00  0.00    +0.057 A 
BRANCH  38  42
ATOM     42  O   UNL     1       1.606  -3.062   7.343  0.00  0.00    -0.491 OA
ATOM     43  C   UNL     1       0.929  -1.890   6.930  0.00  0.00    +0.277 C 
ENDBRANCH  38  42
BRANCH  39  44
ATOM     44  O   UNL     1       2.576  -5.294   8.133  0.00  0.00    -0.488 OA
ATOM     45  C   UNL     1       3.072  -6.478   8.740  0.00  0.00    +0.277 C 
ENDBRANCH  39  44
BRANCH  40  46
ATOM     46  O   UNL     1       4.970  -6.371   6.851  0.00  0.00    -0.491 OA
ATOM     47  C   UNL     1       6.399  -6.403   6.875  0.00  0.00    +0.277 C 
ENDBRANCH  40  46
ENDBRANCH  35  36
ENDBRANCH  32  34
ENDBRANCH  31  32
ENDBRANCH  21  31
TORSDOF 11
