REMARK  Name = 
REMARK  21 active torsions:
REMARK  status: ('A' for Active; 'I' for Inactive)
REMARK    1  A    between atoms: C_1  and  N_2
REMARK    2  A    between atoms: N_4  and  C_5
REMARK    3  A    between atoms: C_8  and  C_10
REMARK    4  A    between atoms: C_10  and  O_11
REMARK    5  A    between atoms: O_11  and  P_12
REMARK    6  A    between atoms: P_12  and  O_13
REMARK    7  A    between atoms: P_12  and  O_15
REMARK    8  A    between atoms: O_15  and  P_16
REMARK    9  A    between atoms: P_16  and  O_17
REMARK   10  A    between atoms: P_16  and  O_19
REMARK   11  A    between atoms: O_19  and  P_20
REMARK   12  A    between atoms: P_20  and  O_21
REMARK   13  A    between atoms: P_20  and  O_23
REMARK   14  A    between atoms: O_23  and  C_24
REMARK   15  A    between atoms: C_24  and  C_25
REMARK   16  A    between atoms: C_28  and  N_36
REMARK   17  A    between atoms: C_30  and  O_32
REMARK   18  A    between atoms: C_33  and  O_35
REMARK   19  A    between atoms: C_40  and  N_41
REMARK   20  A    between atoms: C_46  and  O_48
REMARK   21  A    between atoms: C_49  and  O_51
REMARK                            x       y       z     vdW  Elec       q    Type
REMARK                         _______ _______ _______ _____ _____    ______ ____
ROOT
ATOM      1  P   UNL     1      16.059   3.936  -0.196  0.00  0.00    +0.492 P 
ATOM      2  O   UNL     1      14.883   4.652   0.379  0.00  0.00    -0.226 OA
ENDROOT
BRANCH   1   3
ATOM      3  O   UNL     1      17.378   4.284   0.656  0.00  0.00    -0.302 OA
ATOM      4  H   UNL     1      17.162   4.987   1.306  0.00  0.00    +0.222 HD
ENDBRANCH   1   3
BRANCH   1   5
ATOM      5  O   UNL     1      15.930   2.353  -0.004  0.00  0.00    -0.186 OA
BRANCH   5   6
ATOM      6  P   UNL     1      14.400   1.860   0.635  0.00  0.00    +0.483 P 
ATOM      7  O   UNL     1      14.081   0.969  -0.567  0.00  0.00    -0.227 OA
BRANCH   6   8
ATOM      8  O   UNL     1      12.870   1.368   1.275  0.00  0.00    -0.302 OA
ATOM      9  H   UNL     1      12.452   0.873   0.538  0.00  0.00    +0.222 HD
ENDBRANCH   6   8
BRANCH   6  10
ATOM     10  O   UNL     1      15.155   0.873   1.711  0.00  0.00    -0.284 OA
BRANCH  10  11
ATOM     11  C   UNL     1      15.606   1.456   2.924  0.00  0.00    +0.206 C 
BRANCH  11  15
ATOM     12  C   UNL     1      13.922   0.186   5.203  0.00  0.00    +0.442 C 
ATOM     13  C   UNL     1      14.772   1.196   6.006  0.00  0.00    +0.244 C 
ATOM     14  C   UNL     1      14.828   2.449   5.141  0.00  0.00    +0.183 C 
ATOM     15  C   UNL     1      14.421   1.954   3.767  0.00  0.00    +0.183 C 
ATOM     16  O   UNL     1      13.496   0.880   4.026  0.00  0.00    -0.309 OA
BRANCH  12  30
ATOM     17  C   UNL     1      17.635  -2.986   4.891  0.00  0.00    +0.155 C 
ATOM     18  N   UNL     1      16.311  -2.417   4.672  0.00  0.00    -0.286 N 
ATOM     19  C   UNL     1      15.564  -2.589   3.513  0.00  0.00    +0.204 A 
ATOM     20  C   UNL     1      15.755  -3.374   2.320  0.00  0.00    +0.305 A 
ATOM     21  N   UNL     1      14.883  -3.070   1.273  0.00  0.00    -0.175 NA
ATOM     22  C   UNL     1      13.947  -2.180   1.412  0.00  0.00    +0.198 A 
ATOM     23  N   UNL     1      13.650  -1.497   2.562  0.00  0.00    -0.273 N 
ATOM     24  H   UNL     1      12.967  -0.747   2.509  0.00  0.00    +0.174 HD
ATOM     25  N   UNL     1      13.194  -1.827   0.342  0.00  0.00    -0.329 N 
ATOM     26  H   UNL     1      13.376  -0.866   0.047  0.00  0.00    +0.145 HD
ATOM     27  H   UNL     1      13.476  -2.385  -0.467  0.00  0.00    +0.145 HD
ATOM     28  O   UNL     1      16.644  -4.214   2.182  0.00  0.00    -0.263 OA
ATOM     29  C   UNL     1      14.524  -1.705   3.583  0.00  0.00    +0.318 A 
ATOM     30  N   UNL     1      14.670  -1.005   4.770  0.00  0.00    -0.135 N 
ATOM     31  C   UNL     1      15.640  -1.600   5.493  0.00  0.00    +0.412 A 
ENDBRANCH  12  30
BRANCH  14  32
ATOM     32  O   UNL     1      13.898   3.401   5.669  0.00  0.00    -0.386 OA
ATOM     33  H   UNL     1      13.114   3.470   5.092  0.00  0.00    +0.210 HD
ENDBRANCH  14  32
BRANCH  13  34
ATOM     34  O   UNL     1      14.210   1.460   7.291  0.00  0.00    -0.380 OA
ATOM     35  H   UNL     1      13.816   2.363   7.239  0.00  0.00    +0.210 HD
ENDBRANCH  13  34
ENDBRANCH  11  15
ENDBRANCH  10  11
ENDBRANCH   6  10
ENDBRANCH   5   6
ENDBRANCH   1   5
BRANCH   1  36
ATOM     36  O   UNL     1      16.450   4.191  -1.708  0.00  0.00    -0.186 OA
BRANCH  36  37
ATOM     37  P   UNL     1      17.541   5.279  -2.210  0.00  0.00    +0.483 P 
ATOM     38  O   UNL     1      17.149   5.711  -3.621  0.00  0.00    -0.227 OA
BRANCH  37  39
ATOM     39  O   UNL     1      16.523   6.546  -1.618  0.00  0.00    -0.302 OA
ATOM     40  H   UNL     1      15.961   6.752  -2.399  0.00  0.00    +0.222 HD
ENDBRANCH  37  39
BRANCH  37  41
ATOM     41  O   UNL     1      18.559   4.012  -2.802  0.00  0.00    -0.284 OA
BRANCH  41  42
ATOM     42  C   UNL     1      19.882   4.453  -3.097  0.00  0.00    +0.206 C 
BRANCH  42  43
ATOM     43  C   UNL     1      20.648   4.921  -1.854  0.00  0.00    +0.178 C 
ATOM     44  C   UNL     1      20.749   3.875  -0.743  0.00  0.00    +0.178 C 
ATOM     45  C   UNL     1      20.791   4.703   0.547  0.00  0.00    +0.195 C 
ATOM     46  C   UNL     1      20.734   6.157   0.055  0.00  0.00    +0.253 C 
ATOM     47  O   UNL     1      20.033   6.066  -1.215  0.00  0.00    -0.346 OA
BRANCH  46  48
ATOM     48  N   UNL     1      20.063   7.093   0.939  0.00  0.00    -0.286 N 
ATOM     49  C   UNL     1      20.208   7.154   2.304  0.00  0.00    +0.167 A 
ATOM     50  C   UNL     1      19.536   8.304   2.686  0.00  0.00    +0.147 A 
ATOM     51  C   UNL     1      19.564   8.635   4.052  0.00  0.00    +0.147 A 
ATOM     52  N   UNL     1      20.235   7.817   4.897  0.00  0.00    -0.219 NA
ATOM     53  C   UNL     1      20.843   6.726   4.389  0.00  0.00    +0.225 A 
ATOM     54  N   UNL     1      18.980   8.928   1.592  0.00  0.00    -0.231 NA
ATOM     55  N   UNL     1      20.881   6.304   3.103  0.00  0.00    -0.216 NA
ATOM     56  C   UNL     1      19.347   8.196   0.562  0.00  0.00    +0.203 A 
BRANCH  51  57
ATOM     57  N   UNL     1      18.967   9.776   4.574  0.00  0.00    -0.341 N 
ATOM     58  H   UNL     1      19.419  10.084   5.427  0.00  0.00    +0.144 HD
ATOM     59  H   UNL     1      18.798  10.491   3.872  0.00  0.00    +0.144 HD
ENDBRANCH  51  57
ENDBRANCH  46  48
BRANCH  44  60
ATOM     60  O   UNL     1      21.897   3.060  -0.915  0.00  0.00    -0.386 OA
ATOM     61  H   UNL     1      22.295   2.957  -0.025  0.00  0.00    +0.210 HD
ENDBRANCH  44  60
BRANCH  45  62
ATOM     62  O   UNL     1      21.950   4.390   1.319  0.00  0.00    -0.385 OA
ATOM     63  H   UNL     1      21.909   4.962   2.118  0.00  0.00    +0.210 HD
ENDBRANCH  45  62
ENDBRANCH  42  43
ENDBRANCH  41  42
ENDBRANCH  37  41
ENDBRANCH  36  37
ENDBRANCH   1  36
TORSDOF 20
