REMARK  Name = 
REMARK  18 active torsions:
REMARK  status: ('A' for Active; 'I' for Inactive)
REMARK    1  A    between atoms: O_1  and  C_2
REMARK    2  A    between atoms: C_2  and  CA_3
REMARK    3  A    between atoms: N_7  and  O_8
REMARK    4  A    between atoms: C_9  and  O_11
REMARK    5  A    between atoms: C_12  and  O_14
REMARK    6  A    between atoms: C_15  and  O_17
REMARK    7  A    between atoms: O_17  and  C_18
REMARK    8  A    between atoms: C_21  and  C_23
REMARK    9  A    between atoms: C_23  and  O_24
REMARK   10  A    between atoms: C_25  and  O_27
REMARK   11  A    between atoms: O_27  and  C_28
REMARK   12  A    between atoms: C_31  and  C_33
REMARK   13  A    between atoms: C_33  and  O_34
REMARK   14  A    between atoms: C_35  and  O_37
REMARK   15  A    between atoms: C_38  and  O_40
REMARK   16  A    between atoms: C_41  and  O_43
REMARK   17  A    between atoms: C_44  and  O_46
REMARK   18  A    between atoms: C_47  and  O_49
REMARK                            x       y       z     vdW  Elec       q    Type
REMARK                         _______ _______ _______ _____ _____    ______ ____
ROOT
ATOM      1  C   UNL     1       6.063   1.295   1.869  0.00  0.00    +0.282 C 
ATOM      2  C   UNL     1       6.282   2.571   1.034  0.00  0.00    +0.201 C 
ATOM      3  C   UNL     1       7.158   2.310  -0.198  0.00  0.00    +0.179 C 
ATOM      4  C   UNL     1       8.382   1.377   0.019  0.00  0.00    +0.183 C 
ATOM      5  C   UNL     1       7.886   0.134   0.806  0.00  0.00    +0.178 C 
ATOM      6  O   UNL     1       7.284   0.603   2.022  0.00  0.00    -0.341 OA
ENDROOT
BRANCH   3   7
ATOM      7  O   UNL     1       7.619   3.580  -0.700  0.00  0.00    -0.386 OA
ATOM      8  H   UNL     1       7.969   3.410  -1.591  0.00  0.00    +0.210 HD
ENDBRANCH   3   7
BRANCH   2   9
ATOM      9  O   UNL     1       5.007   3.129   0.645  0.00  0.00    -0.384 OA
ATOM     10  H   UNL     1       4.869   2.982  -0.306  0.00  0.00    +0.210 HD
ENDBRANCH   2   9
BRANCH   4  11
ATOM     11  O   UNL     1       8.888   1.236  -1.328  0.00  0.00    -0.340 OA
BRANCH  11  12
ATOM     12  C   UNL     1      10.028   0.424  -1.586  0.00  0.00    +0.282 C 
ATOM     13  C   UNL     1      11.285   0.816  -0.763  0.00  0.00    +0.201 C 
ATOM     14  C   UNL     1      11.991   2.045  -1.367  0.00  0.00    +0.179 C 
ATOM     15  C   UNL     1      12.215   1.839  -2.871  0.00  0.00    +0.177 C 
ATOM     16  C   UNL     1      10.905   1.501  -3.604  0.00  0.00    +0.178 C 
ATOM     17  O   UNL     1      10.275   0.367  -3.004  0.00  0.00    -0.341 OA
BRANCH  13  18
ATOM     18  O   UNL     1      12.181  -0.304  -0.653  0.00  0.00    -0.384 OA
ATOM     19  H   UNL     1      12.850  -0.206  -1.367  0.00  0.00    +0.210 HD
ENDBRANCH  13  18
BRANCH  15  20
ATOM     20  O   UNL     1      13.135   0.725  -2.994  0.00  0.00    -0.386 OA
ATOM     21  H   UNL     1      12.866   0.195  -3.768  0.00  0.00    +0.210 HD
ENDBRANCH  15  20
BRANCH  14  22
ATOM     22  O   UNL     1      11.303   3.266  -1.097  0.00  0.00    -0.386 OA
ATOM     23  H   UNL     1      10.363   3.090  -0.928  0.00  0.00    +0.210 HD
ENDBRANCH  14  22
BRANCH  16  24
ATOM     24  C   UNL     1       9.926   2.660  -3.815  0.00  0.00    +0.190 C 
BRANCH  24  25
ATOM     25  O   UNL     1      10.549   3.743  -4.490  0.00  0.00    -0.392 OA
ATOM     26  H   UNL     1       9.895   4.463  -4.544  0.00  0.00    +0.210 HD
ENDBRANCH  24  25
ENDBRANCH  16  24
ENDBRANCH  11  12
ENDBRANCH   4  11
BRANCH   5  27
ATOM     27  C   UNL     1       8.924  -0.852   1.372  0.00  0.00    +0.190 C 
BRANCH  27  28
ATOM     28  O   UNL     1       9.587  -1.643   0.417  0.00  0.00    -0.392 OA
ATOM     29  H   UNL     1      10.552  -1.524   0.534  0.00  0.00    +0.210 HD
ENDBRANCH  27  28
ENDBRANCH   5  27
BRANCH   1  30
ATOM     30  O   UNL     1       5.620   1.697   3.171  0.00  0.00    -0.339 OA
BRANCH  30  32
ATOM     31  CA  UNL     1       5.544   1.319   5.562  0.00  0.00    +0.221 C 
ATOM     32  C   UNL     1       5.561   0.656   4.160  0.00  0.00    +0.198 C 
ATOM     33  C   UNL     1       4.417  -0.360   3.882  0.00  0.00    +0.188 C 
ATOM     34  C   UNL     1       4.109  -1.267   5.089  0.00  0.00    +0.265 C 
ATOM     35  C   UNL     1       3.946  -0.345   6.297  0.00  0.00    +0.365 C 
ATOM     36  N   UNL     1       2.790  -0.262   6.904  0.00  0.00    +0.149 NA
ATOM     37  N   UNL     1       5.042   0.421   6.611  0.00  0.00    -0.224 N 
ATOM     38  H   UNL     1       4.836   0.981   7.446  0.00  0.00    +0.292 HD
BRANCH  36  39
ATOM     39  O   UNL     1       2.851   0.708   7.917  0.00  0.00    -0.311 OA
ATOM     40  H   UNL     1       1.959   0.660   8.308  0.00  0.00    +0.361 HD
ENDBRANCH  36  39
BRANCH  34  41
ATOM     41  O   UNL     1       3.001  -2.111   4.827  0.00  0.00    -0.378 OA
ATOM     42  H   UNL     1       2.220  -1.528   4.798  0.00  0.00    +0.211 HD
ENDBRANCH  34  41
BRANCH  33  43
ATOM     43  O   UNL     1       3.225   0.287   3.400  0.00  0.00    -0.386 OA
ATOM     44  H   UNL     1       2.834   0.804   4.127  0.00  0.00    +0.210 HD
ENDBRANCH  33  43
BRANCH  31  45
ATOM     45  C   UNL     1       4.784   2.658   5.645  0.00  0.00    +0.205 C 
BRANCH  45  46
ATOM     46  O   UNL     1       4.950   3.186   6.967  0.00  0.00    -0.391 OA
ATOM     47  H   UNL     1       4.478   4.037   6.996  0.00  0.00    +0.210 HD
ENDBRANCH  45  46
ENDBRANCH  31  45
ENDBRANCH  30  32
ENDBRANCH   1  30
TORSDOF 18
