REMARK  Name = 
REMARK  10 active torsions:
REMARK  status: ('A' for Active; 'I' for Inactive)
REMARK    1  A    between atoms: C_1  and  O_2
REMARK    2  A    between atoms: O_2  and  C_3
REMARK    3  A    between atoms: C_3  and  C_5
REMARK    4  A    between atoms: C_11  and  C_13
REMARK    5  A    between atoms: C_13  and  C_15
REMARK    6  A    between atoms: C_13  and  N_25
REMARK    7  A    between atoms: C_15  and  C_16
REMARK    8  A    between atoms: C_20  and  C_22
REMARK    9  A    between atoms: N_25  and  S_26
REMARK   10  A    between atoms: S_26  and  C_29
REMARK                            x       y       z     vdW  Elec       q    Type
REMARK                         _______ _______ _______ _____ _____    ______ ____
ROOT
ATOM      1  C   UNL     1       6.431  -0.743  -5.724  0.00  0.00    +0.166 C 
ENDROOT
BRANCH   1   6
ATOM      2  C   UNL     1       1.358   0.061  -4.396  0.00  0.00    +0.101 C 
ATOM      3  C   UNL     1       1.618   0.458  -5.854  0.00  0.00    +0.033 C 
ATOM      4  C   UNL     1       2.749  -0.359  -6.462  0.00  0.00    +0.108 C 
ATOM      5  N   UNL     1       3.954  -0.308  -5.636  0.00  0.00    -0.300 N 
ATOM      6  C   UNL     1       5.162  -0.060  -6.278  0.00  0.00    +0.235 C 
ATOM      7  O   UNL     1       5.197   0.612  -7.312  0.00  0.00    -0.274 OA
ATOM      8  C   UNL     1       3.791  -0.706  -4.245  0.00  0.00    +0.108 C 
ATOM      9  C   UNL     1       2.667   0.104  -3.591  0.00  0.00    +0.033 C 
BRANCH   2  10
ATOM     10  C   UNL     1       0.691  -1.304  -4.301  0.00  0.00    +0.310 C 
ATOM     11  O   UNL     1       1.147  -2.264  -3.695  0.00  0.00    -0.251 OA
BRANCH  10  13
ATOM     12  C   UNL     1      -1.187  -2.551  -4.950  0.00  0.00    +0.280 C 
ATOM     13  O   UNL     1      -0.499  -1.298  -4.963  0.00  0.00    -0.468 OA
ENDBRANCH  10  13
ENDBRANCH   2  10
ENDBRANCH   1   6
BRANCH   1  14
ATOM     14  N   UNL     1       7.260  -1.359  -6.804  0.00  0.00    -0.178 NA
ATOM     15  H   UNL     1       8.172  -1.696  -6.497  0.00  0.00    +0.149 HD
BRANCH  14  16
ATOM     16  S   UNL     1       6.542  -2.426  -7.912  0.00  0.00    +0.059 S 
ATOM     17  O   UNL     1       7.394  -2.441  -9.076  0.00  0.00    -0.153 OA
ATOM     18  O   UNL     1       5.117  -2.209  -8.002  0.00  0.00    -0.153 OA
BRANCH  16  19
ATOM     19  C   UNL     1       6.755  -3.991  -7.100  0.00  0.00    +0.106 A 
ATOM     20  C   UNL     1       5.807  -4.406  -6.161  0.00  0.00    +0.037 A 
ATOM     21  C   UNL     1       5.953  -5.642  -5.518  0.00  0.00    -0.016 A 
ATOM     22  C   UNL     1       7.048  -6.474  -5.848  0.00  0.00    -0.018 A 
ATOM     23  C   UNL     1       7.195  -7.703  -5.184  0.00  0.00    +0.008 A 
ATOM     24  C   UNL     1       6.286  -8.103  -4.206  0.00  0.00    +0.001 A 
ATOM     25  C   UNL     1       5.206  -7.279  -3.886  0.00  0.00    +0.001 A 
ATOM     26  C   UNL     1       7.961  -6.060  -6.833  0.00  0.00    +0.010 A 
ATOM     27  C   UNL     1       5.030  -6.066  -4.548  0.00  0.00    +0.008 A 
ATOM     28  C   UNL     1       7.817  -4.822  -7.460  0.00  0.00    +0.029 A 
ENDBRANCH  16  19
ENDBRANCH  14  16
ENDBRANCH   1  14
BRANCH   1  29
ATOM     29  C   UNL     1       7.291   0.204  -4.839  0.00  0.00    +0.065 C 
BRANCH  29  30
ATOM     30  C   UNL     1       8.158   1.314  -5.417  0.00  0.00    -0.045 A 
ATOM     31  C   UNL     1       9.102   1.946  -4.573  0.00  0.00    +0.019 A 
ATOM     32  C   UNL     1      10.012   2.891  -5.079  0.00  0.00    +0.065 A 
ATOM     33  C   UNL     1       9.966   3.243  -6.427  0.00  0.00    +0.016 A 
ATOM     34  C   UNL     1       8.999   2.678  -7.253  0.00  0.00    +0.001 A 
ATOM     35  C   UNL     1       8.106   1.726  -6.752  0.00  0.00    +0.004 A 
BRANCH  32  36
ATOM     36  C   UNL     1      11.073   3.489  -4.214  0.00  0.00    +0.308 C 
ATOM     37  N   UNL     1      10.895   3.739  -2.956  0.00  0.00    -0.099 NA
ATOM     38  H   UNL     1       9.932   3.544  -2.673  0.00  0.00    +0.363 HD
ATOM     39  N   UNL     1      12.295   3.792  -4.737  0.00  0.00    -0.247 N 
ATOM     40  H   UNL     1      12.998   3.938  -4.018  0.00  0.00    +0.288 HD
ATOM     41  H   UNL     1      12.621   3.249  -5.526  0.00  0.00    +0.288 HD
ENDBRANCH  32  36
ENDBRANCH  29  30
ENDBRANCH   1  29
TORSDOF 9
