REMARK  Name = 
REMARK  8 active torsions:
REMARK  status: ('A' for Active; 'I' for Inactive)
REMARK    1  A    between atoms: C_1  and  N_2
REMARK    2  A    between atoms: N_2  and  N_3
REMARK    3  A    between atoms: N_3  and  C_4
REMARK    4  A    between atoms: C_4  and  C_5
REMARK    5  A    between atoms: C_8  and  C_11
REMARK    6  A    between atoms: N_13  and  C_14
REMARK    7  A    between atoms: C_14  and  C_15
REMARK    8  A    between atoms: C_14  and  C_16
REMARK                            x       y       z     vdW  Elec       q    Type
REMARK                         _______ _______ _______ _____ _____    ______ ____
ROOT
ATOM      1  C   UNL     1       4.884  -1.845   2.184  0.00  0.00    -0.032 A 
ATOM      2  C   UNL     1       4.536  -3.204   2.151  0.00  0.00    +0.005 A 
ATOM      3  C   UNL     1       5.016  -4.089   3.123  0.00  0.00    +0.013 A 
ATOM      4  C   UNL     1       5.866  -3.628   4.135  0.00  0.00    +0.037 A 
ATOM      5  C   UNL     1       6.191  -2.268   4.192  0.00  0.00    +0.013 A 
ATOM      6  C   UNL     1       5.701  -1.384   3.228  0.00  0.00    +0.005 A 
ENDROOT
BRANCH   4   7
ATOM      7  C   UNL     1       6.429  -4.529   5.180  0.00  0.00    +0.244 C 
ATOM      8  N   UNL     1       6.570  -5.860   4.834  0.00  0.00    -0.309 N 
ATOM      9  H   UNL     1       6.494  -6.113   3.859  0.00  0.00    +0.149 HD
ATOM     10  O   UNL     1       6.773  -4.075   6.265  0.00  0.00    -0.270 OA
BRANCH   8  11
ATOM     11  C   UNL     1       7.222  -6.811   5.725  0.00  0.00    +0.067 C 
ATOM     12  C   UNL     1       8.740  -6.754   5.562  0.00  0.00    +0.027 C 
ATOM     13  C   UNL     1       6.704  -8.219   5.455  0.00  0.00    +0.027 C 
ENDBRANCH   8  11
ENDBRANCH   4   7
BRANCH   1  14
ATOM     14  C   UNL     1       4.386  -0.892   1.117  0.00  0.00    +0.133 C 
BRANCH  14  15
ATOM     15  N   UNL     1       5.505  -0.354   0.325  0.00  0.00    -0.253 NA
ATOM     16  H   UNL     1       6.120   0.150   0.970  0.00  0.00    +0.141 HD
BRANCH  15  18
ATOM     17  C   UNL     1       6.135   1.115  -1.418  0.00  0.00    +0.120 C 
ATOM     18  N   UNL     1       4.994   0.549  -0.694  0.00  0.00    -0.259 NA
ATOM     19  H   UNL     1       4.422   0.036  -1.372  0.00  0.00    +0.140 HD
ENDBRANCH  15  18
ENDBRANCH  14  15
ENDBRANCH   1  14
TORSDOF 5
