REMARK  Name = 
REMARK  18 active torsions:
REMARK  status: ('A' for Active; 'I' for Inactive)
REMARK    1  A    between atoms: O_1  and  C_2
REMARK    2  A    between atoms: C_2  and  C_3
REMARK    3  A    between atoms: C_6  and  N_10
REMARK    4  A    between atoms: C_11  and  C_13
REMARK    5  A    between atoms: C_13  and  O_15
REMARK    6  A    between atoms: C_13  and  C_23
REMARK    7  A    between atoms: O_15  and  C_16
REMARK    8  A    between atoms: C_16  and  C_17
REMARK    9  A    between atoms: C_23  and  O_25
REMARK   10  A    between atoms: C_23  and  C_26
REMARK   11  A    between atoms: C_26  and  O_28
REMARK   12  A    between atoms: C_26  and  C_29
REMARK   13  A    between atoms: C_29  and  O_31
REMARK   14  A    between atoms: C_29  and  C_39
REMARK   15  A    between atoms: O_31  and  C_32
REMARK   16  A    between atoms: C_32  and  C_33
REMARK   17  A    between atoms: N_41  and  C_42
REMARK   18  A    between atoms: C_44  and  O_46
REMARK                            x       y       z     vdW  Elec       q    Type
REMARK                         _______ _______ _______ _____ _____    ______ ____
ROOT
ATOM      1  C   UNL     1      10.747  -5.611  -4.941  0.00  0.00    +0.184 C 
ENDROOT
BRANCH   1   2
ATOM      2  O   UNL     1       9.395  -6.131  -4.727  0.00  0.00    -0.386 OA
ATOM      3  H   UNL     1       9.426  -6.881  -4.106  0.00  0.00    +0.210 HD
ENDBRANCH   1   2
BRANCH   1   4
ATOM      4  C   UNL     1      11.546  -6.911  -5.149  0.00  0.00    +0.184 C 
BRANCH   4   5
ATOM      5  O   UNL     1      10.848  -7.652  -6.196  0.00  0.00    -0.386 OA
ATOM      6  H   UNL     1       9.948  -7.263  -6.265  0.00  0.00    +0.210 HD
ENDBRANCH   4   5
BRANCH   4   7
ATOM      7  C   UNL     1      13.024  -6.744  -5.501  0.00  0.00    +0.235 C 
BRANCH   7  10
ATOM      8  N   UNL     1      13.026  -9.052  -6.334  0.00  0.00    -0.308 N 
ATOM      9  H   UNL     1      12.128  -8.760  -6.735  0.00  0.00    +0.149 HD
ATOM     10  C   UNL     1      13.724  -8.104  -5.642  0.00  0.00    +0.245 C 
ATOM     11  O   UNL     1      14.854  -8.293  -5.192  0.00  0.00    -0.273 OA
BRANCH   8  15
ATOM     12  C   UNL     1      13.233 -12.567  -7.222  0.00  0.00    +0.145 C 
ATOM     13  O   UNL     1      13.717 -12.574  -5.868  0.00  0.00    -0.372 OA
ATOM     14  C   UNL     1      13.977 -11.206  -5.498  0.00  0.00    +0.182 C 
ATOM     15  C   UNL     1      13.582 -10.329  -6.687  0.00  0.00    +0.101 C 
ATOM     16  C   UNL     1      12.592 -11.207  -7.414  0.00  0.00    +0.058 C 
BRANCH  12  17
ATOM     17  C   UNL     1      12.283 -13.729  -7.472  0.00  0.00    +0.187 C 
BRANCH  17  18
ATOM     18  O   UNL     1      11.813 -13.695  -8.814  0.00  0.00    -0.392 OA
ATOM     19  H   UNL     1      11.288 -14.502  -8.950  0.00  0.00    +0.210 HD
ENDBRANCH  17  18
ENDBRANCH  12  17
ENDBRANCH   8  15
ENDBRANCH   7  10
BRANCH   7  20
ATOM     20  O   UNL     1      13.135  -5.938  -6.660  0.00  0.00    -0.360 OA
BRANCH  20  21
ATOM     21  C   UNL     1      14.474  -5.493  -6.872  0.00  0.00    +0.196 C 
BRANCH  21  22
ATOM     22  C   UNL     1      14.527  -4.493  -7.994  0.00  0.00    -0.022 A 
ATOM     23  C   UNL     1      15.691  -4.393  -8.767  0.00  0.00    +0.006 A 
ATOM     24  C   UNL     1      15.780  -3.452  -9.792  0.00  0.00    +0.000 A 
ATOM     25  C   UNL     1      14.712  -2.592 -10.043  0.00  0.00    +0.000 A 
ATOM     26  C   UNL     1      13.559  -2.665  -9.265  0.00  0.00    +0.000 A 
ATOM     27  C   UNL     1      13.470  -3.607  -8.241  0.00  0.00    +0.006 A 
ENDBRANCH  21  22
ENDBRANCH  20  21
ENDBRANCH   7  20
ENDBRANCH   4   7
ENDBRANCH   1   4
BRANCH   1  28
ATOM     28  C   UNL     1      11.193  -4.662  -3.786  0.00  0.00    +0.235 C 
BRANCH  28  29
ATOM     29  C   UNL     1      12.566  -3.973  -4.062  0.00  0.00    +0.245 C 
ATOM     30  N   UNL     1      13.531  -4.174  -3.088  0.00  0.00    -0.304 N 
ATOM     31  H   UNL     1      13.289  -4.621  -2.216  0.00  0.00    +0.149 HD
ATOM     32  O   UNL     1      12.790  -3.317  -5.066  0.00  0.00    -0.273 OA
BRANCH  30  33
ATOM     33  C   UNL     1      14.896  -3.656  -3.204  0.00  0.00    +0.132 C 
ATOM     34  C   UNL     1      15.834  -4.564  -2.445  0.00  0.00    -0.022 A 
ATOM     35  C   UNL     1      16.401  -3.930  -1.339  0.00  0.00    -0.040 A 
ATOM     36  C   UNL     1      17.196  -4.634  -0.444  0.00  0.00    +0.004 A 
ATOM     37  C   UNL     1      17.421  -5.992  -0.672  0.00  0.00    +0.000 A 
ATOM     38  C   UNL     1      16.880  -6.622  -1.800  0.00  0.00    +0.000 A 
ATOM     39  C   UNL     1      16.012  -2.492  -1.251  0.00  0.00    +0.069 C 
ATOM     40  C   UNL     1      16.088  -5.904  -2.698  0.00  0.00    +0.006 A 
ATOM     41  C   UNL     1      15.127  -2.275  -2.500  0.00  0.00    +0.143 C 
BRANCH  41  42
ATOM     42  O   UNL     1      15.775  -1.332  -3.368  0.00  0.00    -0.389 OA
ATOM     43  H   UNL     1      16.588  -1.739  -3.714  0.00  0.00    +0.210 HD
ENDBRANCH  41  42
ENDBRANCH  30  33
ENDBRANCH  28  29
BRANCH  28  44
ATOM     44  O   UNL     1      10.324  -3.523  -3.622  0.00  0.00    -0.360 OA
BRANCH  44  45
ATOM     45  C   UNL     1       8.961  -3.811  -3.357  0.00  0.00    +0.196 C 
BRANCH  45  46
ATOM     46  C   UNL     1       8.214  -2.518  -3.221  0.00  0.00    -0.022 A 
ATOM     47  C   UNL     1       8.127  -1.860  -1.992  0.00  0.00    +0.006 A 
ATOM     48  C   UNL     1       7.433  -0.655  -1.900  0.00  0.00    +0.000 A 
ATOM     49  C   UNL     1       6.830  -0.102  -3.031  0.00  0.00    +0.000 A 
ATOM     50  C   UNL     1       6.916  -0.751  -4.259  0.00  0.00    +0.000 A 
ATOM     51  C   UNL     1       7.610  -1.953  -4.356  0.00  0.00    +0.006 A 
ENDBRANCH  45  46
ENDBRANCH  44  45
ENDBRANCH  28  44
ENDBRANCH   1  28
TORSDOF 18
