REMARK  Name = 
REMARK  12 active torsions:
REMARK  status: ('A' for Active; 'I' for Inactive)
REMARK    1  A    between atoms: C_1  and  C_2
REMARK    2  A    between atoms: C_2  and  C_4
REMARK    3  A    between atoms: C_2  and  C_6
REMARK    4  A    between atoms: C_4  and  O_5
REMARK    5  A    between atoms: C_6  and  C_7
REMARK    6  A    between atoms: C_7  and  O_8
REMARK    7  A    between atoms: O_8  and  P_9
REMARK    8  A    between atoms: P_9  and  O_10
REMARK    9  A    between atoms: P_9  and  O_12
REMARK   10  A    between atoms: O_12  and  P_13
REMARK   11  A    between atoms: P_13  and  O_14
REMARK   12  A    between atoms: P_13  and  O_15
REMARK                            x       y       z     vdW  Elec       q    Type
REMARK                         _______ _______ _______ _____ _____    ______ ____
ROOT
ATOM      1  P   UNL     1       6.759  -2.737  -0.141  0.00  0.00    +0.483 P 
ATOM      2  O   UNL     1       6.679  -1.705  -1.267  0.00  0.00    -0.227 OA
ENDROOT
BRANCH   1   3
ATOM      3  O   UNL     1       5.030  -2.789  -0.128  0.00  0.00    -0.302 OA
ATOM      4  H   UNL     1       4.797  -2.667  -1.072  0.00  0.00    +0.222 HD
ENDBRANCH   1   3
BRANCH   1   5
ATOM      5  O   UNL     1       6.780  -4.234  -0.813  0.00  0.00    -0.286 OA
BRANCH   5   6
ATOM      6  C   UNL     1       6.885  -5.287   0.130  0.00  0.00    +0.173 C 
BRANCH   6   7
ATOM      7  C   UNL     1       6.893  -6.628  -0.592  0.00  0.00    +0.034 C 
BRANCH   7   9
ATOM      8  C   UNL     1       7.183  -9.119  -0.418  0.00  0.00    +0.010 C 
ATOM      9  C   UNL     1       7.038  -7.817   0.375  0.00  0.00    +0.014 C 
BRANCH   9  10
ATOM     10  C   UNL     1       5.866  -7.895   1.364  0.00  0.00    +0.159 C 
BRANCH  10  11
ATOM     11  O   UNL     1       6.036  -8.970   2.276  0.00  0.00    -0.395 OA
ATOM     12  H   UNL     1       5.794  -9.790   1.813  0.00  0.00    +0.209 HD
ENDBRANCH  10  11
ENDBRANCH   9  10
ENDBRANCH   7   9
ENDBRANCH   6   7
ENDBRANCH   5   6
ENDBRANCH   1   5
BRANCH   1  13
ATOM     13  O   UNL     1       8.488  -2.684  -0.153  0.00  0.00    -0.186 OA
BRANCH  13  14
ATOM     14  P   UNL     1       9.325  -1.637   0.678  0.00  0.00    +0.481 P 
ATOM     15  O   UNL     1       8.657  -1.106   1.895  0.00  0.00    -0.227 OA
BRANCH  14  16
ATOM     16  O   UNL     1       9.826  -0.572  -0.396  0.00  0.00    -0.302 OA
ATOM     17  H   UNL     1       9.096  -0.061  -0.797  0.00  0.00    +0.222 HD
ENDBRANCH  14  16
BRANCH  14  18
ATOM     18  O   UNL     1      10.670  -2.453   0.976  0.00  0.00    -0.302 OA
ATOM     19  H   UNL     1      10.611  -3.022   1.762  0.00  0.00    +0.222 HD
ENDBRANCH  14  18
ENDBRANCH  13  14
ENDBRANCH   1  13
TORSDOF 11
