REMARK  Name = 
REMARK  10 active torsions:
REMARK  status: ('A' for Active; 'I' for Inactive)
REMARK    1  A    between atoms: O_1  and  C_2
REMARK    2  A    between atoms: C_2  and  C_4
REMARK    3  A    between atoms: C_2  and  C_10
REMARK    4  A    between atoms: C_4  and  O_5
REMARK    5  A    between atoms: O_5  and  P_6
REMARK    6  A    between atoms: P_6  and  O_7
REMARK    7  A    between atoms: P_6  and  O_8
REMARK    8  A    between atoms: C_10  and  O_12
REMARK    9  A    between atoms: C_10  and  C_13
REMARK   10  A    between atoms: C_13  and  O_14
REMARK                            x       y       z     vdW  Elec       q    Type
REMARK                         _______ _______ _______ _____ _____    ______ ____
ROOT
ATOM      1  C   UNL     1       2.429   0.004   0.083  0.00  0.00    +0.180 C 
ENDROOT
BRANCH   1   2
ATOM      2  O   UNL     1       0.996   0.047   0.121  0.00  0.00    -0.386 OA
ATOM      3  H   UNL     1       0.664  -0.866   0.188  0.00  0.00    +0.210 HD
ENDBRANCH   1   2
BRANCH   1   4
ATOM      4  C   UNL     1       3.015   1.398   0.354  0.00  0.00    +0.253 C 
BRANCH   4   5
ATOM      5  C   UNL     1       2.738   1.792   1.800  0.00  0.00    +0.336 C 
ATOM      6  O   UNL     1       3.104   1.161   2.783  0.00  0.00    -0.248 OA
BRANCH   5   7
ATOM      7  O   UNL     1       2.045   2.960   1.882  0.00  0.00    -0.479 OA
ATOM      8  H   UNL     1       1.857   3.233   0.950  0.00  0.00    +0.295 HD
ENDBRANCH   5   7
ENDBRANCH   4   5
BRANCH   4   9
ATOM      9  O   UNL     1       2.456   2.413  -0.506  0.00  0.00    -0.378 OA
ATOM     10  H   UNL     1       2.784   2.227  -1.406  0.00  0.00    +0.211 HD
ENDBRANCH   4   9
ENDBRANCH   1   4
BRANCH   1  11
ATOM     11  C   UNL     1       2.839  -0.532  -1.285  0.00  0.00    +0.206 C 
BRANCH  11  12
ATOM     12  O   UNL     1       4.254  -0.581  -1.426  0.00  0.00    -0.284 OA
BRANCH  12  13
ATOM     13  P   UNL     1       4.696  -1.127  -3.007  0.00  0.00    +0.472 P 
ATOM     14  O   UNL     1       5.091  -1.615  -4.422  0.00  0.00    -0.228 OA
BRANCH  13  15
ATOM     15  O   UNL     1       6.229  -1.084  -2.434  0.00  0.00    -0.303 OA
ATOM     16  H   UNL     1       6.488  -1.931  -2.031  0.00  0.00    +0.222 HD
ENDBRANCH  13  15
BRANCH  13  17
ATOM     17  O   UNL     1       4.690   0.464  -3.400  0.00  0.00    -0.303 OA
ATOM     18  H   UNL     1       5.632   0.709  -3.485  0.00  0.00    +0.222 HD
ENDBRANCH  13  17
ENDBRANCH  12  13
ENDBRANCH  11  12
ENDBRANCH   1  11
TORSDOF 10
