REMARK  Name = 
REMARK  3 active torsions:
REMARK  status: ('A' for Active; 'I' for Inactive)
REMARK    1  A    between atoms: N_1  and  CA_5
REMARK    2  A    between atoms: CA_5  and  C_7
REMARK    3  A    between atoms: CA_5  and  C_9
REMARK                            x       y       z     vdW  Elec       q    Type
REMARK                         _______ _______ _______ _____ _____    ______ ____
ROOT
ATOM      1  CA  UNL     1       2.523  -0.041   0.080  0.00  0.00    +0.131 C 
ENDROOT
BRANCH   1   2
ATOM      2  N   UNL     1       3.029   0.452  -1.253  0.00  0.00    +0.228 N 
ATOM      3  H1  UNL     1       3.969   0.838  -1.148  0.00  0.00    +0.200 HD
ATOM      4  H2  UNL     1       2.384   1.045  -1.767  0.00  0.00    +0.200 HD
ATOM      5  H3  UNL     1       3.192  -0.456  -1.749  0.00  0.00    +0.200 HD
ENDBRANCH   1   2
BRANCH   1   6
ATOM      6  C   UNL     1       3.023  -1.520   0.268  0.00  0.00    +0.094 C 
ATOM      7  OXT UNL     1       3.556  -1.924  -0.822  0.00  0.00    -0.544 OA
ATOM      8  O   UNL     1       2.820  -2.081   1.366  0.00  0.00    -0.544 OA
ENDBRANCH   1   6
BRANCH   1   9
ATOM      9  C   UNL     1       2.914   0.872   1.206  0.00  0.00    +0.025 C 
ATOM     10  C   UNL     1       3.148   2.192   1.137  0.00  0.00    +0.010 C 
ENDBRANCH   1   9
TORSDOF 3
