REMARK  Name = 
REMARK  3 active torsions:
REMARK  status: ('A' for Active; 'I' for Inactive)
REMARK    1  A    between atoms: C_1  and  N_2
REMARK    2  A    between atoms: C_10  and  C_21
REMARK    3  A    between atoms: C_12  and  C_13
REMARK                            x       y       z     vdW  Elec       q    Type
REMARK                         _______ _______ _______ _____ _____    ______ ____
ROOT
ATOM      1  C   UNL     1       1.233  -0.441  -0.436  0.00  0.00    +0.138 C 
ATOM      2  N   UNL     1       2.508   0.046   0.058  0.00  0.00    -0.273 N 
ATOM      3  C   UNL     1       3.179   0.937  -0.762  0.00  0.00    +0.237 C 
ATOM      4  O   UNL     1       2.965   0.989  -1.977  0.00  0.00    -0.274 OA
ATOM      5  C   UNL     1       3.961   2.055  -0.088  0.00  0.00    +0.208 C 
ATOM      6  N   UNL     1       4.493   2.027   1.272  0.00  0.00    -0.243 N 
ATOM      7  C   UNL     1       3.803   1.253   2.364  0.00  0.00    +0.235 C 
ATOM      8  O   UNL     1       4.519   1.422   3.636  0.00  0.00    -0.464 OA
ATOM      9  C   UNL     1       5.812   1.921   3.445  0.00  0.00    +0.103 C 
ATOM     10  C   UNL     1       5.841   3.169   2.972  0.00  0.00    +0.108 C 
ATOM     11  C   UNL     1       6.858   0.917   3.007  0.00  0.00    +0.086 C 
ATOM     12  C   UNL     1       3.866  -0.264   2.060  0.00  0.00    +0.042 A 
ATOM     13  C   UNL     1       4.456  -1.178   2.973  0.00  0.00    +0.031 A 
ATOM     14  C   UNL     1       4.554  -2.537   2.688  0.00  0.00    +0.042 A 
ATOM     15  C   UNL     1       4.006  -3.037   1.521  0.00  0.00    +0.022 A 
ATOM     16  C   UNL     1       3.334  -2.174   0.652  0.00  0.00    +0.025 A 
ATOM     17 CL   UNL     1       5.372  -3.579   3.782  0.00  0.00    -0.084 Cl
ATOM     18  C   UNL     1       5.369   3.074   1.568  0.00  0.00    +0.246 C 
ATOM     19  O   UNL     1       5.734   3.921   0.759  0.00  0.00    -0.270 OA
ATOM     20  C   UNL     1       3.264  -0.792   0.911  0.00  0.00    +0.045 A 
ENDROOT
BRANCH   7  21
ATOM     21  C   UNL     1       2.337   1.738   2.602  0.00  0.00    +0.019 A 
ATOM     22  C   UNL     1       1.899   3.015   2.202  0.00  0.00    +0.009 A 
ATOM     23  C   UNL     1       0.537   3.333   2.146  0.00  0.00    +0.000 A 
ATOM     24  C   UNL     1      -0.416   2.407   2.555  0.00  0.00    +0.000 A 
ATOM     25  C   UNL     1      -0.005   1.185   3.075  0.00  0.00    +0.000 A 
ATOM     26  C   UNL     1       1.355   0.863   3.118  0.00  0.00    +0.009 A 
ENDBRANCH   7  21
TORSDOF 1
