REMARK  Name = 
REMARK  23 active torsions:
REMARK  status: ('A' for Active; 'I' for Inactive)
REMARK    1  A    between atoms: C_1  and  O_2
REMARK    2  A    between atoms: O_2  and  C_3
REMARK    3  A    between atoms: C_3  and  C_5
REMARK    4  A    between atoms: C_11  and  C_13
REMARK    5  A    between atoms: C_13  and  C_15
REMARK    6  A    between atoms: C_13  and  N_16
REMARK    7  A    between atoms: N_16  and  P_17
REMARK    8  A    between atoms: P_17  and  O_18
REMARK    9  A    between atoms: P_17  and  C_20
REMARK   10  A    between atoms: C_20  and  C_22
REMARK   11  A    between atoms: C_20  and  N_29
REMARK   12  A    between atoms: C_22  and  C_23
REMARK   13  A    between atoms: C_30  and  C_32
REMARK   14  A    between atoms: C_32  and  C_34
REMARK   15  A    between atoms: C_32  and  N_42
REMARK   16  A    between atoms: C_34  and  C_35
REMARK   17  A    between atoms: C_35  and  C_36
REMARK   18  A    between atoms: C_36  and  C_37
REMARK   19  A    between atoms: C_37  and  N_38
REMARK   20  A    between atoms: C_43  and  C_45
REMARK   21  A    between atoms: C_51  and  O_53
REMARK   22  A    between atoms: O_53  and  C_54
REMARK   23  A    between atoms: C_54  and  C_55
REMARK                            x       y       z     vdW  Elec       q    Type
REMARK                         _______ _______ _______ _____ _____    ______ ____
ROOT
ATOM      1  N   UNL     1     -12.419   2.014   2.037  0.00  0.00    -0.301 N 
ATOM      2  H   UNL     1     -12.841   1.135   1.718  0.00  0.00    +0.150 HD
ATOM      3  C   UNL     1     -11.381   1.783   2.894  0.00  0.00    +0.234 C 
ATOM      4  O   UNL     1     -11.035   2.555   3.768  0.00  0.00    -0.274 OA
ENDROOT
BRANCH   3   5
ATOM      5  C   UNL     1     -10.655   0.423   2.731  0.00  0.00    +0.159 C 
BRANCH   5   6
ATOM      6  N   UNL     1     -11.146  -0.598   3.664  0.00  0.00    -0.302 N 
ATOM      7  H   UNL     1     -10.505  -1.320   3.986  0.00  0.00    +0.150 HD
ATOM      8  C   UNL     1     -12.474  -0.948   3.729  0.00  0.00    +0.234 C 
ATOM      9  O   UNL     1     -13.319  -0.374   3.044  0.00  0.00    -0.274 OA
BRANCH   8  10
ATOM     10  C   UNL     1     -12.794  -2.203   4.576  0.00  0.00    +0.165 C 
ATOM     11  N   UNL     1     -12.108  -2.250   5.867  0.00  0.00    -0.256 N 
ATOM     12  C   UNL     1     -10.901  -2.875   6.046  0.00  0.00    +0.404 C 
ATOM     13  O   UNL     1     -10.173  -3.195   5.111  0.00  0.00    -0.226 OA
ATOM     14  C   UNL     1     -13.002  -1.886   6.957  0.00  0.00    +0.112 C 
ATOM     15  C   UNL     1     -14.278  -1.424   6.268  0.00  0.00    +0.021 C 
ATOM     16  C   UNL     1     -14.271  -2.232   4.973  0.00  0.00    +0.033 C 
BRANCH  12  17
ATOM     17  O   UNL     1     -10.644  -3.090   7.361  0.00  0.00    -0.445 OA
BRANCH  17  18
ATOM     18  C   UNL     1      -9.422  -3.765   7.696  0.00  0.00    +0.269 C 
BRANCH  18  19
ATOM     19  C   UNL     1      -8.240  -2.831   7.641  0.00  0.00    -0.010 A 
ATOM     20  C   UNL     1      -6.971  -3.320   7.302  0.00  0.00    +0.007 A 
ATOM     21  C   UNL     1      -5.880  -2.453   7.219  0.00  0.00    +0.000 A 
ATOM     22  C   UNL     1      -6.045  -1.095   7.489  0.00  0.00    +0.000 A 
ATOM     23  C   UNL     1      -7.292  -0.606   7.868  0.00  0.00    +0.000 A 
ATOM     24  C   UNL     1      -8.381  -1.472   7.958  0.00  0.00    +0.007 A 
ENDBRANCH  18  19
ENDBRANCH  17  18
ENDBRANCH  12  17
ENDBRANCH   8  10
ENDBRANCH   5   6
BRANCH   5  25
ATOM     25  C   UNL     1      -9.164   0.706   3.018  0.00  0.00    +0.032 C 
BRANCH  25  26
ATOM     26  C   UNL     1      -8.211  -0.460   2.787  0.00  0.00    +0.007 C 
BRANCH  26  27
ATOM     27  C   UNL     1      -8.189  -0.932   1.339  0.00  0.00    +0.051 C 
BRANCH  27  28
ATOM     28  C   UNL     1      -7.228  -2.099   1.198  0.00  0.00    +0.127 C 
BRANCH  28  29
ATOM     29  N   UNL     1      -7.225  -2.554  -0.209  0.00  0.00    +0.219 N 
ATOM     30  H   UNL     1      -6.528  -3.296  -0.348  0.00  0.00    +0.199 HD
ATOM     31  H   UNL     1      -6.994  -1.788  -0.856  0.00  0.00    +0.199 HD
ATOM     32  H   UNL     1      -8.140  -2.934  -0.486  0.00  0.00    +0.199 HD
ENDBRANCH  28  29
ENDBRANCH  27  28
ENDBRANCH  26  27
ENDBRANCH  25  26
ENDBRANCH   5  25
ENDBRANCH   3   5
BRANCH   1  33
ATOM     33  C   UNL     1     -13.455   3.080   2.149  0.00  0.00    +0.179 C 
BRANCH  33  34
ATOM     34  P   UNL     1     -13.078   4.707   2.890  0.00  0.00    +0.290 P 
ATOM     35  O   UNL     1     -13.866   5.807   2.232  0.00  0.00    -0.271 OA
BRANCH  34  36
ATOM     36  O   UNL     1     -11.537   5.047   2.597  0.00  0.00    -0.332 OA
ATOM     37  H   UNL     1     -11.382   6.008   2.669  0.00  0.00    +0.219 HD
ENDBRANCH  34  36
BRANCH  34  38
ATOM     38  N   UNL     1     -13.325   4.758   4.500  0.00  0.00    -0.233 NA
ATOM     39  H   UNL     1     -13.345   5.708   4.859  0.00  0.00    +0.132 HD
BRANCH  38  40
ATOM     40  C   UNL     1     -12.741   3.886   5.512  0.00  0.00    +0.145 C 
ATOM     41  C   UNL     1     -11.296   4.308   5.829  0.00  0.00    +0.034 C 
BRANCH  40  44
ATOM     42  C   UNL     1     -15.669   2.921   5.860  0.00  0.00    +0.185 C 
ATOM     43  N   UNL     1     -14.878   3.646   6.863  0.00  0.00    -0.287 N 
ATOM     44  C   UNL     1     -13.552   4.014   6.828  0.00  0.00    +0.233 C 
ATOM     45  O   UNL     1     -13.014   4.429   7.862  0.00  0.00    -0.274 OA
ATOM     46  C   UNL     1     -15.596   3.766   8.120  0.00  0.00    +0.109 C 
ATOM     47  C   UNL     1     -17.007   3.307   7.819  0.00  0.00    +0.021 C 
ATOM     48  C   UNL     1     -16.796   2.290   6.700  0.00  0.00    +0.035 C 
BRANCH  42  49
ATOM     49  C   UNL     1     -16.338   3.755   4.758  0.00  0.00    +0.328 C 
ATOM     50  O   UNL     1     -16.826   3.242   3.756  0.00  0.00    -0.249 OA
BRANCH  49  52
ATOM     51  C   UNL     1     -17.194   5.891   4.197  0.00  0.00    +0.280 C 
ATOM     52  O   UNL     1     -16.437   5.068   5.089  0.00  0.00    -0.467 OA
ENDBRANCH  49  52
ENDBRANCH  42  49
ENDBRANCH  40  44
ENDBRANCH  38  40
ENDBRANCH  34  38
ENDBRANCH  33  34
BRANCH  33  53
ATOM     53  C   UNL     1     -14.078   3.294   0.743  0.00  0.00    +0.068 C 
BRANCH  53  54
ATOM     54  C   UNL     1     -14.751   2.054   0.201  0.00  0.00    -0.045 A 
ATOM     55  C   UNL     1     -14.228   1.374  -0.905  0.00  0.00    +0.004 A 
ATOM     56  C   UNL     1     -14.828   0.195  -1.351  0.00  0.00    +0.000 A 
ATOM     57  C   UNL     1     -15.955  -0.308  -0.703  0.00  0.00    +0.000 A 
ATOM     58  C   UNL     1     -16.495   0.375   0.383  0.00  0.00    +0.000 A 
ATOM     59  C   UNL     1     -15.903   1.556   0.824  0.00  0.00    +0.004 A 
ENDBRANCH  53  54
ENDBRANCH  33  53
ENDBRANCH   1  33
TORSDOF 21
