REMARK  Name = 
REMARK  5 active torsions:
REMARK  status: ('A' for Active; 'I' for Inactive)
REMARK    1  A    between atoms: C_2  and  C_8
REMARK    2  A    between atoms: C_10  and  O_11
REMARK    3  A    between atoms: O_11  and  C_12
REMARK    4  A    between atoms: C_17  and  O_18
REMARK    5  A    between atoms: O_18  and  C_19
REMARK                            x       y       z     vdW  Elec       q    Type
REMARK                         _______ _______ _______ _____ _____    ______ ____
ROOT
ATOM      1  C   UNL     1       2.537   0.148  -1.372  0.00  0.00    -0.039 A 
ATOM      2  C   UNL     1       2.737  -0.965  -2.196  0.00  0.00    +0.008 A 
ATOM      3  C   UNL     1       2.972  -0.816  -3.565  0.00  0.00    +0.049 A 
ATOM      4  C   UNL     1       2.996   0.453  -4.146  0.00  0.00    +0.162 A 
ATOM      5  C   UNL     1       2.809   1.587  -3.333  0.00  0.00    +0.163 A 
ATOM      6  C   UNL     1       2.578   1.426  -1.960  0.00  0.00    +0.053 A 
ENDROOT
BRANCH   1   7
ATOM      7  C   UNL     1       2.207   0.022   0.112  0.00  0.00    +0.045 C 
ATOM      8  C   UNL     1       0.704  -0.219   0.331  0.00  0.00    +0.105 C 
ATOM      9  C   UNL     1       0.607  -1.721   0.456  0.00  0.00    +0.214 C 
ATOM     10  O   UNL     1      -0.408  -2.391   0.406  0.00  0.00    -0.276 OA
ATOM     11  N   UNL     1       1.870  -2.216   0.708  0.00  0.00    -0.315 N 
ATOM     12  H   UNL     1       2.010  -3.198   0.916  0.00  0.00    +0.149 HD
ATOM     13  C   UNL     1       2.845  -1.172   0.832  0.00  0.00    +0.112 C 
ENDBRANCH   1   7
BRANCH   4  14
ATOM     14  O   UNL     1       3.195   0.689  -5.484  0.00  0.00    -0.491 OA
ATOM     15  C   UNL     1       3.364  -0.441  -6.329  0.00  0.00    +0.277 C 
ENDBRANCH   4  14
BRANCH   5  16
ATOM     16  O   UNL     1       2.797   2.798  -3.978  0.00  0.00    -0.485 OA
BRANCH  16  17
ATOM     17  C   UNL     1       3.153   3.965  -3.249  0.00  0.00    +0.174 C 
ATOM     18  C   UNL     1       1.933   4.699  -2.688  0.00  0.00    +0.044 C 
ATOM     19  C   UNL     1       2.256   6.191  -2.766  0.00  0.00    +0.004 C 
ATOM     20  C   UNL     1       3.597   6.301  -3.482  0.00  0.00    +0.004 C 
ATOM     21  C   UNL     1       3.733   4.987  -4.228  0.00  0.00    +0.044 C 
ENDBRANCH  16  17
ENDBRANCH   5  16
TORSDOF 4
