REMARK  Name = 
REMARK  1 active torsions:
REMARK  status: ('A' for Active; 'I' for Inactive)
REMARK    1  A    between atoms: C_2  and  C_4
REMARK                            x       y       z     vdW  Elec       q    Type
REMARK                         _______ _______ _______ _____ _____    ______ ____
ROOT
ATOM      1  C   UNL     1       3.157  -1.167   0.788  0.00  0.00    +0.056 A 
ATOM      2  C   UNL     1       2.782  -2.501   0.617  0.00  0.00    +0.031 A 
ATOM      3  C   UNL     1       3.451  -3.484   1.341  0.00  0.00    +0.037 A 
ATOM      4 BR   UNL     1       2.984  -5.300   1.143  0.00  0.00    -0.049 Br
ATOM      5  C   UNL     1       4.468  -3.104   2.205  0.00  0.00    +0.126 A 
ATOM      6  N   UNL     1       4.862  -1.820   2.380  0.00  0.00    -0.261 NA
ATOM      7  C   UNL     1       4.204  -0.879   1.657  0.00  0.00    +0.123 A 
ENDROOT
BRANCH   1  11
ATOM      8  N   UNL     1       1.205  -0.227  -0.313  0.00  0.00    -0.325 N 
ATOM      9  H   UNL     1       0.618  -0.966   0.048  0.00  0.00    +0.145 HD
ATOM     10  H   UNL     1       0.741   0.584  -0.705  0.00  0.00    +0.145 HD
ATOM     11  C   UNL     1       2.504  -0.051   0.074  0.00  0.00    +0.243 C 
ATOM     12  O   UNL     1       3.089   1.003  -0.133  0.00  0.00    -0.270 OA
ENDBRANCH   1  11
TORSDOF 1
