REMARK  Name = 
REMARK  10 active torsions:
REMARK  status: ('A' for Active; 'I' for Inactive)
REMARK    1  A    between atoms: C_1  and  O_2
REMARK    2  A    between atoms: O_2  and  C_3
REMARK    3  A    between atoms: C_7  and  O_8
REMARK    4  A    between atoms: O_8  and  C_9
REMARK    5  A    between atoms: C_10  and  O_11
REMARK    6  A    between atoms: O_11  and  C_12
REMARK    7  A    between atoms: C_16  and  O_17
REMARK    8  A    between atoms: O_17  and  C_18
REMARK    9  A    between atoms: C_23  and  N_26
REMARK   10  A    between atoms: C_27  and  C_28
REMARK                            x       y       z     vdW  Elec       q    Type
REMARK                         _______ _______ _______ _____ _____    ______ ____
ROOT
ATOM      1  C   UNL     1       2.859  -0.875   0.925  0.00  0.00    +0.165 A 
ATOM      2  C   UNL     1       2.792  -2.271   0.979  0.00  0.00    +0.204 A 
ATOM      3  C   UNL     1       3.436  -2.972   2.059  0.00  0.00    +0.173 A 
ATOM      4  C   UNL     1       4.152  -2.278   3.113  0.00  0.00    +0.031 A 
ATOM      5  C   UNL     1       4.616  -3.006   4.412  0.00  0.00    -0.009 A 
ATOM      6  C   UNL     1       5.872  -2.698   5.255  0.00  0.00    -0.016 A 
ATOM      7  C   UNL     1       6.346  -1.249   5.295  0.00  0.00    +0.104 C 
ATOM      8  C   UNL     1       5.162  -0.290   5.201  0.00  0.00    +0.032 C 
ATOM      9  C   UNL     1       5.060   0.095   3.758  0.00  0.00    +0.038 C 
ATOM     10  C   UNL     1       6.561  -3.601   6.009  0.00  0.00    +0.060 A 
ATOM     11  C   UNL     1       6.291  -5.037   6.348  0.00  0.00    +0.221 A 
ATOM     12  O   UNL     1       7.118  -5.686   6.982  0.00  0.00    -0.284 OA
ATOM     13  C   UNL     1       4.994  -5.615   5.910  0.00  0.00    +0.167 A 
ATOM     14  C   UNL     1       3.968  -4.747   6.058  0.00  0.00    +0.050 A 
ATOM     15  C   UNL     1       3.717  -3.903   4.902  0.00  0.00    +0.012 A 
ATOM     16  C   UNL     1       4.289  -0.881   2.924  0.00  0.00    -0.032 A 
ATOM     17  C   UNL     1       3.674  -0.230   1.836  0.00  0.00    +0.054 A 
ENDROOT
BRANCH   7  18
ATOM     18  N   UNL     1       7.129  -0.820   6.467  0.00  0.00    -0.309 N 
ATOM     19  H   UNL     1       6.807  -1.090   7.388  0.00  0.00    +0.149 HD
ATOM     20  C   UNL     1       7.784   0.405   6.343  0.00  0.00    +0.210 C 
ATOM     21  O   UNL     1       7.915   0.982   5.264  0.00  0.00    -0.276 OA
ATOM     22  C   UNL     1       8.280   1.054   7.606  0.00  0.00    +0.109 C 
ENDBRANCH   7  18
BRANCH   1  24
ATOM     23  C   UNL     1       1.846   1.191   0.321  0.00  0.00    +0.277 C 
ATOM     24  O   UNL     1       2.150  -0.167  -0.007  0.00  0.00    -0.491 OA
ENDBRANCH   1  24
BRANCH   2  25
ATOM     25  O   UNL     1       2.081  -3.014   0.068  0.00  0.00    -0.488 OA
ATOM     26  C   UNL     1       1.880  -2.497  -1.240  0.00  0.00    +0.277 C 
ENDBRANCH   2  25
BRANCH   3  27
ATOM     27  O   UNL     1       3.479  -4.360   2.124  0.00  0.00    -0.491 OA
ATOM     28  C   UNL     1       2.401  -5.102   1.563  0.00  0.00    +0.277 C 
ENDBRANCH   3  27
BRANCH  13  29
ATOM     29  O   UNL     1       5.090  -6.693   5.062  0.00  0.00    -0.491 OA
ATOM     30  C   UNL     1       3.877  -7.192   4.525  0.00  0.00    +0.277 C 
ENDBRANCH  13  29
TORSDOF 5
