REMARK  Name = 
REMARK  6 active torsions:
REMARK  status: ('A' for Active; 'I' for Inactive)
REMARK    1  A    between atoms: C_2  and  O_3
REMARK    2  A    between atoms: N_5  and  C_6
REMARK    3  A    between atoms: C_9  and  O_10
REMARK    4  A    between atoms: O_10  and  C_11
REMARK    5  A    between atoms: C_20  and  S_22
REMARK    6  A    between atoms: S_22  and  N_23
REMARK                            x       y       z     vdW  Elec       q    Type
REMARK                         _______ _______ _______ _____ _____    ______ ____
ROOT
ATOM      1  C   UNL     1       2.114  -0.127   0.233  0.00  0.00    +0.166 C 
ATOM      2  C   UNL     1       2.555  -1.360  -0.502  0.00  0.00    +0.018 A 
ATOM      3  C   UNL     1       2.278  -2.723  -0.158  0.00  0.00    +0.044 A 
ATOM      4  C   UNL     1       2.845  -3.621  -1.046  0.00  0.00    +0.144 A 
ATOM      5  S   UNL     1       3.725  -2.818  -2.279  0.00  0.00    -0.048 S 
ATOM      6  C   UNL     1       3.321  -1.300  -1.645  0.00  0.00    +0.153 A 
ATOM      7  S   UNL     1       3.814   0.155  -2.515  0.00  0.00    +0.081 S 
ATOM      8  O   UNL     1       5.241   0.060  -2.724  0.00  0.00    -0.149 OA
ATOM      9  O   UNL     1       2.857   0.242  -3.595  0.00  0.00    -0.149 OA
ATOM     10  N   UNL     1       3.480   1.418  -1.379  0.00  0.00    -0.200 N 
ATOM     11  C   UNL     1       2.215   1.210  -0.573  0.00  0.00    +0.167 C 
ENDROOT
BRANCH  10  12
ATOM     12  C   UNL     1       3.593   2.723  -2.008  0.00  0.00    +0.052 A 
ATOM     13  C   UNL     1       4.830   3.369  -2.023  0.00  0.00    +0.028 A 
ATOM     14  C   UNL     1       4.984   4.593  -2.694  0.00  0.00    +0.047 A 
ATOM     15  C   UNL     1       3.908   5.163  -3.375  0.00  0.00    +0.120 A 
ATOM     16  C   UNL     1       2.689   4.489  -3.406  0.00  0.00    +0.047 A 
ATOM     17  C   UNL     1       2.532   3.276  -2.734  0.00  0.00    +0.028 A 
BRANCH  15  18
ATOM     18  O   UNL     1       3.940   6.317  -4.105  0.00  0.00    -0.495 OA
ATOM     19  C   UNL     1       4.868   7.308  -3.681  0.00  0.00    +0.277 C 
ENDBRANCH  15  18
ENDBRANCH  10  12
BRANCH   4  20
ATOM     20  S   UNL     1       2.843  -5.400  -1.121  0.00  0.00    +0.062 S 
ATOM     21  O   UNL     1       2.386  -5.744  -2.447  0.00  0.00    -0.153 OA
ATOM     22  O   UNL     1       2.155  -5.813   0.083  0.00  0.00    -0.153 OA
BRANCH  20  23
ATOM     23  N   UNL     1       4.440  -5.890  -0.971  0.00  0.00    -0.203 NA
ATOM     24  H   UNL     1       5.017  -5.579  -1.751  0.00  0.00    +0.144 HD
ATOM     25  H   UNL     1       4.820  -5.702  -0.045  0.00  0.00    +0.144 HD
ENDBRANCH  20  23
ENDBRANCH   4  20
BRANCH   1  26
ATOM     26  O   UNL     1       2.838  -0.032   1.459  0.00  0.00    -0.385 OA
ATOM     27  H   UNL     1       2.387   0.624   2.018  0.00  0.00    +0.210 HD
ENDBRANCH   1  26
TORSDOF 5
