REMARK  Name = 
REMARK  6 active torsions:
REMARK  status: ('A' for Active; 'I' for Inactive)
REMARK    1  A    between atoms: C_1  and  C_2
REMARK    2  A    between atoms: C_3  and  C_4
REMARK    3  A    between atoms: C_4  and  C_5
REMARK    4  A    between atoms: C_5  and  N_6
REMARK    5  A    between atoms: C_9  and  C_12
REMARK    6  A    between atoms: C_28  and  O_29
REMARK                            x       y       z     vdW  Elec       q    Type
REMARK                         _______ _______ _______ _____ _____    ______ ____
ROOT
ATOM      1  C   UNL     1       1.111  -2.582   0.602  0.00  0.00    +0.089 C 
ENDROOT
BRANCH   1   2
ATOM      2  N   UNL     1       0.123  -3.564   0.123  0.00  0.00    -0.302 NA
ATOM      3  C   UNL     1      -1.262  -3.256   0.541  0.00  0.00    +0.085 C 
ATOM      4  C   UNL     1      -1.685  -3.734   1.946  0.00  0.00    +0.025 C 
ATOM      5  C   UNL     1      -1.177  -5.129   2.345  0.00  0.00    +0.044 C 
ATOM      6  C   UNL     1       0.297  -5.257   1.937  0.00  0.00    +0.025 C 
ATOM      7  C   UNL     1       0.449  -4.953   0.450  0.00  0.00    +0.085 C 
BRANCH   5   8
ATOM      8  C   UNL     1      -1.927  -6.326   1.814  0.00  0.00    +0.094 A 
ATOM      9  C   UNL     1      -1.791  -7.661   2.295  0.00  0.00    +0.045 A 
ATOM     10  C   UNL     1      -1.194  -8.298   3.399  0.00  0.00    +0.016 A 
ATOM     11  C   UNL     1      -1.145  -9.697   3.410  0.00  0.00    +0.039 A 
ATOM     12  C   UNL     1      -1.658 -10.433   2.342  0.00  0.00    +0.127 A 
ATOM     13  C   UNL     1      -2.268  -9.826   1.244  0.00  0.00    +0.088 A 
ATOM     14  F   UNL     1      -1.551 -11.768   2.369  0.00  0.00    -0.205 F 
ATOM     15  C   UNL     1      -2.320  -8.436   1.278  0.00  0.00    +0.170 A 
ATOM     16  O   UNL     1      -2.851  -7.620   0.328  0.00  0.00    -0.354 OA
ATOM     17  N   UNL     1      -2.624  -6.293   0.670  0.00  0.00    -0.082 NA
ENDBRANCH   5   8
ENDBRANCH   1   2
BRANCH   1  18
ATOM     18  C   UNL     1       2.573  -2.818   0.128  0.00  0.00    +0.058 C 
BRANCH  18  30
ATOM     19  C   UNL     1       2.924  -4.540  -2.517  0.00  0.00    +0.066 C 
ATOM     20  C   UNL     1       3.037  -3.043  -2.400  0.00  0.00    +0.049 A 
ATOM     21  N   UNL     1       3.323  -2.475  -3.614  0.00  0.00    -0.236 NA
ATOM     22  C   UNL     1       3.485  -1.198  -3.701  0.00  0.00    +0.141 A 
ATOM     23  N   UNL     1       3.426  -0.358  -2.615  0.00  0.00    -0.294 N 
ATOM     24  C   UNL     1       3.499   1.093  -2.727  0.00  0.00    +0.127 C 
ATOM     25  C   UNL     1       4.121   1.603  -4.014  0.00  0.00    +0.025 C 
ATOM     26  C   UNL     1       3.512   0.864  -5.193  0.00  0.00    +0.041 C 
ATOM     27  C   UNL     1       3.071  -0.855  -1.376  0.00  0.00    +0.258 A 
ATOM     28  O   UNL     1       2.916  -0.140  -0.385  0.00  0.00    -0.267 OA
ATOM     29  C   UNL     1       3.830  -0.617  -5.079  0.00  0.00    +0.180 C 
ATOM     30  C   UNL     1       2.870  -2.328  -1.272  0.00  0.00    +0.039 A 
BRANCH  29  31
ATOM     31  O   UNL     1       5.199  -0.831  -5.413  0.00  0.00    -0.384 OA
ATOM     32  H   UNL     1       5.735  -0.680  -4.616  0.00  0.00    +0.210 HD
ENDBRANCH  29  31
ENDBRANCH  18  30
ENDBRANCH   1  18
TORSDOF 5
