REMARK  Name = 
REMARK  0 active torsions:
REMARK  status: ('A' for Active; 'I' for Inactive)
REMARK                            x       y       z     vdW  Elec       q    Type
REMARK                         _______ _______ _______ _____ _____    ______ ____
ROOT
ATOM      1  S   UNL     1       0.838   0.033   0.066  0.00  0.00    -0.028 S 
ATOM      2  C   UNL     1       2.508   0.089   0.061  0.00  0.00    +0.136 A 
ATOM      3  C   UNL     1       3.255  -1.134   0.060  0.00  0.00    +0.116 A 
ATOM      4  N   UNL     1       2.889  -2.453   0.063  0.00  0.00    -0.341 N 
ATOM      5  H   UNL     1       1.942  -2.811   0.066  0.00  0.00    +0.167 HD
ATOM      6  C   UNL     1       4.046  -3.192   0.060  0.00  0.00    +0.199 A 
ATOM      7  N   UNL     1       5.120  -2.426   0.056  0.00  0.00    -0.218 NA
ATOM      8  C   UNL     1       4.621  -1.169   0.056  0.00  0.00    +0.160 A 
ATOM      9  N   UNL     1       5.327  -0.040   0.052  0.00  0.00    -0.329 N 
ATOM     10  H   UNL     1       6.337  -0.030   0.049  0.00  0.00    +0.168 HD
ATOM     11  C   UNL     1       4.577   1.108   0.053  0.00  0.00    +0.199 A 
ATOM     12  N   UNL     1       3.284   1.235   0.057  0.00  0.00    -0.228 NA
ENDROOT
TORSDOF 0
