REMARK  Name = 
REMARK  5 active torsions:
REMARK  status: ('A' for Active; 'I' for Inactive)
REMARK    1  A    between atoms: C_1  and  O_2
REMARK    2  A    between atoms: O_2  and  C_3
REMARK    3  A    between atoms: C_6  and  C_7
REMARK    4  A    between atoms: C_7  and  N_8
REMARK    5  A    between atoms: C_15  and  N_17
REMARK                            x       y       z     vdW  Elec       q    Type
REMARK                         _______ _______ _______ _____ _____    ______ ____
ROOT
ATOM      1  N   UNL     1       4.567  -3.248  -5.118  0.00  0.00    -0.295 N 
ATOM      2  H   UNL     1       3.696  -3.732  -4.967  0.00  0.00    +0.151 HD
ATOM      3  C   UNL     1       5.416  -3.777  -6.072  0.00  0.00    +0.306 C 
ATOM      4  N   UNL     1       5.317  -5.145  -6.121  0.00  0.00    -0.248 N 
ATOM      5  H   UNL     1       4.832  -5.623  -5.380  0.00  0.00    +0.158 HD
ATOM      6  C   UNL     1       6.090  -5.895  -6.960  0.00  0.00    +0.172 A 
ATOM      7  S   UNL     1       6.056  -7.571  -6.618  0.00  0.00    +0.022 S 
ATOM      8  C   UNL     1       7.172  -7.813  -7.879  0.00  0.00    +0.332 A 
ATOM      9  C   UNL     1       7.473  -6.626  -8.503  0.00  0.00    +0.205 A 
ATOM     10  N   UNL     1       6.839  -5.520  -7.966  0.00  0.00    -0.226 NA
ATOM     11  O   UNL     1       6.174  -3.075  -6.729  0.00  0.00    -0.252 OA
ENDROOT
BRANCH   8  12
ATOM     12  N   UNL     1       7.684  -9.107  -8.193  0.00  0.00    +0.089 N 
ATOM     13  O   UNL     1       7.349 -10.056  -7.476  0.00  0.00    +0.042 OA
ATOM     14  O   UNL     1       8.438  -9.174  -9.172  0.00  0.00    -0.576 OA
ENDBRANCH   8  12
BRANCH   1  15
ATOM     15  C   UNL     1       4.532  -1.814  -4.932  0.00  0.00    +0.141 C 
BRANCH  15  19
ATOM     16  C   UNL     1       3.415  -0.485  -0.982  0.00  0.00    +0.120 A 
ATOM     17  C   UNL     1       2.657  -0.107  -2.090  0.00  0.00    +0.046 A 
ATOM     18  C   UNL     1       2.994  -0.574  -3.365  0.00  0.00    +0.009 A 
ATOM     19  C   UNL     1       4.086  -1.429  -3.546  0.00  0.00    -0.030 A 
ATOM     20  C   UNL     1       4.811  -1.846  -2.419  0.00  0.00    +0.009 A 
ATOM     21  C   UNL     1       4.469  -1.384  -1.146  0.00  0.00    +0.046 A 
BRANCH  16  23
ATOM     22  C   UNL     1       2.733   1.293   0.394  0.00  0.00    +0.277 C 
ATOM     23  O   UNL     1       3.181  -0.056   0.296  0.00  0.00    -0.495 OA
ENDBRANCH  16  23
ENDBRANCH  15  19
ENDBRANCH   1  15
TORSDOF 4
