REMARK  Name = 
REMARK  6 active torsions:
REMARK  status: ('A' for Active; 'I' for Inactive)
REMARK    1  A    between atoms: C_1  and  O_2
REMARK    2  A    between atoms: O_2  and  C_3
REMARK    3  A    between atoms: C_9  and  C_10
REMARK    4  A    between atoms: C_10  and  C_11
REMARK    5  A    between atoms: C_11  and  N_12
REMARK    6  A    between atoms: C_13  and  C_14
REMARK                            x       y       z     vdW  Elec       q    Type
REMARK                         _______ _______ _______ _____ _____    ______ ____
ROOT
ATOM      1  C   UNL     1       3.140   1.128  -0.617  0.00  0.00    +0.121 A 
ATOM      2  C   UNL     1       4.222   0.956  -1.479  0.00  0.00    +0.047 A 
ATOM      3  C   UNL     1       4.847   2.047  -2.088  0.00  0.00    +0.030 A 
ATOM      4  C   UNL     1       4.356   3.322  -1.787  0.00  0.00    +0.047 A 
ATOM      5  N   UNL     1       4.770   4.553  -2.232  0.00  0.00    -0.360 N 
ATOM      6  H   UNL     1       5.530   4.700  -2.882  0.00  0.00    +0.165 HD
ATOM      7  C   UNL     1       4.014   5.542  -1.662  0.00  0.00    +0.087 A 
ATOM      8  C   UNL     1       3.068   4.958  -0.840  0.00  0.00    -0.021 A 
ATOM      9  C   UNL     1       3.289   3.539  -0.915  0.00  0.00    +0.006 A 
ATOM     10  C   UNL     1       2.678   2.415  -0.314  0.00  0.00    +0.056 A 
ENDROOT
BRANCH   1  12
ATOM     11  C   UNL     1       1.246   0.020   0.251  0.00  0.00    +0.277 C 
ATOM     12  O   UNL     1       2.627  -0.030  -0.090  0.00  0.00    -0.495 OA
ENDBRANCH   1  12
BRANCH   8  13
ATOM     13  C   UNL     1       2.023   5.659  -0.014  0.00  0.00    +0.056 C 
BRANCH  13  14
ATOM     14  C   UNL     1       1.507   6.956  -0.652  0.00  0.00    +0.109 C 
BRANCH  14  15
ATOM     15  N   UNL     1       0.552   7.688   0.165  0.00  0.00    -0.315 N 
ATOM     16  H   UNL     1       0.760   8.657   0.370  0.00  0.00    +0.149 HD
ATOM     17  C   UNL     1      -0.733   7.240   0.349  0.00  0.00    +0.210 C 
ATOM     18  O   UNL     1      -1.137   6.148  -0.033  0.00  0.00    -0.276 OA
ATOM     19  C   UNL     1      -1.629   8.205   1.083  0.00  0.00    +0.109 C 
ENDBRANCH  14  15
ENDBRANCH  13  14
ENDBRANCH   8  13
TORSDOF 4
