REMARK  Name = 
REMARK  4 active torsions:
REMARK  status: ('A' for Active; 'I' for Inactive)
REMARK    1  A    between atoms: C_5  and  O_6
REMARK    2  A    between atoms: O_6  and  C_7
REMARK    3  A    between atoms: N_15  and  C_16
REMARK    4  A    between atoms: C_24  and  O_26
REMARK                            x       y       z     vdW  Elec       q    Type
REMARK                         _______ _______ _______ _____ _____    ______ ____
ROOT
ATOM      1  C   UNL     1      -0.250  -0.223  -0.167  0.00  0.00    +0.213 C 
ATOM      2  C   UNL     1      -0.250  -0.223  -0.167  0.00  0.00    +0.156 C 
ATOM      3  C   UNL     1      -0.250  -0.223  -0.167  0.00  0.00    +0.035 C 
ATOM      4  C   UNL     1      -0.250  -0.223  -0.167  0.00  0.00    +0.009 C 
ATOM      5  C   UNL     1      -0.250  -0.223  -0.167  0.00  0.00    +0.021 C 
ATOM      6  C   UNL     1       1.558  -0.369  -0.288  0.00  0.00    +0.065 C 
ATOM      7  C   UNL     1      -0.250  -0.223  -0.167  0.00  0.00    +0.054 C 
ATOM      8  C   UNL     1      -0.250  -0.223  -0.167  0.00  0.00    -0.038 A 
ATOM      9  C   UNL     1      -0.250  -0.223  -0.167  0.00  0.00    +0.011 A 
ATOM     10  C   UNL     1      -0.250  -0.223  -0.167  0.00  0.00    +0.167 A 
ATOM     11  C   UNL     1      -0.250  -0.223  -0.167  0.00  0.00    +0.162 A 
ATOM     12  C   UNL     1       0.423   1.979  -0.270  0.00  0.00    +0.050 A 
ATOM     13  C   UNL     1       1.528   1.366   0.054  0.00  0.00    +0.008 A 
ATOM     14  N   UNL     1      -0.344   0.394   1.891  0.00  0.00    -0.302 NA
ATOM     15  C   UNL     1      -0.276   2.634   2.739  0.00  0.00    +0.105 C 
ATOM     16  C   UNL     1      -0.250  -0.223  -0.167  0.00  0.00    +0.085 C 
ATOM     17  C   UNL     1      -0.250  -0.223  -0.167  0.00  0.00    +0.031 C 
ATOM     18  C   UNL     1      -0.250  -0.223  -0.167  0.00  0.00    +0.044 C 
ATOM     19  O   UNL     1      -0.250  -0.223  -0.167  0.00  0.00    -0.481 OA
ENDROOT
BRANCH   2  20
ATOM     20  O   UNL     1      -0.250  -0.223  -0.167  0.00  0.00    -0.388 OA
ATOM     21  H   UNL     1       0.000   0.000   0.000  0.00  0.00    +0.210 HD
ENDBRANCH   2  20
BRANCH  11  22
ATOM     22  O   UNL     1      -0.250  -0.223  -0.167  0.00  0.00    -0.491 OA
ATOM     23  C   UNL     1      -0.250  -0.223  -0.167  0.00  0.00    +0.277 C 
ENDBRANCH  11  22
TORSDOF 2
