REMARK  Name = 
REMARK  11 active torsions:
REMARK  status: ('A' for Active; 'I' for Inactive)
REMARK    1  A    between atoms: C_1  and  C_2
REMARK    2  A    between atoms: C_2  and  O_3
REMARK    3  A    between atoms: O_3  and  C_4
REMARK    4  A    between atoms: C_4  and  C_6
REMARK    5  A    between atoms: C_6  and  C_18
REMARK    6  A    between atoms: N_9  and  C_10
REMARK    7  A    between atoms: C_10  and  C_11
REMARK    8  A    between atoms: C_11  and  O_12
REMARK    9  A    between atoms: O_12  and  C_13
REMARK   10  A    between atoms: C_13  and  C_14
REMARK   11  A    between atoms: C_14  and  O_15
REMARK                            x       y       z     vdW  Elec       q    Type
REMARK                         _______ _______ _______ _____ _____    ______ ____
ROOT
ATOM      1  C   UNL     1       4.785  -1.404   2.596  0.00  0.00    +0.095 C 
ATOM      2  C   UNL     1       6.315  -1.610   2.416  0.00  0.00    +0.038 C 
ATOM      3  C   UNL     1       6.653  -2.556   1.258  0.00  0.00    +0.086 C 
ATOM      4  N   UNL     1       5.982  -3.860   1.348  0.00  0.00    -0.300 NA
ATOM      5  C   UNL     1       4.531  -3.663   1.411  0.00  0.00    +0.086 C 
ATOM      6  C   UNL     1       4.103  -2.802   2.599  0.00  0.00    +0.038 C 
ENDROOT
BRANCH   1   7
ATOM      7  C   UNL     1       4.518  -0.600   3.894  0.00  0.00    -0.031 A 
ATOM      8  C   UNL     1       5.101   0.673   4.062  0.00  0.00    +0.005 A 
ATOM      9  C   UNL     1       4.861   1.440   5.206  0.00  0.00    +0.000 A 
ATOM     10  C   UNL     1       4.036   0.950   6.211  0.00  0.00    +0.000 A 
ATOM     11  C   UNL     1       3.446  -0.301   6.070  0.00  0.00    +0.000 A 
ATOM     12  C   UNL     1       3.679  -1.064   4.922  0.00  0.00    +0.005 A 
ENDBRANCH   1   7
BRANCH   1  13
ATOM     13  C   UNL     1       4.267  -0.553   1.410  0.00  0.00    +0.318 C 
ATOM     14  O   UNL     1       4.919   0.319   0.848  0.00  0.00    -0.250 OA
BRANCH  13  15
ATOM     15  O   UNL     1       2.949  -0.802   1.168  0.00  0.00    -0.464 OA
BRANCH  15  17
ATOM     16  C   UNL     1       1.677   1.174   1.528  0.00  0.00    +0.048 C 
ATOM     17  C   UNL     1       2.239   0.233   0.479  0.00  0.00    +0.229 C 
ENDBRANCH  15  17
ENDBRANCH  13  15
ENDBRANCH   1  13
BRANCH   4  18
ATOM     18  C   UNL     1       6.535  -4.681   2.447  0.00  0.00    +0.112 C 
BRANCH  18  19
ATOM     19  C   UNL     1       5.989  -6.115   2.496  0.00  0.00    +0.175 C 
BRANCH  19  20
ATOM     20  O   UNL     1       6.585  -6.828   3.589  0.00  0.00    -0.376 OA
BRANCH  20  21
ATOM     21  C   UNL     1       6.028  -8.148   3.683  0.00  0.00    +0.187 C 
BRANCH  21  22
ATOM     22  C   UNL     1       6.670  -8.875   4.859  0.00  0.00    +0.184 C 
BRANCH  22  23
ATOM     23  O   UNL     1       6.381  -8.188   6.074  0.00  0.00    -0.393 OA
ATOM     24  H   UNL     1       6.634  -7.259   5.911  0.00  0.00    +0.209 HD
ENDBRANCH  22  23
ENDBRANCH  21  22
ENDBRANCH  20  21
ENDBRANCH  19  20
ENDBRANCH  18  19
ENDBRANCH   4  18
TORSDOF 10
