REMARK  Name = 
REMARK  5 active torsions:
REMARK  status: ('A' for Active; 'I' for Inactive)
REMARK    1  A    between atoms: C_6  and  O_7
REMARK    2  A    between atoms: O_7  and  C_8
REMARK    3  A    between atoms: N_16  and  C_17
REMARK    4  A    between atoms: N_16  and  C_18
REMARK    5  A    between atoms: C_26  and  O_28
REMARK                            x       y       z     vdW  Elec       q    Type
REMARK                         _______ _______ _______ _____ _____    ______ ____
ROOT
ATOM      1 BR   UNL     1       0.000   0.000   0.000  0.00  0.00    +0.000 Br
ENDROOT
TORSDOF 0
REMARK  Name = 
REMARK  5 active torsions:
REMARK  status: ('A' for Active; 'I' for Inactive)
REMARK    1  A    between atoms: C_6  and  O_7
REMARK    2  A    between atoms: O_7  and  C_8
REMARK    3  A    between atoms: N_16  and  C_17
REMARK    4  A    between atoms: N_16  and  C_18
REMARK    5  A    between atoms: C_26  and  O_28
REMARK                            x       y       z     vdW  Elec       q    Type
REMARK                         _______ _______ _______ _____ _____    ______ ____
ROOT
ATOM      1  C   UNL     1      -0.000  -0.000  -0.000  0.00  0.00    +0.217 C 
ATOM      2  C   UNL     1      -0.000  -0.000  -0.000  0.00  0.00    +0.178 C 
ATOM      3  C   UNL     1      -0.000  -0.000  -0.000  0.00  0.00    +0.004 C 
ATOM      4  C   UNL     1      -0.000  -0.000  -0.000  0.00  0.00    -0.019 C 
ATOM      5  C   UNL     1      -0.000  -0.000  -0.000  0.00  0.00    +0.075 C 
ATOM      6  C   UNL     1      -0.000  -0.000  -0.000  0.00  0.00    +0.078 C 
ATOM      7  C   UNL     1      -0.000  -0.000  -0.000  0.00  0.00    +0.090 C 
ATOM      8  C   UNL     1      -0.000  -0.000  -0.000  0.00  0.00    -0.034 A 
ATOM      9  C   UNL     1      -0.000  -0.000  -0.000  0.00  0.00    +0.012 A 
ATOM     10  C   UNL     1      -0.000  -0.000  -0.000  0.00  0.00    +0.167 A 
ATOM     11  C   UNL     1      -0.000  -0.000  -0.000  0.00  0.00    +0.162 A 
ATOM     12  C   UNL     1      -0.000  -0.000  -0.000  0.00  0.00    +0.050 A 
ATOM     13  C   UNL     1      -0.000  -0.000  -0.000  0.00  0.00    +0.008 A 
ATOM     14  N   UNL     1      -0.000  -0.000  -0.000  0.00  0.00    +0.242 N 
ATOM     15  C   UNL     1      -0.000  -0.000  -0.000  0.00  0.00    +0.192 C 
ATOM     16  C   UNL     1      -0.000  -0.000  -0.000  0.00  0.00    +0.192 C 
ATOM     17  C   UNL     1      -0.000  -0.000  -0.000  0.00  0.00    +0.134 C 
ATOM     18  C   UNL     1      -0.000  -0.000  -0.000  0.00  0.00    +0.067 C 
ATOM     19  C   UNL     1      -0.000  -0.000  -0.000  0.00  0.00    +0.055 C 
ATOM     20  O   UNL     1      -0.000  -0.000  -0.000  0.00  0.00    -0.481 OA
ENDROOT
BRANCH   2  21
ATOM     21  O   UNL     1      -0.000  -0.000  -0.000  0.00  0.00    -0.384 OA
ATOM     22  H   UNL     1       0.000   0.000   0.000  0.00  0.00    +0.210 HD
ENDBRANCH   2  21
BRANCH  11  23
ATOM     23  O   UNL     1      -0.000  -0.000  -0.000  0.00  0.00    -0.491 OA
ATOM     24  C   UNL     1      -0.000  -0.000  -0.000  0.00  0.00    +0.277 C 
ENDBRANCH  11  23
TORSDOF 2
