REMARK  Name = 
REMARK  16 active torsions:
REMARK  status: ('A' for Active; 'I' for Inactive)
REMARK    1  A    between atoms: C_1  and  C_2
REMARK    2  A    between atoms: C_2  and  C_3
REMARK    3  A    between atoms: C_8  and  N_10
REMARK    4  A    between atoms: C_11  and  C_13
REMARK    5  A    between atoms: C_18  and  O_19
REMARK    6  A    between atoms: C_20  and  C_22
REMARK    7  A    between atoms: C_26  and  C_75
REMARK    8  A    between atoms: C_35  and  C_36
REMARK    9  A    between atoms: C_36  and  S_37
REMARK   10  A    between atoms: S_37  and  C_38
REMARK   11  A    between atoms: C_51  and  C_53
REMARK   12  A    between atoms: C_53  and  C_54
REMARK   13  A    between atoms: C_57  and  N_60
REMARK   14  A    between atoms: N_60  and  C_61
REMARK   15  A    between atoms: N_60  and  C_62
REMARK   16  A    between atoms: N_63  and  C_64
REMARK                            x       y       z     vdW  Elec       q    Type
REMARK                         _______ _______ _______ _____ _____    ______ ____
ROOT
ATOM      1  C   UNL     1       0.378  -1.215   1.283  0.00  0.00    +0.159 C 
ATOM      2  C   UNL     1      -0.058  -2.433   2.258  0.00  0.00    +0.237 C 
ATOM      3  O   UNL     1       0.802  -2.834   3.064  0.00  0.00    -0.274 OA
ATOM      4  N   UNL     1      -1.329  -3.056   2.323  0.00  0.00    -0.288 N 
ATOM      5  C   UNL     1      -2.627  -2.817   1.635  0.00  0.00    +0.162 C 
ATOM      6  C   UNL     1      -3.575  -4.005   1.981  0.00  0.00    +0.033 C 
ATOM      7  C   UNL     1      -2.708  -5.037   2.678  0.00  0.00    +0.021 C 
ATOM      8  C   UNL     1      -3.323  -1.475   1.941  0.00  0.00    +0.236 C 
ATOM      9  O   UNL     1      -3.287  -0.604   1.066  0.00  0.00    -0.274 OA
ATOM     10  N   UNL     1      -4.017  -1.236   3.129  0.00  0.00    -0.291 N 
ATOM     11  C   UNL     1      -3.922  -2.086   4.329  0.00  0.00    +0.133 C 
ATOM     12  C   UNL     1      -4.790   0.050   3.210  0.00  0.00    +0.166 C 
ATOM     13  C   UNL     1      -4.604   0.768   4.588  0.00  0.00    +0.237 C 
ATOM     14  O   UNL     1      -4.515   0.132   5.645  0.00  0.00    -0.274 OA
ATOM     15  N   UNL     1      -4.601   2.152   4.663  0.00  0.00    -0.287 N 
ATOM     16  C   UNL     1      -5.157   3.076   3.661  0.00  0.00    +0.169 C 
ATOM     17  C   UNL     1      -6.383   3.814   4.201  0.00  0.00    +0.106 C 
ATOM     18  C   UNL     1      -6.150   4.296   5.622  0.00  0.00    +0.141 C 
ATOM     19  O   UNL     1      -6.597   5.388   5.980  0.00  0.00    -0.297 OA
ATOM     20  C   UNL     1      -5.474   3.383   6.618  0.00  0.00    +0.082 C 
ATOM     21  C   UNL     1      -4.100   4.060   3.139  0.00  0.00    +0.235 C 
ATOM     22  O   UNL     1      -2.947   4.001   3.521  0.00  0.00    -0.274 OA
ATOM     23  N   UNL     1      -4.595   4.974   2.243  0.00  0.00    -0.297 N 
ATOM     24  H   UNL     1      -5.514   4.810   1.832  0.00  0.00    +0.150 HD
ATOM     25  C   UNL     1      -3.753   5.885   1.479  0.00  0.00    +0.213 C 
ATOM     26  C   UNL     1      -2.936   5.090   0.415  0.00  0.00    +0.333 C 
ATOM     27  O   UNL     1      -2.830   5.462  -0.748  0.00  0.00    -0.248 OA
ATOM     28  O   UNL     1      -2.297   4.007   0.938  0.00  0.00    -0.458 OA
ATOM     29  C   UNL     1      -0.829   3.877   0.849  0.00  0.00    +0.203 C 
ATOM     30  C   UNL     1      -0.355   4.006  -0.594  0.00  0.00    +0.054 C 
ATOM     31  C   UNL     1      -0.435   2.574   1.642  0.00  0.00    +0.200 C 
ATOM     32  C   UNL     1      -0.087   1.244   0.885  0.00  0.00    +0.238 C 
ATOM     33  O   UNL     1      -0.034   1.126  -0.334  0.00  0.00    -0.274 OA
ATOM     34  C   UNL     1      -4.264   2.749   5.957  0.00  0.00    +0.120 C 
ATOM     35  C   UNL     1      -1.427  -4.308   3.085  0.00  0.00    +0.109 C 
ATOM     36  N   UNL     1       0.006   0.134   1.749  0.00  0.00    -0.302 N 
ATOM     37  H   UNL     1       0.279   0.356   2.697  0.00  0.00    +0.150 HD
ENDROOT
BRANCH  25  38
ATOM     38  C   UNL     1      -2.850   6.806   2.291  0.00  0.00    -0.017 A 
ATOM     39  C   UNL     1      -2.902   6.912   3.690  0.00  0.00    +0.006 A 
ATOM     40  C   UNL     1      -1.810   7.427   4.391  0.00  0.00    +0.000 A 
ATOM     41  C   UNL     1      -0.706   7.918   3.700  0.00  0.00    +0.000 A 
ATOM     42  C   UNL     1      -0.740   8.003   2.312  0.00  0.00    +0.000 A 
ATOM     43  C   UNL     1      -1.825   7.486   1.614  0.00  0.00    +0.006 A 
ENDBRANCH  25  38
BRANCH  31  44
ATOM     44  N   UNL     1       0.485   2.772   2.790  0.00  0.00    -0.296 N 
ATOM     45  H   UNL     1       0.298   2.266   3.649  0.00  0.00    +0.150 HD
ATOM     46  C   UNL     1       1.626   3.546   2.814  0.00  0.00    +0.267 C 
ATOM     47  O   UNL     1       2.020   4.205   1.862  0.00  0.00    -0.268 OA
BRANCH  46  48
ATOM     48  C   UNL     1       2.374   3.488   4.149  0.00  0.00    +0.167 A 
ATOM     49  C   UNL     1       3.224   4.489   4.570  0.00  0.00    +0.147 A 
ATOM     50  C   UNL     1       3.905   4.304   5.799  0.00  0.00    +0.049 A 
ATOM     51  C   UNL     1       3.697   3.135   6.524  0.00  0.00    +0.023 A 
ATOM     52  C   UNL     1       2.805   2.200   6.028  0.00  0.00    +0.112 A 
ATOM     53  N   UNL     1       2.125   2.351   4.865  0.00  0.00    -0.247 NA
BRANCH  49  54
ATOM     54  O   UNL     1       3.412   5.666   3.915  0.00  0.00    -0.504 OA
ATOM     55  H   UNL     1       4.058   6.225   4.379  0.00  0.00    +0.292 HD
ENDBRANCH  49  54
ENDBRANCH  46  48
ENDBRANCH  31  44
BRANCH   1  57
ATOM     56  C   UNL     1       2.939  -0.552   1.954  0.00  0.00    +0.006 C 
ATOM     57  C   UNL     1       1.940  -1.186   0.960  0.00  0.00    +0.028 C 
ENDBRANCH   1  57
BRANCH  12  58
ATOM     58  C   UNL     1      -6.313  -0.045   2.876  0.00  0.00    +0.067 C 
BRANCH  58  59
ATOM     59  C   UNL     1      -6.886  -0.830   1.713  0.00  0.00    -0.045 A 
ATOM     60  C   UNL     1      -6.496  -0.687   0.383  0.00  0.00    +0.005 A 
ATOM     61  C   UNL     1      -7.161  -1.398  -0.649  0.00  0.00    +0.023 A 
ATOM     62  C   UNL     1      -8.234  -2.281  -0.412  0.00  0.00    +0.029 A 
ATOM     63  C   UNL     1      -8.652  -2.336   0.923  0.00  0.00    +0.023 A 
ATOM     64  C   UNL     1      -8.008  -1.630   1.952  0.00  0.00    +0.005 A 
BRANCH  62  65
ATOM     65  N   UNL     1      -8.892  -2.975  -1.432  0.00  0.00    -0.336 N 
ATOM     66  C   UNL     1      -8.180  -3.345  -2.659  0.00  0.00    +0.129 C 
ATOM     67  C   UNL     1      -9.985  -3.908  -1.125  0.00  0.00    +0.129 C 
ENDBRANCH  62  65
ENDBRANCH  58  59
ENDBRANCH  12  58
BRANCH  20  68
ATOM     68  C   UNL     1      -6.461   2.406   7.278  0.00  0.00    +0.082 C 
BRANCH  68  69
ATOM     69  S   UNL     1      -7.341   1.385   6.055  0.00  0.00    -0.155 S 
BRANCH  69  70
ATOM     70  C   UNL     1      -8.368   0.317   7.067  0.00  0.00    +0.064 C 
ATOM     71  C   UNL     1      -9.457   1.140   7.770  0.00  0.00    +0.006 C 
ATOM     72  C   UNL     1     -10.443   1.721   6.734  0.00  0.00    +0.020 C 
ATOM     73  C   UNL     1     -11.043   0.579   5.899  0.00  0.00    +0.085 C 
ATOM     74  N   UNL     1     -10.519  -0.742   6.315  0.00  0.00    -0.301 NA
ATOM     75  C   UNL     1     -10.821  -0.956   7.746  0.00  0.00    +0.085 C 
ATOM     76  C   UNL     1     -10.233   0.147   8.639  0.00  0.00    +0.020 C 
ATOM     77  C   UNL     1      -9.048  -0.725   6.136  0.00  0.00    +0.098 C 
ENDBRANCH  69  70
ENDBRANCH  68  69
ENDBRANCH  20  68
TORSDOF 11
