REMARK  Name = 
REMARK  4 active torsions:
REMARK  status: ('A' for Active; 'I' for Inactive)
REMARK    1  A    between atoms: C_5  and  O_6
REMARK    2  A    between atoms: N_14  and  C_15
REMARK    3  A    between atoms: C_19  and  O_20
REMARK    4  A    between atoms: C_23  and  O_25
REMARK                            x       y       z     vdW  Elec       q    Type
REMARK                         _______ _______ _______ _____ _____    ______ ____
ROOT
ATOM      1  C   UNL     1      -0.000  -0.000  -0.000  0.00  0.00    +0.215 C 
ATOM      2  C   UNL     1       0.000  -0.000   0.000  0.00  0.00    +0.156 C 
ATOM      3  C   UNL     1      -0.000  -0.000  -0.000  0.00  0.00    +0.038 C 
ATOM      4  C   UNL     1      -0.000  -0.000   0.000  0.00  0.00    +0.040 C 
ATOM      5  C   UNL     1      -0.000  -0.000   0.000  0.00  0.00    +0.095 C 
ATOM      6  C   UNL     1      -0.000  -0.000   0.000  0.00  0.00    +0.093 C 
ATOM      7  C   UNL     1      -0.000  -0.000   0.000  0.00  0.00    +0.057 C 
ATOM      8  C   UNL     1      -0.000  -0.000   0.000  0.00  0.00    -0.038 A 
ATOM      9  C   UNL     1      -0.000  -0.000  -0.000  0.00  0.00    +0.014 A 
ATOM     10  C   UNL     1      -0.000  -0.000   0.000  0.00  0.00    +0.166 A 
ATOM     11  C   UNL     1      -0.000  -0.000   0.000  0.00  0.00    +0.159 A 
ATOM     12  C   UNL     1      -0.000  -0.000  -0.000  0.00  0.00    +0.049 A 
ATOM     13  C   UNL     1      -0.000  -0.000   0.000  0.00  0.00    +0.008 A 
ATOM     14  N   UNL     1      -0.000  -0.000   0.000  0.00  0.00    -0.299 NA
ATOM     15  C   UNL     1      -0.000  -0.000   0.000  0.00  0.00    +0.105 C 
ATOM     16  C   UNL     1      -0.000  -0.000   0.000  0.00  0.00    +0.085 C 
ATOM     17  C   UNL     1      -0.000  -0.000   0.000  0.00  0.00    +0.033 C 
ATOM     18  C   UNL     1      -0.000  -0.000   0.000  0.00  0.00    +0.070 C 
ATOM     19  O   UNL     1      -0.000  -0.000   0.000  0.00  0.00    -0.481 OA
ENDROOT
BRANCH   2  20
ATOM     20  O   UNL     1      -0.000  -0.000   0.000  0.00  0.00    -0.388 OA
ATOM     21  H   UNL     1       0.000   0.000   0.000  0.00  0.00    +0.210 HD
ENDBRANCH   2  20
BRANCH   5  22
ATOM     22  O   UNL     1      -0.000  -0.000   0.000  0.00  0.00    -0.386 OA
ATOM     23  H   UNL     1       0.000   0.000   0.000  0.00  0.00    +0.210 HD
ENDBRANCH   5  22
BRANCH  11  24
ATOM     24  O   UNL     1      -0.000  -0.000  -0.000  0.00  0.00    -0.503 OA
ATOM     25  H   UNL     1       0.000   0.000   0.000  0.00  0.00    +0.292 HD
ENDBRANCH  11  24
TORSDOF 3
