REMARK  Name = 
REMARK  5 active torsions:
REMARK  status: ('A' for Active; 'I' for Inactive)
REMARK    1  A    between atoms: O_1  and  C_2
REMARK    2  A    between atoms: C_2  and  C_3
REMARK    3  A    between atoms: C_13  and  O_15
REMARK    4  A    between atoms: C_16  and  O_18
REMARK    5  A    between atoms: C_19  and  O_21
REMARK                            x       y       z     vdW  Elec       q    Type
REMARK                         _______ _______ _______ _____ _____    ______ ____
ROOT
ATOM      1  C   UNL     1       2.891   1.040   0.943  0.00  0.00    +0.178 C 
ATOM      2  C   UNL     1       2.678   0.421   2.331  0.00  0.00    +0.177 C 
ATOM      3  C   UNL     1       2.847   1.466   3.435  0.00  0.00    +0.179 C 
ATOM      4  C   UNL     1       1.963   2.687   3.168  0.00  0.00    +0.205 C 
ATOM      5  C   UNL     1       2.274   3.230   1.754  0.00  0.00    +0.244 C 
ATOM      6  C   UNL     1       1.322   4.427   1.507  0.00  0.00    +0.274 C 
ATOM      7  O   UNL     1       0.099   4.397   1.476  0.00  0.00    -0.270 OA
ATOM      8  N   UNL     1       2.070   5.560   1.413  0.00  0.00    -0.236 N 
ATOM      9  H   UNL     1       1.702   6.493   1.334  0.00  0.00    +0.159 HD
ATOM     10  C   UNL     1       3.381   5.271   1.555  0.00  0.00    +0.308 C 
ATOM     11  O   UNL     1       4.289   6.078   1.616  0.00  0.00    -0.252 OA
ATOM     12  N   UNL     1       3.540   3.914   1.640  0.00  0.00    -0.261 N 
ATOM     13  H   UNL     1       4.447   3.528   1.856  0.00  0.00    +0.154 HD
ATOM     14  O   UNL     1       2.161   2.256   0.730  0.00  0.00    -0.338 OA
ENDROOT
BRANCH   2  15
ATOM     15  O   UNL     1       3.624  -0.643   2.513  0.00  0.00    -0.386 OA
ATOM     16  H   UNL     1       4.033  -0.531   3.393  0.00  0.00    +0.210 HD
ENDBRANCH   2  15
BRANCH   3  17
ATOM     17  O   UNL     1       2.554   0.851   4.701  0.00  0.00    -0.386 OA
ATOM     18  H   UNL     1       1.605   0.636   4.730  0.00  0.00    +0.210 HD
ENDBRANCH   3  17
BRANCH   4  19
ATOM     19  O   UNL     1       2.198   3.665   4.194  0.00  0.00    -0.384 OA
ATOM     20  H   UNL     1       1.400   4.219   4.274  0.00  0.00    +0.210 HD
ENDBRANCH   4  19
BRANCH   1  21
ATOM     21  C   UNL     1       2.470   0.043  -0.152  0.00  0.00    +0.190 C 
BRANCH  21  22
ATOM     22  O   UNL     1       1.071  -0.237  -0.055  0.00  0.00    -0.392 OA
ATOM     23  H   UNL     1       0.837  -0.781  -0.828  0.00  0.00    +0.210 HD
ENDBRANCH  21  22
ENDBRANCH   1  21
TORSDOF 5
