REMARK  Name = 
REMARK  11 active torsions:
REMARK  status: ('A' for Active; 'I' for Inactive)
REMARK    1  A    between atoms: C_16  and  C_17
REMARK    2  A    between atoms: C_20  and  O_22
REMARK    3  A    between atoms: C_24  and  C_25
REMARK    4  A    between atoms: C_26  and  C_36
REMARK    5  A    between atoms: C_28  and  C_30
REMARK    6  A    between atoms: C_36  and  C_38
REMARK    7  A    between atoms: C_38  and  O_39
REMARK    8  A    between atoms: O_39  and  C_40
REMARK    9  A    between atoms: C_40  and  C_42
REMARK   10  A    between atoms: C_42  and  C_43
REMARK   11  A    between atoms: C_42  and  C_44
REMARK                            x       y       z     vdW  Elec       q    Type
REMARK                         _______ _______ _______ _____ _____    ______ ____
ROOT
ATOM      1  C   UNL     1      -0.000  -0.000  -0.000  0.00  0.00    +0.162 C 
ATOM      2  O   UNL     1      -0.000  -0.000  -0.000  0.00  0.00    -0.344 OA
ATOM      3  C   UNL     1      -0.000  -0.000  -0.000  0.00  0.00    +0.255 C 
ATOM      4  O   UNL     1      -0.000  -0.000  -0.000  0.00  0.00    -0.334 OA
ATOM      5  C   UNL     1      -0.000  -0.000  -0.000  0.00  0.00    +0.165 C 
ATOM      6  C   UNL     1      -0.000  -0.000  -0.000  0.00  0.00    +0.012 C 
ATOM      7  C   UNL     1      -0.000  -0.000  -0.000  0.00  0.00    +0.015 C 
ATOM      8  C   UNL     1      -0.000  -0.000  -0.000  0.00  0.00    +0.004 C 
ATOM      9  C   UNL     1      -0.000  -0.000  -0.000  0.00  0.00    -0.000 C 
ATOM     10  C   UNL     1      -0.000  -0.000  -0.000  0.00  0.00    +0.035 C 
ATOM     11  C   UNL     1      -0.000  -0.000  -0.000  0.00  0.00    +0.120 C 
ATOM     12  C   UNL     1      -0.000  -0.000  -0.000  0.00  0.00    +0.013 C 
ATOM     13  C   UNL     1      -0.000  -0.000  -0.000  0.00  0.00    +0.020 C 
ATOM     14  C   UNL     1      -0.000  -0.000  -0.000  0.00  0.00    -0.056 C 
ATOM     15  C   UNL     1      -0.000  -0.000  -0.000  0.00  0.00    +0.051 C 
ATOM     16  C   UNL     1      -0.000  -0.000  -0.000  0.00  0.00    +0.179 C 
ATOM     17  C   UNL     1      -0.000  -0.000  -0.000  0.00  0.00    +0.047 C 
ATOM     18  O   UNL     1      -0.000  -0.000  -0.000  0.00  0.00    -0.288 OA
ATOM     19  C   UNL     1      -0.000  -0.000  -0.000  0.00  0.00    +0.032 C 
ATOM     20  C   UNL     1      -0.000  -0.000  -0.000  0.00  0.00    -0.012 C 
ATOM     21  C   UNL     1      -0.000  -0.000  -0.000  0.00  0.00    +0.008 C 
ATOM     22  C   UNL     1      -0.000  -0.000  -0.000  0.00  0.00    +0.042 C 
ATOM     23  C   UNL     1      -0.000  -0.000  -0.000  0.00  0.00    +0.039 C 
ENDROOT
BRANCH   3  24
ATOM     24  C   UNL     1      -0.000  -0.000  -0.000  0.00  0.00    +0.045 C 
ATOM     25  C   UNL     1      -0.000  -0.000  -0.000  0.00  0.00    +0.008 C 
ATOM     26  C   UNL     1      -0.000  -0.000  -0.000  0.00  0.00    +0.000 C 
ATOM     27  C   UNL     1      -0.000  -0.000  -0.000  0.00  0.00    +0.000 C 
ATOM     28  C   UNL     1      -0.000  -0.000  -0.000  0.00  0.00    +0.000 C 
ATOM     29  C   UNL     1      -0.000  -0.000  -0.000  0.00  0.00    +0.008 C 
ENDBRANCH   3  24
BRANCH   5  30
ATOM     30  C   UNL     1      -0.000  -0.000  -0.000  0.00  0.00    +0.205 C 
ATOM     31  O   UNL     1      -0.000  -0.000  -0.000  0.00  0.00    -0.291 OA
BRANCH  30  32
ATOM     32  C   UNL     1      -0.000  -0.000  -0.000  0.00  0.00    +0.309 C 
BRANCH  32  33
ATOM     33  O   UNL     1      -0.000  -0.000  -0.000  0.00  0.00    -0.457 OA
BRANCH  33  34
ATOM     34  C   UNL     1      -0.000  -0.000  -0.000  0.00  0.00    +0.310 C 
ATOM     35  O   UNL     1      -0.000  -0.000  -0.000  0.00  0.00    -0.251 OA
BRANCH  34  36
ATOM     36  C   UNL     1      -0.000  -0.000  -0.000  0.00  0.00    +0.092 C 
ATOM     37  C   UNL     1      -0.000  -0.000  -0.000  0.00  0.00    +0.019 C 
ATOM     38  C   UNL     1      -0.000  -0.000  -0.000  0.00  0.00    +0.019 C 
ENDBRANCH  34  36
ENDBRANCH  33  34
ENDBRANCH  32  33
ENDBRANCH  30  32
ENDBRANCH   5  30
BRANCH  11  39
ATOM     39  O   UNL     1      -0.000  -0.000  -0.000  0.00  0.00    -0.391 OA
ATOM     40  H   UNL     1       0.000   0.000   0.000  0.00  0.00    +0.210 HD
ENDBRANCH  11  39
TORSDOF 7
