REMARK  Name = 
REMARK  7 active torsions:
REMARK  status: ('A' for Active; 'I' for Inactive)
REMARK    1  A    between atoms: C_10  and  O_11
REMARK    2  A    between atoms: O_11  and  C_12
REMARK    3  A    between atoms: C_12  and  C_13
REMARK    4  A    between atoms: C_13  and  C_14
REMARK    5  A    between atoms: C_14  and  C_15
REMARK    6  A    between atoms: C_15  and  C_16
REMARK    7  A    between atoms: N_20  and  C_21
REMARK                            x       y       z     vdW  Elec       q    Type
REMARK                         _______ _______ _______ _____ _____    ______ ____
ROOT
ATOM      1  C   UNL     1       8.027  -0.518  -4.331  0.00  0.00    +0.229 C 
ENDROOT
BRANCH   1   2
ATOM      2  O   UNL     1       7.500   0.748  -3.930  0.00  0.00    -0.492 OA
BRANCH   2  10
ATOM      3  O   UNL     1       3.224   0.542   2.448  0.00  0.00    -0.275 OA
ATOM      4  C   UNL     1       4.061   0.370   1.561  0.00  0.00    +0.218 C 
ATOM      5  N   UNL     1       4.289   1.318   0.597  0.00  0.00    -0.285 N 
ATOM      6  H   UNL     1       3.759   2.176   0.695  0.00  0.00    +0.155 HD
ATOM      7  C   UNL     1       5.147   1.145  -0.495  0.00  0.00    +0.037 A 
ATOM      8  C   UNL     1       5.398   2.216  -1.348  0.00  0.00    +0.027 A 
ATOM      9  C   UNL     1       6.207   2.032  -2.474  0.00  0.00    +0.047 A 
ATOM     10  C   UNL     1       6.757   0.781  -2.773  0.00  0.00    +0.121 A 
ATOM     11  C   UNL     1       6.503  -0.289  -1.905  0.00  0.00    +0.051 A 
ATOM     12  C   UNL     1       5.710  -0.108  -0.751  0.00  0.00    -0.022 A 
ATOM     13  C   UNL     1       5.357  -1.265   0.148  0.00  0.00    +0.046 C 
ATOM     14  C   UNL     1       4.994  -0.816   1.558  0.00  0.00    +0.101 C 
ENDBRANCH   2  10
ENDBRANCH   1   2
BRANCH   1  15
ATOM     15  C   UNL     1       8.811  -0.391  -5.658  0.00  0.00    +0.041 C 
BRANCH  15  16
ATOM     16  C   UNL     1       9.335  -1.774  -6.071  0.00  0.00    +0.011 C 
BRANCH  16  17
ATOM     17  C   UNL     1      10.105  -1.882  -7.393  0.00  0.00    +0.078 C 
BRANCH  17  18
ATOM     18  C   UNL     1      11.479  -1.314  -7.374  0.00  0.00    +0.152 A 
ATOM     19  N   UNL     1      12.005  -0.243  -8.069  0.00  0.00    -0.226 N 
ATOM     20  N   UNL     1      13.318  -0.138  -7.746  0.00  0.00    -0.044 NA
ATOM     21  N   UNL     1      13.593  -1.163  -6.964  0.00  0.00    -0.023 NA
ATOM     22  N   UNL     1      12.471  -1.890  -6.716  0.00  0.00    -0.113 NA
BRANCH  19  23
ATOM     23  C   UNL     1      11.450   0.793  -8.936  0.00  0.00    +0.111 C 
ATOM     24  C   UNL     1      10.197   0.456  -9.762  0.00  0.00    +0.027 C 
ATOM     25  C   UNL     1      10.467  -0.554 -10.880  0.00  0.00    +0.002 C 
ATOM     26  C   UNL     1      11.618  -0.122 -11.790  0.00  0.00    +0.000 C 
ATOM     27  C   UNL     1      12.854   0.299 -11.003  0.00  0.00    +0.002 C 
ATOM     28  C   UNL     1      12.498   1.344  -9.943  0.00  0.00    +0.027 C 
ENDBRANCH  19  23
ENDBRANCH  17  18
ENDBRANCH  16  17
ENDBRANCH  15  16
ENDBRANCH   1  15
TORSDOF 7
