REMARK  Name = 
REMARK  6 active torsions:
REMARK  status: ('A' for Active; 'I' for Inactive)
REMARK    1  A    between atoms: C_1  and  N_2
REMARK    2  A    between atoms: N_2  and  C_3
REMARK    3  A    between atoms: C_9  and  C_10
REMARK    4  A    between atoms: C_11  and  O_13
REMARK    5  A    between atoms: O_13  and  C_14
REMARK    6  A    between atoms: C_35  and  O_37
REMARK                            x       y       z     vdW  Elec       q    Type
REMARK                         _______ _______ _______ _____ _____    ______ ____
ROOT
ATOM      1  C   UNL     1       2.307   1.461   2.128  0.00  0.00    +0.091 C 
ATOM      2  C   UNL     1       3.216   0.396   2.784  0.00  0.00    +0.187 C 
ATOM      3  C   UNL     1       4.193   1.063   3.816  0.00  0.00    +0.174 C 
ATOM      4  C   UNL     1       5.519   1.548   3.200  0.00  0.00    +0.069 C 
ATOM      5  N   UNL     1       4.407   0.146   4.930  0.00  0.00    -0.307 N 
ATOM      6  C   UNL     1       3.568  -0.141   5.951  0.00  0.00    +0.077 A 
ATOM      7  C   UNL     1       2.296   0.360   6.117  0.00  0.00    +0.077 A 
ATOM      8  N   UNL     1       1.957   1.623   5.735  0.00  0.00    -0.311 N 
ATOM      9  C   UNL     1       2.323   2.413   4.576  0.00  0.00    +0.224 C 
ATOM     10  C   UNL     1       0.987   1.895   6.709  0.00  0.00    +0.052 A 
ATOM     11  C   UNL     1       0.474   3.044   7.315  0.00  0.00    +0.026 A 
ATOM     12  C   UNL     1      -0.881   2.977   7.657  0.00  0.00    +0.002 A 
ATOM     13  C   UNL     1      -1.627   1.838   7.352  0.00  0.00    +0.001 A 
ATOM     14  C   UNL     1      -0.972   0.625   7.122  0.00  0.00    +0.010 A 
ATOM     15  C   UNL     1       0.433   0.647   7.133  0.00  0.00    +0.008 A 
ATOM     16  C   UNL     1       1.499  -0.288   7.100  0.00  0.00    +0.022 A 
ATOM     17  C   UNL     1       2.061  -0.773   8.338  0.00  0.00    +0.054 A 
ATOM     18  C   UNL     1       1.743  -0.661   9.736  0.00  0.00    +0.247 C 
ATOM     19  O   UNL     1       0.797  -0.195  10.358  0.00  0.00    -0.270 OA
ATOM     20  N   UNL     1       2.892  -1.125  10.395  0.00  0.00    -0.282 N 
ATOM     21  H   UNL     1       2.996  -0.920  11.378  0.00  0.00    +0.152 HD
ATOM     22  C   UNL     1       3.985  -1.488   9.537  0.00  0.00    +0.235 C 
ATOM     23  C   UNL     1       3.397  -1.214   8.233  0.00  0.00    +0.021 A 
ATOM     24  C   UNL     1       3.993  -0.961   6.991  0.00  0.00    +0.018 A 
ATOM     25  C   UNL     1       5.288  -1.305   6.563  0.00  0.00    +0.008 A 
ATOM     26  C   UNL     1       6.332  -2.096   7.101  0.00  0.00    +0.010 A 
ATOM     27  C   UNL     1       7.483  -2.347   6.358  0.00  0.00    +0.001 A 
ATOM     28  C   UNL     1       7.599  -1.879   5.061  0.00  0.00    +0.002 A 
ATOM     29  C   UNL     1       6.600  -1.086   4.488  0.00  0.00    +0.026 A 
ATOM     30  C   UNL     1       5.475  -0.723   5.238  0.00  0.00    +0.053 A 
ATOM     31  O   UNL     1       3.718   2.316   4.379  0.00  0.00    -0.328 OA
ATOM     32  C   UNL     1       1.531   2.167   3.264  0.00  0.00    +0.076 C 
ENDROOT
BRANCH   1  34
ATOM     33  C   UNL     1       2.433   3.013   0.169  0.00  0.00    +0.101 C 
ATOM     34  N   UNL     1       3.122   2.332   1.265  0.00  0.00    -0.314 NA
ATOM     35  H   UNL     1       3.648   3.012   1.814  0.00  0.00    +0.122 HD
ENDBRANCH   1  34
BRANCH   2  36
ATOM     36  O   UNL     1       3.948  -0.438   1.865  0.00  0.00    -0.373 OA
ATOM     37  C   UNL     1       3.149  -1.133   0.918  0.00  0.00    +0.194 C 
ENDBRANCH   2  36
BRANCH  22  38
ATOM     38  O   UNL     1       4.232  -2.851   9.733  0.00  0.00    -0.370 OA
ATOM     39  H   UNL     1       4.240  -2.984  10.689  0.00  0.00    +0.212 HD
ENDBRANCH  22  38
TORSDOF 3
