REMARK  Name = 
REMARK  16 active torsions:
REMARK  status: ('A' for Active; 'I' for Inactive)
REMARK    1  A    between atoms: C_1  and  N_2
REMARK    2  A    between atoms: N_2  and  C_3
REMARK    3  A    between atoms: C_4  and  O_6
REMARK    4  A    between atoms: O_6  and  C_7
REMARK    5  A    between atoms: C_9  and  C_19
REMARK    6  A    between atoms: C_11  and  O_12
REMARK    7  A    between atoms: O_12  and  C_13
REMARK    8  A    between atoms: N_15  and  C_16
REMARK    9  A    between atoms: N_15  and  C_17
REMARK   10  A    between atoms: C_19  and  O_20
REMARK   11  A    between atoms: C_19  and  C_21
REMARK   12  A    between atoms: C_21  and  N_22
REMARK   13  A    between atoms: N_22  and  C_23
REMARK   14  A    between atoms: C_23  and  C_24
REMARK   15  A    between atoms: C_23  and  C_25
REMARK   16  A    between atoms: C_23  and  C_26
REMARK                            x       y       z     vdW  Elec       q    Type
REMARK                         _______ _______ _______ _____ _____    ______ ____
ROOT
ATOM      1  C   UNL     1       5.081  -0.416   2.315  0.00  0.00    +0.137 A 
ATOM      2  C   UNL     1       5.286  -1.722   2.753  0.00  0.00    +0.092 A 
ATOM      3  C   UNL     1       6.015  -1.939   3.915  0.00  0.00    +0.137 A 
ATOM      4  C   UNL     1       6.523  -0.864   4.649  0.00  0.00    +0.053 A 
ATOM      5  C   UNL     1       6.352   0.455   4.192  0.00  0.00    -0.011 A 
ATOM      6  C   UNL     1       5.613   0.668   3.015  0.00  0.00    +0.053 A 
ENDROOT
BRANCH   1   7
ATOM      7  O   UNL     1       4.447  -0.149   1.087  0.00  0.00    -0.411 OA
BRANCH   7  10
ATOM      8  C   UNL     1       2.170  -2.036  -1.014  0.00  0.00    +0.135 C 
ATOM      9  N   UNL     1       3.096  -1.010  -0.582  0.00  0.00    -0.273 N 
ATOM     10  C   UNL     1       3.313  -0.897   0.788  0.00  0.00    +0.408 C 
ATOM     11  O   UNL     1       2.598  -1.441   1.627  0.00  0.00    -0.226 OA
ATOM     12  C   UNL     1       4.040  -0.464  -1.540  0.00  0.00    +0.135 C 
ENDBRANCH   7  10
ENDBRANCH   1   7
BRANCH   3  13
ATOM     13  O   UNL     1       6.236  -3.227   4.452  0.00  0.00    -0.411 OA
BRANCH  13  14
ATOM     14  C   UNL     1       6.402  -4.352   3.636  0.00  0.00    +0.408 C 
ATOM     15  N   UNL     1       6.527  -5.530   4.362  0.00  0.00    -0.273 N 
ATOM     16  C   UNL     1       6.691  -6.785   3.653  0.00  0.00    +0.135 C 
ATOM     17  C   UNL     1       6.592  -5.583   5.811  0.00  0.00    +0.135 C 
ATOM     18  O   UNL     1       6.442  -4.316   2.411  0.00  0.00    -0.226 OA
ENDBRANCH  13  14
ENDBRANCH   3  13
BRANCH   5  19
ATOM     19  C   UNL     1       6.916   1.655   4.925  0.00  0.00    +0.158 C 
BRANCH  19  20
ATOM     20  O   UNL     1       5.907   2.165   5.806  0.00  0.00    -0.386 OA
ATOM     21  H   UNL     1       5.457   1.396   6.198  0.00  0.00    +0.210 HD
ENDBRANCH  19  20
BRANCH  19  22
ATOM     22  C   UNL     1       8.201   1.421   5.763  0.00  0.00    +0.117 C 
BRANCH  22  23
ATOM     23  N   UNL     1       9.340   0.897   4.994  0.00  0.00    -0.309 NA
ATOM     24  H   UNL     1       9.553   1.542   4.233  0.00  0.00    +0.123 HD
BRANCH  23  25
ATOM     25  C   UNL     1      10.561   0.630   5.777  0.00  0.00    +0.011 C 
ATOM     26  C   UNL     1      11.066   1.889   6.499  0.00  0.00    +0.027 C 
ATOM     27  C   UNL     1      11.648   0.176   4.782  0.00  0.00    +0.027 C 
ATOM     28  C   UNL     1      10.337  -0.511   6.785  0.00  0.00    +0.027 C 
ENDBRANCH  23  25
ENDBRANCH  22  23
ENDBRANCH  19  22
ENDBRANCH   5  19
TORSDOF 9
