REMARK  Name = 
REMARK  5 active torsions:
REMARK  status: ('A' for Active; 'I' for Inactive)
REMARK    1  A    between atoms: CA_2  and  N_3
REMARK    2  A    between atoms: CA_2  and  C_4
REMARK    3  A    between atoms: CA_2  and  C_15
REMARK    4  A    between atoms: C_4  and  C_5
REMARK    5  A    between atoms: C_15  and  O_16
REMARK                            x       y       z     vdW  Elec       q    Type
REMARK                         _______ _______ _______ _____ _____    ______ ____
ROOT
ATOM      1  C   UNL     1       2.217  -1.486   1.961  0.00  0.00    -0.045 A 
ATOM      2  C   UNL     1       2.167  -2.791   2.484  0.00  0.00    +0.012 A 
ATOM      3  C   UNL     1       1.672  -3.052   3.775  0.00  0.00    -0.018 A 
ATOM      4  C   UNL     1       1.211  -1.977   4.564  0.00  0.00    -0.018 A 
ATOM      5  C   UNL     1       0.696  -2.226   5.845  0.00  0.00    +0.008 A 
ATOM      6  C   UNL     1       0.628  -3.527   6.342  0.00  0.00    +0.001 A 
ATOM      7  C   UNL     1       1.087  -4.590   5.571  0.00  0.00    +0.001 A 
ATOM      8  C   UNL     1       1.266  -0.676   4.047  0.00  0.00    +0.009 A 
ATOM      9  C   UNL     1       1.610  -4.355   4.298  0.00  0.00    +0.008 A 
ATOM     10  C   UNL     1       1.745  -0.438   2.757  0.00  0.00    +0.004 A 
ENDROOT
BRANCH   1  11
ATOM     11  C   UNL     1       2.704  -1.276   0.542  0.00  0.00    +0.065 C 
BRANCH  11  12
ATOM     12  CA  UNL     1       3.356   0.078   0.199  0.00  0.00    +0.165 C 
BRANCH  12  13
ATOM     13  N   UNL     1       3.560   0.166  -1.269  0.00  0.00    -0.318 NA
ATOM     14  H1  UNL     1       3.887   1.077  -1.581  0.00  0.00    +0.119 HD
ATOM     15  H2  UNL     1       4.048  -0.626  -1.677  0.00  0.00    +0.119 HD
ENDBRANCH  12  13
BRANCH  12  16
ATOM     16  C   UNL     1       4.676   0.280   0.974  0.00  0.00    +0.322 C 
ATOM     17  OXT UNL     1       4.767   0.388   2.187  0.00  0.00    -0.249 OA
BRANCH  16  18
ATOM     18  O   UNL     1       5.770   0.359   0.176  0.00  0.00    -0.480 OA
ATOM     19  H   UNL     1       5.510   0.287  -0.759  0.00  0.00    +0.295 HD
ENDBRANCH  16  18
ENDBRANCH  12  16
ENDBRANCH  11  12
ENDBRANCH   1  11
TORSDOF 5
