REMARK  Name = 
REMARK  8 active torsions:
REMARK  status: ('A' for Active; 'I' for Inactive)
REMARK    1  A    between atoms: O_1  and  C_2
REMARK    2  A    between atoms: C_2  and  C_3
REMARK    3  A    between atoms: C_3  and  C_4
REMARK    4  A    between atoms: C_3  and  O_6
REMARK    5  A    between atoms: C_4  and  O_5
REMARK    6  A    between atoms: O_6  and  P_7
REMARK    7  A    between atoms: P_7  and  O_8
REMARK    8  A    between atoms: P_7  and  O_9
REMARK                            x       y       z     vdW  Elec       q    Type
REMARK                         _______ _______ _______ _____ _____    ______ ____
ROOT
ATOM      1  C   UNL     1       2.873  -0.855  -0.864  0.00  0.00    +0.181 C 
ENDROOT
BRANCH   1   2
ATOM      2  C   UNL     1       2.609   0.000   0.379  0.00  0.00    +0.190 C 
BRANCH   2   3
ATOM      3  O   UNL     1       3.046   1.348   0.189  0.00  0.00    -0.392 OA
ATOM      4  H   UNL     1       4.020   1.297   0.083  0.00  0.00    +0.210 HD
ENDBRANCH   2   3
ENDBRANCH   1   2
BRANCH   1   5
ATOM      5  O   UNL     1       4.288  -0.891  -1.063  0.00  0.00    -0.279 OA
BRANCH   5   6
ATOM      6  P   UNL     1       4.863  -1.837  -2.392  0.00  0.00    +0.473 P 
ATOM      7  O   UNL     1       5.378  -2.684  -3.582  0.00  0.00    -0.228 OA
BRANCH   6   8
ATOM      8  O   UNL     1       4.451  -3.170  -1.546  0.00  0.00    -0.303 OA
ATOM      9  H   UNL     1       4.846  -3.927  -2.030  0.00  0.00    +0.222 HD
ENDBRANCH   6   8
BRANCH   6  10
ATOM     10  O   UNL     1       6.366  -1.617  -1.795  0.00  0.00    -0.303 OA
ATOM     11  H   UNL     1       6.925  -1.154  -2.439  0.00  0.00    +0.222 HD
ENDBRANCH   6  10
ENDBRANCH   5   6
ENDBRANCH   1   5
BRANCH   1  12
ATOM     12  C   UNL     1       2.139  -0.316  -2.096  0.00  0.00    +0.190 C 
BRANCH  12  13
ATOM     13  O   UNL     1       0.726  -0.373  -1.945  0.00  0.00    -0.392 OA
ATOM     14  H   UNL     1       0.461  -1.303  -1.845  0.00  0.00    +0.210 HD
ENDBRANCH  12  13
ENDBRANCH   1  12
TORSDOF 8
