REMARK  Name = 
REMARK  5 active torsions:
REMARK  status: ('A' for Active; 'I' for Inactive)
REMARK    1  A    between atoms: C_1  and  C_2
REMARK    2  A    between atoms: C_4  and  C_7
REMARK    3  A    between atoms: N_9  and  N_10
REMARK    4  A    between atoms: N_10  and  C_11
REMARK    5  A    between atoms: C_11  and  C_12
REMARK                            x       y       z     vdW  Elec       q    Type
REMARK                         _______ _______ _______ _____ _____    ______ ____
ROOT
ATOM      1  C   UNL     1       5.907   1.533   0.031  0.00  0.00    +0.279 C 
ATOM      2  N   UNL     1       5.794   2.920   0.081  0.00  0.00    -0.245 N 
ATOM      3  H   UNL     1       4.859   3.311   0.192  0.00  0.00    +0.169 HD
ATOM      4  O   UNL     1       6.978   0.931  -0.019  0.00  0.00    -0.267 OA
ENDROOT
BRANCH   1   9
ATOM      5  C   UNL     1       2.131  -1.869  -0.065  0.00  0.00    +0.089 C 
ATOM      6  C   UNL     1       3.043  -0.712  -0.024  0.00  0.00    +0.135 A 
ATOM      7  O   UNL     1       2.465   0.518  -0.011  0.00  0.00    -0.359 OA
ATOM      8  N   UNL     1       3.447   1.494   0.021  0.00  0.00    -0.073 NA
ATOM      9  C   UNL     1       4.620   0.834   0.023  0.00  0.00    +0.169 A 
ATOM     10  C   UNL     1       4.407  -0.568   0.003  0.00  0.00    +0.080 A 
ENDBRANCH   1   9
BRANCH   2  11
ATOM     11  N   UNL     1       6.950   3.722   0.208  0.00  0.00    -0.236 NA
ATOM     12  H   UNL     1       7.604   3.467  -0.539  0.00  0.00    +0.145 HD
BRANCH  11  13
ATOM     13  C   UNL     1       6.657   5.155   0.131  0.00  0.00    +0.137 C 
BRANCH  13  14
ATOM     14  C   UNL     1       7.923   5.981   0.122  0.00  0.00    -0.032 A 
ATOM     15  C   UNL     1       8.848   5.888   1.174  0.00  0.00    +0.005 A 
ATOM     16  C   UNL     1      10.017   6.652   1.162  0.00  0.00    +0.000 A 
ATOM     17  C   UNL     1      10.272   7.522   0.104  0.00  0.00    +0.000 A 
ATOM     18  C   UNL     1       9.359   7.632  -0.941  0.00  0.00    +0.000 A 
ATOM     19  C   UNL     1       8.189   6.868  -0.932  0.00  0.00    +0.005 A 
ENDBRANCH  13  14
ENDBRANCH  11  13
ENDBRANCH   2  11
TORSDOF 4
