REMARK  Name = 
REMARK  7 active torsions:
REMARK  status: ('A' for Active; 'I' for Inactive)
REMARK    1  A    between atoms: C_1  and  N_2
REMARK    2  A    between atoms: C_4  and  C_11
REMARK    3  A    between atoms: C_12  and  C_18
REMARK    4  A    between atoms: N_20  and  C_21
REMARK    5  A    between atoms: C_21  and  C_22
REMARK    6  A    between atoms: C_22  and  C_23
REMARK    7  A    between atoms: C_23  and  N_24
REMARK                            x       y       z     vdW  Elec       q    Type
REMARK                         _______ _______ _______ _____ _____    ______ ____
ROOT
ATOM      1  C   UNL     1       5.561   1.310  -0.153  0.00  0.00    +0.059 C 
ATOM      2  C   UNL     1       5.551   2.789   0.074  0.00  0.00    +0.252 C 
ATOM      3  O   UNL     1       4.665   3.481   0.540  0.00  0.00    -0.270 OA
ATOM      4  N   UNL     1       6.762   3.279  -0.241  0.00  0.00    -0.248 N 
ATOM      5  H   UNL     1       7.030   4.234  -0.066  0.00  0.00    +0.158 HD
ATOM      6  C   UNL     1       7.637   2.275  -0.300  0.00  0.00    +0.252 C 
ATOM      7  O   UNL     1       8.850   2.385  -0.266  0.00  0.00    -0.270 OA
ATOM      8  C   UNL     1       6.862   1.012  -0.350  0.00  0.00    +0.059 C 
ENDROOT
BRANCH   1  16
ATOM      9  C   UNL     1       2.829  -2.804  -0.416  0.00  0.00    +0.149 C 
ATOM     10  N   UNL     1       3.208  -1.440  -0.124  0.00  0.00    -0.349 N 
ATOM     11  C   UNL     1       2.338  -0.456   0.271  0.00  0.00    +0.049 A 
ATOM     12  C   UNL     1       3.009   0.763   0.105  0.00  0.00    +0.008 A 
ATOM     13  C   UNL     1       2.219   1.932   0.209  0.00  0.00    +0.010 A 
ATOM     14  C   UNL     1       0.876   1.859   0.603  0.00  0.00    +0.001 A 
ATOM     15  C   UNL     1       0.293   0.636   0.897  0.00  0.00    +0.002 A 
ATOM     16  C   UNL     1       4.405   0.454  -0.118  0.00  0.00    +0.013 A 
ATOM     17  C   UNL     1       1.006  -0.545   0.710  0.00  0.00    +0.026 A 
ATOM     18  C   UNL     1       4.458  -0.917  -0.305  0.00  0.00    +0.095 A 
ENDBRANCH   1  16
BRANCH   8  19
ATOM     19  C   UNL     1       7.555  -0.187  -0.665  0.00  0.00    +0.013 A 
ATOM     20  C   UNL     1       7.975  -1.282   0.148  0.00  0.00    +0.008 A 
ATOM     21  C   UNL     1       7.712  -1.711   1.468  0.00  0.00    +0.010 A 
ATOM     22  C   UNL     1       8.275  -2.909   1.936  0.00  0.00    +0.001 A 
ATOM     23  C   UNL     1       9.142  -3.648   1.135  0.00  0.00    +0.002 A 
ATOM     24  C   UNL     1       9.473  -3.213  -0.149  0.00  0.00    +0.026 A 
ATOM     25  C   UNL     1       8.864  -2.042  -0.632  0.00  0.00    +0.050 A 
ATOM     26  N   UNL     1       8.993  -1.384  -1.840  0.00  0.00    -0.346 N 
ATOM     27  C   UNL     1       8.041  -0.405  -1.933  0.00  0.00    +0.095 A 
BRANCH  26  28
ATOM     28  C   UNL     1      10.000  -1.616  -2.860  0.00  0.00    +0.123 C 
BRANCH  28  29
ATOM     29  C   UNL     1      10.746  -0.351  -3.315  0.00  0.00    +0.036 C 
BRANCH  29  30
ATOM     30  C   UNL     1      11.559   0.318  -2.206  0.00  0.00    +0.079 C 
BRANCH  30  31
ATOM     31  N   UNL     1      12.265   1.476  -2.751  0.00  0.00    -0.330 NA
ATOM     32  H   UNL     1      12.791   1.932  -2.005  0.00  0.00    +0.118 HD
ATOM     33  H   UNL     1      12.945   1.181  -3.449  0.00  0.00    +0.118 HD
ENDBRANCH  30  31
ENDBRANCH  29  30
ENDBRANCH  28  29
ENDBRANCH  26  28
ENDBRANCH   8  19
TORSDOF 6
