REMARK  Name = 
REMARK  10 active torsions:
REMARK  status: ('A' for Active; 'I' for Inactive)
REMARK    1  A    between atoms: C_1  and  C_2
REMARK    2  A    between atoms: C_2  and  C_3
REMARK    3  A    between atoms: C_2  and  C_4
REMARK    4  A    between atoms: C_2  and  N_5
REMARK    5  A    between atoms: N_5  and  C_6
REMARK    6  A    between atoms: C_6  and  C_7
REMARK    7  A    between atoms: C_7  and  O_9
REMARK    8  A    between atoms: C_7  and  C_10
REMARK    9  A    between atoms: C_10  and  O_11
REMARK   10  A    between atoms: O_11  and  C_12
REMARK                            x       y       z     vdW  Elec       q    Type
REMARK                         _______ _______ _______ _____ _____    ______ ____
ROOT
ATOM      1  O   UNL     1       7.120   3.464   2.241  0.00  0.00    -0.489 OA
ENDROOT
BRANCH   1   2
ATOM      2  C   UNL     1       8.500   3.481   2.193  0.00  0.00    +0.124 A 
ATOM      3  C   UNL     1       9.193   4.198   3.198  0.00  0.00    +0.005 A 
ATOM      4  C   UNL     1       8.464   4.837   4.360  0.00  0.00    +0.040 C 
ATOM      5  C   UNL     1       9.395   5.265   5.501  0.00  0.00    +0.013 C 
ATOM      6  C   UNL     1      10.589   6.040   4.974  0.00  0.00    +0.080 C 
ATOM      7  C   UNL     1      11.374   5.167   4.034  0.00  0.00    +0.164 C 
ATOM      8  O   UNL     1      12.602   5.202   3.988  0.00  0.00    -0.292 OA
ATOM      9  C   UNL     1      10.598   4.317   3.090  0.00  0.00    +0.024 A 
ATOM     10  C   UNL     1      11.304   3.685   2.063  0.00  0.00    +0.012 A 
ATOM     11  C   UNL     1      10.622   2.960   1.099  0.00  0.00    +0.004 A 
ATOM     12  C   UNL     1       9.229   2.878   1.157  0.00  0.00    +0.046 A 
ENDBRANCH   1   2
BRANCH   1  13
ATOM     13  C   UNL     1       6.475   2.384   1.542  0.00  0.00    +0.261 C 
BRANCH  13  14
ATOM     14  C   UNL     1       4.947   2.547   1.437  0.00  0.00    +0.166 C 
BRANCH  14  15
ATOM     15  O   UNL     1       4.350   2.618   2.738  0.00  0.00    -0.387 OA
ATOM     16  H   UNL     1       4.738   1.911   3.281  0.00  0.00    +0.210 HD
ENDBRANCH  14  15
BRANCH  14  17
ATOM     17  C   UNL     1       4.492   3.776   0.614  0.00  0.00    +0.116 C 
BRANCH  17  18
ATOM     18  N   UNL     1       5.019   3.801  -0.763  0.00  0.00    -0.309 NA
ATOM     19  H   UNL     1       6.037   3.831  -0.716  0.00  0.00    +0.123 HD
BRANCH  18  21
ATOM     20  C   UNL     1       5.025   6.289  -0.968  0.00  0.00    +0.027 C 
ATOM     21  C   UNL     1       4.587   4.952  -1.590  0.00  0.00    +0.011 C 
ATOM     22  C   UNL     1       5.297   4.807  -2.953  0.00  0.00    +0.027 C 
ATOM     23  C   UNL     1       3.071   4.953  -1.842  0.00  0.00    +0.027 C 
ENDBRANCH  18  21
ENDBRANCH  17  18
ENDBRANCH  14  17
ENDBRANCH  13  14
ENDBRANCH   1  13
TORSDOF 7
