REMARK  Name = 
REMARK  1 active torsions:
REMARK  status: ('A' for Active; 'I' for Inactive)
REMARK    1  A    between atoms: C_11  and  C_12
REMARK                            x       y       z     vdW  Elec       q    Type
REMARK                         _______ _______ _______ _____ _____    ______ ____
ROOT
ATOM      1 CL   UNL     1       0.970  -0.004  -0.223  0.00  0.00    -0.084 Cl
ATOM      2  C   UNL     1       2.689  -0.027  -0.155  0.00  0.00    +0.042 A 
ATOM      3  C   UNL     1       3.355  -1.249  -0.110  0.00  0.00    +0.022 A 
ATOM      4  C   UNL     1       4.747  -1.269  -0.051  0.00  0.00    +0.025 A 
ATOM      5  C   UNL     1       5.481  -0.073  -0.051  0.00  0.00    +0.043 A 
ATOM      6  N   UNL     1       6.875  -0.224  -0.080  0.00  0.00    -0.283 N 
ATOM      7  H   UNL     1       7.285  -1.119   0.155  0.00  0.00    +0.155 HD
ATOM      8  C   UNL     1       7.783   0.624  -0.658  0.00  0.00    +0.239 C 
ATOM      9  C   UNL     1       7.245   1.853  -1.355  0.00  0.00    +0.238 C 
ATOM     10  N   UNL     1       6.649   2.751  -0.382  0.00  0.00    -0.273 NA
ATOM     11  C   UNL     1       5.522   2.468   0.178  0.00  0.00    +0.076 C 
ATOM     12  O   UNL     1       8.972   0.303  -0.688  0.00  0.00    -0.273 OA
ATOM     13  C   UNL     1       4.801   1.164  -0.035  0.00  0.00    +0.023 A 
ATOM     14  C   UNL     1       3.399   1.172  -0.120  0.00  0.00    +0.032 A 
ENDROOT
BRANCH  11  15
ATOM     15  C   UNL     1       4.959   3.501   1.131  0.00  0.00    +0.019 A 
ATOM     16  C   UNL     1       5.176   4.885   0.967  0.00  0.00    +0.050 A 
ATOM     17 CL   UNL     1       5.995   5.599  -0.382  0.00  0.00    -0.083 Cl
ATOM     18  C   UNL     1       4.669   5.797   1.906  0.00  0.00    +0.020 A 
ATOM     19  C   UNL     1       3.924   5.355   2.996  0.00  0.00    +0.001 A 
ATOM     20  C   UNL     1       3.698   3.994   3.168  0.00  0.00    +0.001 A 
ATOM     21  C   UNL     1       4.229   3.073   2.257  0.00  0.00    +0.011 A 
ENDBRANCH  11  15
TORSDOF 1
