REMARK  Name = 
REMARK  12 active torsions:
REMARK  status: ('A' for Active; 'I' for Inactive)
REMARK    1  A    between atoms: N_1  and  C_2
REMARK    2  A    between atoms: C_2  and  C_4
REMARK    3  A    between atoms: C_2  and  C_12
REMARK    4  A    between atoms: C_4  and  C_5
REMARK    5  A    between atoms: C_5  and  CA_6
REMARK    6  A    between atoms: CA_6  and  N_8
REMARK    7  A    between atoms: CA_6  and  C_9
REMARK    8  A    between atoms: C_9  and  O_10
REMARK    9  A    between atoms: C_12  and  C_13
REMARK   10  A    between atoms: C_16  and  N_24
REMARK   11  A    between atoms: C_18  and  O_20
REMARK   12  A    between atoms: C_21  and  O_23
REMARK                            x       y       z     vdW  Elec       q    Type
REMARK                         _______ _______ _______ _____ _____    ______ ____
ROOT
ATOM      1  C   UNL     1       4.512   0.578  -1.279  0.00  0.00    +0.153 C 
ATOM      2  C   UNL     1       4.871  -0.731  -0.572  0.00  0.00    +0.176 C 
ATOM      3  C   UNL     1       5.976  -0.371   0.422  0.00  0.00    +0.195 C 
ATOM      4  C   UNL     1       6.354   1.065   0.056  0.00  0.00    +0.253 C 
ATOM      5  O   UNL     1       5.169   1.632  -0.538  0.00  0.00    -0.348 OA
ENDROOT
BRANCH   4   6
ATOM      6  N   UNL     1       6.786   1.897   1.167  0.00  0.00    -0.286 N 
ATOM      7  C   UNL     1       7.627   1.522   2.184  0.00  0.00    +0.167 A 
ATOM      8  N   UNL     1       8.096   0.290   2.459  0.00  0.00    -0.216 NA
ATOM      9  C   UNL     1       8.903   0.316   3.543  0.00  0.00    +0.225 A 
ATOM     10  N   UNL     1       9.282   1.378   4.283  0.00  0.00    -0.219 NA
ATOM     11  C   UNL     1       8.814   2.600   3.942  0.00  0.00    +0.147 A 
ATOM     12  N   UNL     1       9.250   3.695   4.672  0.00  0.00    -0.341 N 
ATOM     13  H   UNL     1       8.655   4.512   4.598  0.00  0.00    +0.144 HD
ATOM     14  H   UNL     1       9.618   3.447   5.580  0.00  0.00    +0.144 HD
ATOM     15  C   UNL     1       7.914   2.695   2.866  0.00  0.00    +0.147 A 
ATOM     16  N   UNL     1       7.235   3.760   2.312  0.00  0.00    -0.231 NA
ATOM     17  C   UNL     1       6.576   3.246   1.293  0.00  0.00    +0.203 A 
ENDBRANCH   4   6
BRANCH   2  18
ATOM     18  O   UNL     1       3.716  -1.226   0.121  0.00  0.00    -0.387 OA
ATOM     19  H   UNL     1       3.466  -0.585   0.811  0.00  0.00    +0.210 HD
ENDBRANCH   2  18
BRANCH   3  20
ATOM     20  O   UNL     1       7.086  -1.260   0.285  0.00  0.00    -0.385 OA
ATOM     21  H   UNL     1       7.713  -1.026   1.003  0.00  0.00    +0.210 HD
ENDBRANCH   3  20
BRANCH   1  22
ATOM     22  C   UNL     1       4.969   0.653  -2.747  0.00  0.00    +0.052 C 
BRANCH  22  23
ATOM     23  C   UNL     1       4.336  -0.373  -3.716  0.00  0.00    +0.053 C 
BRANCH  23  24
ATOM     24  N   UNL     1       4.913  -0.115  -5.039  0.00  0.00    -0.327 NA
ATOM     25  H   UNL     1       4.663  -0.859  -5.690  0.00  0.00    +0.118 HD
ATOM     26  H   UNL     1       4.536   0.748  -5.433  0.00  0.00    +0.118 HD
ENDBRANCH  23  24
BRANCH  23  27
ATOM     27  C   UNL     1       2.797  -0.289  -3.753  0.00  0.00    +0.020 C 
BRANCH  27  28
ATOM     28  C   UNL     1       2.126  -1.284  -4.718  0.00  0.00    +0.031 C 
BRANCH  28  29
ATOM     29  CA  UNL     1       0.592  -1.191  -4.705  0.00  0.00    +0.161 C 
BRANCH  29  30
ATOM     30  N   UNL     1       0.125   0.110  -5.269  0.00  0.00    -0.318 NA
ATOM     31  H1  UNL     1      -0.894   0.153  -5.147  0.00  0.00    +0.119 HD
ATOM     32  H2  UNL     1       0.469   0.861  -4.666  0.00  0.00    +0.119 HD
ENDBRANCH  29  30
BRANCH  29  33
ATOM     33  C   UNL     1       0.002  -2.320  -5.568  0.00  0.00    +0.322 C 
ATOM     34  OXT UNL     1      -0.178  -3.467  -5.198  0.00  0.00    -0.249 OA
BRANCH  33  35
ATOM     35  O   UNL     1      -0.284  -1.881  -6.823  0.00  0.00    -0.480 OA
ATOM     36  H   UNL     1      -0.064  -0.917  -6.840  0.00  0.00    +0.295 HD
ENDBRANCH  33  35
ENDBRANCH  29  33
ENDBRANCH  28  29
ENDBRANCH  27  28
ENDBRANCH  23  27
ENDBRANCH  22  23
ENDBRANCH   1  22
TORSDOF 12
