REMARK  Name = 
REMARK  10 active torsions:
REMARK  status: ('A' for Active; 'I' for Inactive)
REMARK    1  A    between atoms: C_1  and  C_2
REMARK    2  A    between atoms: C_2  and  C_3
REMARK    3  A    between atoms: C_2  and  C_4
REMARK    4  A    between atoms: C_2  and  C_5
REMARK    5  A    between atoms: C_5  and  O_7
REMARK    6  A    between atoms: O_7  and  C_8
REMARK    7  A    between atoms: C_8  and  C_9
REMARK    8  A    between atoms: C_9  and  C_11
REMARK    9  A    between atoms: C_24  and  C_25
REMARK   10  A    between atoms: C_29  and  C_30
REMARK                            x       y       z     vdW  Elec       q    Type
REMARK                         _______ _______ _______ _____ _____    ______ ____
ROOT
ATOM      1  C   UNL     1       8.476   3.035  -1.650  0.00  0.00    +0.065 C 
ATOM      2  C   UNL     1      10.051   2.957  -1.691  0.00  0.00    -0.019 C 
ATOM      3  C   UNL     1      10.527   3.111  -0.220  0.00  0.00    +0.012 C 
ATOM      4  C   UNL     1      10.383   4.107  -2.695  0.00  0.00    -0.001 C 
ATOM      5  C   UNL     1      11.754   4.679  -2.405  0.00  0.00    -0.003 C 
ATOM      6  C   UNL     1      12.765   3.697  -3.061  0.00  0.00    +0.002 C 
ATOM      7  C   UNL     1      12.418   2.210  -2.565  0.00  0.00    +0.005 C 
ATOM      8  C   UNL     1      14.291   4.217  -2.960  0.00  0.00    -0.007 C 
ATOM      9  C   UNL     1      15.007   3.497  -1.797  0.00  0.00    +0.016 C 
ATOM     10  C   UNL     1      14.416   5.769  -2.822  0.00  0.00    -0.060 C 
ATOM     11  C   UNL     1      15.420   6.505  -3.320  0.00  0.00    +0.046 C 
ATOM     12  C   UNL     1      16.511   5.904  -4.120  0.00  0.00    +0.156 C 
ATOM     13  C   UNL     1      16.506   4.414  -4.305  0.00  0.00    +0.080 C 
ATOM     14  O   UNL     1      17.394   6.632  -4.577  0.00  0.00    -0.293 OA
ATOM     15  C   UNL     1      13.282   6.556  -2.215  0.00  0.00    +0.032 C 
ATOM     16  C   UNL     1      15.071   3.859  -4.274  0.00  0.00    +0.019 C 
ATOM     17  C   UNL     1      11.964   6.116  -2.829  0.00  0.00    +0.008 C 
ATOM     18  C   UNL     1       9.126   4.916  -2.925  0.00  0.00    +0.005 C 
ATOM     19  C   UNL     1      10.878   1.806  -2.325  0.00  0.00    +0.008 C 
ATOM     20  C   UNL     1       8.090   3.792  -2.919  0.00  0.00    +0.012 C 
ENDROOT
BRANCH   1  21
ATOM     21  C   UNL     1       7.567   1.843  -1.344  0.00  0.00    +0.174 C 
ATOM     22  O   UNL     1       8.013   0.719  -1.115  0.00  0.00    -0.293 OA
BRANCH  21  23
ATOM     23  C   UNL     1       6.057   2.183  -1.170  0.00  0.00    +0.306 C 
BRANCH  23  24
ATOM     24  O   UNL     1       5.145   1.089  -1.093  0.00  0.00    -0.457 OA
BRANCH  24  25
ATOM     25  C   UNL     1       4.911   0.477  -2.288  0.00  0.00    +0.313 C 
ATOM     26  O   UNL     1       5.452   0.811  -3.336  0.00  0.00    -0.250 OA
BRANCH  25  28
ATOM     27  C   UNL     1       3.810  -1.446  -3.462  0.00  0.00    +0.022 C 
ATOM     28  C   UNL     1       3.822  -0.601  -2.179  0.00  0.00    +0.059 C 
ATOM     29  C   UNL     1       4.090  -1.527  -0.986  0.00  0.00    +0.022 C 
ATOM     30  C   UNL     1       2.449   0.069  -2.024  0.00  0.00    +0.022 C 
ENDBRANCH  25  28
ENDBRANCH  24  25
ENDBRANCH  23  24
ENDBRANCH  21  23
ENDBRANCH   1  21
TORSDOF 5
