REMARK  Name = 
REMARK  7 active torsions:
REMARK  status: ('A' for Active; 'I' for Inactive)
REMARK    1  A    between atoms: C_1  and  P_2
REMARK    2  A    between atoms: P_2  and  O_3
REMARK    3  A    between atoms: P_2  and  C_5
REMARK    4  A    between atoms: C_5  and  C_6
REMARK    5  A    between atoms: C_6  and  C_8
REMARK    6  A    between atoms: C_8  and  C_9
REMARK    7  A    between atoms: C_9  and  O_10
REMARK                            x       y       z     vdW  Elec       q    Type
REMARK                         _______ _______ _______ _____ _____    ______ ____
ROOT
ATOM      1  C   UNL     1       5.374  -1.241   0.473  0.00  0.00    +0.153 C 
ATOM      2  O   UNL     1       4.795  -2.086   1.162  0.00  0.00    -0.296 OA
ENDROOT
BRANCH   1   3
ATOM      3  C   UNL     1       4.730   0.069   0.018  0.00  0.00    +0.171 C 
BRANCH   3   5
ATOM      4  C   UNL     1       1.070   0.069   0.018  0.00  0.00    +0.111 C 
ATOM      5  P   UNL     1       2.900   0.069   0.018  0.00  0.00    +0.206 P 
ATOM      6  O   UNL     1       2.894   0.667  -1.397  0.00  0.00    -0.291 OA
BRANCH   5   7
ATOM      7  O   UNL     1       2.813  -1.555  -0.250  0.00  0.00    -0.343 OA
ATOM      8  H   UNL     1       2.446  -1.805  -1.120  0.00  0.00    +0.218 HD
ENDBRANCH   5   7
ENDBRANCH   3   5
ENDBRANCH   1   3
BRANCH   1   9
ATOM      9  C   UNL     1       6.824  -1.469   0.142  0.00  0.00    +0.195 C 
BRANCH   9  10
ATOM     10  C   UNL     1       7.336  -2.888   0.234  0.00  0.00    +0.312 C 
ATOM     11  O   UNL     1       8.535  -3.144   0.133  0.00  0.00    -0.251 OA
BRANCH  10  12
ATOM     12  O   UNL     1       6.423  -3.863   0.409  0.00  0.00    -0.480 OA
ATOM     13  H   UNL     1       5.519  -3.533   0.639  0.00  0.00    +0.295 HD
ENDBRANCH  10  12
ENDBRANCH   9  10
ENDBRANCH   1   9
TORSDOF 6
