REMARK  Name = 
REMARK  18 active torsions:
REMARK  status: ('A' for Active; 'I' for Inactive)
REMARK    1  A    between atoms: C_1  and  C_2
REMARK    2  A    between atoms: C_2  and  C_3
REMARK    3  A    between atoms: C_3  and  O_4
REMARK    4  A    between atoms: C_6  and  O_8
REMARK    5  A    between atoms: O_8  and  C_9
REMARK    6  A    between atoms: C_12  and  N_44
REMARK    7  A    between atoms: C_14  and  O_16
REMARK    8  A    between atoms: O_16  and  C_17
REMARK    9  A    between atoms: C_20  and  O_22
REMARK   10  A    between atoms: C_23  and  O_25
REMARK   11  A    between atoms: O_25  and  C_26
REMARK   12  A    between atoms: C_32  and  C_34
REMARK   13  A    between atoms: C_36  and  C_38
REMARK   14  A    between atoms: C_40  and  C_42
REMARK   15  A    between atoms: N_44  and  C_45
REMARK   16  A    between atoms: N_44  and  C_46
REMARK   17  A    between atoms: C_48  and  O_49
REMARK   18  A    between atoms: C_61  and  O_62
REMARK                            x       y       z     vdW  Elec       q    Type
REMARK                         _______ _______ _______ _____ _____    ______ ____
ROOT
ATOM      1  O   UNL     1       4.256  -1.795  -0.016  0.00  0.00    -0.343 OA
ENDROOT
BRANCH   1  19
ATOM      2  C   UNL     1       3.223   1.066  -0.603  0.00  0.00    +0.072 C 
ATOM      3  C   UNL     1       4.416   1.993  -0.258  0.00  0.00    +0.070 C 
ATOM      4  C   UNL     1       5.719   1.245   0.019  0.00  0.00    -0.035 A 
ATOM      5  C   UNL     1       5.870  -0.118  -0.286  0.00  0.00    +0.027 A 
ATOM      6  C   UNL     1       7.072  -0.768   0.062  0.00  0.00    +0.134 A 
ATOM      7  C   UNL     1       8.186  -0.082   0.559  0.00  0.00    +0.075 A 
ATOM      8  C   UNL     1       9.498  -0.769   0.746  0.00  0.00    +0.202 C 
ATOM      9  O   UNL     1       9.700  -1.883   0.280  0.00  0.00    -0.286 OA
ATOM     10  C   UNL     1      10.604  -0.049   1.419  0.00  0.00    +0.075 A 
ATOM     11  C   UNL     1      10.446   1.314   1.700  0.00  0.00    +0.037 A 
ATOM     12  C   UNL     1      11.499   2.034   2.281  0.00  0.00    +0.012 A 
ATOM     13  C   UNL     1      12.705   1.402   2.582  0.00  0.00    +0.004 A 
ATOM     14  C   UNL     1      12.866   0.047   2.319  0.00  0.00    +0.046 A 
ATOM     15  C   UNL     1       9.187   2.018   1.379  0.00  0.00    +0.195 C 
ATOM     16  O   UNL     1       9.087   3.224   1.578  0.00  0.00    -0.287 OA
ATOM     17  C   UNL     1      11.819  -0.677   1.748  0.00  0.00    +0.128 A 
ATOM     18  C   UNL     1       8.044   1.271   0.821  0.00  0.00    +0.037 A 
ATOM     19  C   UNL     1       4.772  -0.891  -0.988  0.00  0.00    +0.158 C 
ATOM     20  C   UNL     1       6.819   1.930   0.572  0.00  0.00    +0.016 A 
ATOM     21  C   UNL     1       3.719   0.021  -1.608  0.00  0.00    +0.071 C 
BRANCH   2  23
ATOM     22  C   UNL     1       1.338   2.832  -0.392  0.00  0.00    +0.007 C 
ATOM     23  C   UNL     1       2.018   1.777  -1.252  0.00  0.00    +0.032 C 
ENDBRANCH   2  23
BRANCH   2  24
ATOM     24  O   UNL     1       2.724   0.452   0.589  0.00  0.00    -0.388 OA
ATOM     25  H   UNL     1       3.394  -0.166   0.944  0.00  0.00    +0.210 HD
ENDBRANCH   2  24
BRANCH  17  26
ATOM     26  O   UNL     1      12.009  -2.013   1.530  0.00  0.00    -0.506 OA
ATOM     27  H   UNL     1      12.920  -2.273   1.733  0.00  0.00    +0.292 HD
ENDBRANCH  17  26
BRANCH   6  28
ATOM     28  O   UNL     1       7.171  -2.119  -0.027  0.00  0.00    -0.506 OA
ATOM     29  H   UNL     1       6.312  -2.570  -0.143  0.00  0.00    +0.292 HD
ENDBRANCH   6  28
ENDBRANCH   1  19
BRANCH   1  30
ATOM     30  C   UNL     1       3.219  -2.673  -0.443  0.00  0.00    +0.253 C 
ATOM     31  O   UNL     1       2.694  -3.370   0.683  0.00  0.00    -0.346 OA
ATOM     32  C   UNL     1       3.485  -4.453   1.174  0.00  0.00    +0.149 C 
ATOM     33  C   UNL     1       4.632  -3.971   2.053  0.00  0.00    +0.041 C 
ATOM     34  C   UNL     1       3.877  -5.433   0.045  0.00  0.00    +0.167 C 
ATOM     35  C   UNL     1       4.575  -4.737  -1.157  0.00  0.00    +0.092 C 
ATOM     36  C   UNL     1       3.611  -3.615  -1.589  0.00  0.00    +0.083 C 
BRANCH  35  37
ATOM     37  N   UNL     1       5.974  -4.300  -0.957  0.00  0.00    -0.303 NA
ATOM     38  C   UNL     1       6.836  -5.341  -0.360  0.00  0.00    +0.105 C 
ATOM     39  C   UNL     1       6.620  -3.923  -2.237  0.00  0.00    +0.105 C 
ENDBRANCH  35  37
BRANCH  34  40
ATOM     40  O   UNL     1       2.631  -6.024  -0.390  0.00  0.00    -0.344 OA
BRANCH  40  41
ATOM     41  C   UNL     1       2.696  -7.034  -1.381  0.00  0.00    +0.254 C 
ATOM     42  O   UNL     1       1.377  -7.329  -1.837  0.00  0.00    -0.346 OA
ATOM     43  C   UNL     1       0.522  -7.957  -0.882  0.00  0.00    +0.150 C 
ATOM     44  C   UNL     1      -0.108  -6.968   0.104  0.00  0.00    +0.041 C 
ATOM     45  C   UNL     1       1.186  -9.217  -0.279  0.00  0.00    +0.178 C 
ATOM     46  C   UNL     1       2.611  -8.936   0.241  0.00  0.00    +0.151 C 
ATOM     47  C   UNL     1       3.414  -8.285  -0.882  0.00  0.00    +0.095 C 
BRANCH  46  48
ATOM     48  O   UNL     1       2.645  -8.136   1.421  0.00  0.00    -0.389 OA
ATOM     49  H   UNL     1       2.307  -7.248   1.201  0.00  0.00    +0.210 HD
ENDBRANCH  46  48
BRANCH  45  50
ATOM     50  O   UNL     1       0.400  -9.918   0.689  0.00  0.00    -0.343 OA
BRANCH  50  51
ATOM     51  C   UNL     1      -0.911 -10.270   0.249  0.00  0.00    +0.252 C 
ATOM     52  O   UNL     1      -1.663 -10.844   1.315  0.00  0.00    -0.341 OA
ATOM     53  C   UNL     1      -1.225 -12.136   1.720  0.00  0.00    +0.184 C 
ATOM     54  C   UNL     1      -2.250 -12.647   2.721  0.00  0.00    +0.046 C 
ATOM     55  C   UNL     1      -1.087 -13.092   0.531  0.00  0.00    +0.162 C 
ATOM     56  O   UNL     1      -1.522 -14.242   0.514  0.00  0.00    -0.295 OA
ATOM     57  C   UNL     1      -0.304 -12.539  -0.628  0.00  0.00    +0.082 C 
ATOM     58  C   UNL     1      -0.921 -11.196  -0.974  0.00  0.00    +0.069 C 
ENDBRANCH  50  51
ENDBRANCH  45  50
ENDBRANCH  40  41
ENDBRANCH  34  40
ENDBRANCH   1  30
TORSDOF 12
