REMARK  Name = 
REMARK  16 active torsions:
REMARK  status: ('A' for Active; 'I' for Inactive)
REMARK    1  A    between atoms: N_1  and  CA_2
REMARK    2  A    between atoms: CA_2  and  CB_4
REMARK    3  A    between atoms: CA_2  and  C_24
REMARK    4  A    between atoms: CB_4  and  SG_5
REMARK    5  A    between atoms: SG_5  and  C_6
REMARK    6  A    between atoms: C_6  and  C_7
REMARK    7  A    between atoms: C_7  and  C_8
REMARK    8  A    between atoms: C_8  and  C_9
REMARK    9  A    between atoms: C_9  and  C_10
REMARK   10  A    between atoms: CA_11  and  N_12
REMARK   11  A    between atoms: CA_11  and  C_21
REMARK   12  A    between atoms: C_13  and  C_15
REMARK   13  A    between atoms: C_18  and  C_19
REMARK   14  A    between atoms: C_18  and  C_20
REMARK   15  A    between atoms: C_21  and  OXT_23
REMARK   16  A    between atoms: C_24  and  OXT_26
REMARK                            x       y       z     vdW  Elec       q    Type
REMARK                         _______ _______ _______ _____ _____    ______ ____
ROOT
ATOM      1  C   UNL     1       3.086  -6.315   6.560  0.00  0.00    +0.003 C 
ATOM      2  CA  UNL     1       3.254  -6.495   7.891  0.00  0.00    +0.114 C 
ENDROOT
BRANCH   2   3
ATOM      3  N   UNL     1       3.130  -5.426   8.779  0.00  0.00    -0.280 N 
ATOM      4  H   UNL     1       2.900  -4.529   8.373  0.00  0.00    +0.155 HD
ATOM      5  C   UNL     1       3.194  -5.452  10.153  0.00  0.00    +0.221 C 
ATOM      6  O   UNL     1       3.477  -6.458  10.789  0.00  0.00    -0.275 OA
BRANCH   5   7
ATOM      7  C   UNL     1       2.893  -4.167  10.872  0.00  0.00    +0.081 C 
ATOM      8  C   UNL     1       3.721  -3.630  12.049  0.00  0.00    -0.023 C 
ATOM      9  C   UNL     1       3.766  -2.145  12.322  0.00  0.00    +0.011 C 
ATOM     10  C   UNL     1       4.982  -4.340  12.480  0.00  0.00    +0.011 C 
ATOM     11  C   UNL     1       2.390  -4.292  12.302  0.00  0.00    +0.020 C 
ENDBRANCH   5   7
ENDBRANCH   2   3
BRANCH   2  12
ATOM     12  C   UNL     1       3.513  -7.943   8.262  0.00  0.00    +0.351 C 
ATOM     13  O   UNL     1       3.118  -8.877   7.574  0.00  0.00    -0.244 OA
BRANCH  12  14
ATOM     14  OXT UNL     1       4.331  -8.156   9.307  0.00  0.00    -0.476 OA
ATOM     15  HXT UNL     1       4.253  -7.452   9.991  0.00  0.00    +0.295 HD
ENDBRANCH  12  14
ENDBRANCH   2  12
BRANCH   1  16
ATOM     16  C   UNL     1       2.708  -5.043   5.863  0.00  0.00    +0.029 C 
BRANCH  16  17
ATOM     17  C   UNL     1       3.174  -4.898   4.403  0.00  0.00    +0.005 C 
BRANCH  17  18
ATOM     18  C   UNL     1       2.674  -3.535   3.905  0.00  0.00    +0.011 C 
BRANCH  18  19
ATOM     19  C   UNL     1       3.062  -3.188   2.473  0.00  0.00    +0.069 C 
BRANCH  19  20
ATOM     20  SG  UNL     1       2.340  -1.545   2.110  0.00  0.00    -0.159 S 
BRANCH  20  21
ATOM     21  CB  UNL     1       2.975  -1.305   0.415  0.00  0.00    +0.099 C 
BRANCH  21  22
ATOM     22  CA  UNL     1       2.544   0.064  -0.133  0.00  0.00    +0.170 C 
BRANCH  22  23
ATOM     23  N   UNL     1       1.058   0.248  -0.203  0.00  0.00    -0.318 NA
ATOM     24  H1  UNL     1       0.666  -0.536  -0.736  0.00  0.00    +0.119 HD
ATOM     25  H2  UNL     1       0.707   0.077   0.749  0.00  0.00    +0.119 HD
ENDBRANCH  22  23
BRANCH  22  26
ATOM     26  C   UNL     1       3.116   0.273  -1.540  0.00  0.00    +0.323 C 
ATOM     27  O   UNL     1       4.158  -0.196  -1.960  0.00  0.00    -0.249 OA
BRANCH  26  28
ATOM     28  OXT UNL     1       2.309   1.086  -2.276  0.00  0.00    -0.480 OA
ATOM     29  HXT UNL     1       1.526   1.293  -1.708  0.00  0.00    +0.295 HD
ENDBRANCH  26  28
ENDBRANCH  22  26
ENDBRANCH  21  22
ENDBRANCH  20  21
ENDBRANCH  19  20
ENDBRANCH  18  19
ENDBRANCH  17  18
ENDBRANCH  16  17
ENDBRANCH   1  16
TORSDOF 14
