REMARK  Name = 
REMARK  4 active torsions:
REMARK  status: ('A' for Active; 'I' for Inactive)
REMARK    1  A    between atoms: N_1  and  C_2
REMARK    2  A    between atoms: C_6  and  B_8
REMARK    3  A    between atoms: B_8  and  O_9
REMARK    4  A    between atoms: B_8  and  O_10
REMARK                            x       y       z     vdW  Elec       q    Type
REMARK                         _______ _______ _______ _____ _____    ______ ____
ROOT
ATOM      1  C   UNL     1       2.493   0.013   0.016  0.00  0.00    +0.000 A 
ATOM      2  C   UNL     1       3.178  -1.204  -0.111  0.00  0.00    +0.000 A 
ATOM      3  C   UNL     1       4.579  -1.222  -0.203  0.00  0.00    +0.000 A 
ATOM      4  C   UNL     1       5.291  -0.011  -0.169  0.00  0.00    +0.000 A 
ATOM      5  C   UNL     1       4.607   1.201  -0.050  0.00  0.00    +0.000 A 
ATOM      6  C   UNL     1       3.214   1.215   0.042  0.00  0.00    +0.000 A 
ENDROOT
BRANCH   1   7
ATOM      7  N   UNL     1       1.080   0.027   0.117  0.00  0.00    +0.000 N 
ATOM      8  H   UNL     1       0.543  -0.853   0.107  0.00  0.00    +0.000 HD
ATOM      9  H   UNL     1       0.569   0.916   0.214  0.00  0.00    +0.000 HD
ENDBRANCH   1   7
BRANCH   3  10
ATOM     10  B   UNL     1       5.347  -2.593  -0.344  0.00  0.00    +0.000 B 
BRANCH  10  11
ATOM     11  O   UNL     1       4.602  -3.847  -0.463  0.00  0.00    +0.000 OA
ATOM     12  H   UNL     1       4.231  -4.015   0.440  0.00  0.00    +0.000 HD
ENDBRANCH  10  11
BRANCH  10  13
ATOM     13  O   UNL     1       6.808  -2.619  -0.377  0.00  0.00    +0.000 OA
ATOM     14  H   UNL     1       7.049  -2.316  -1.288  0.00  0.00    +0.000 HD
ENDBRANCH  10  13
ENDBRANCH   3  10
TORSDOF 4
