REMARK  Name = 
REMARK  6 active torsions:
REMARK  status: ('A' for Active; 'I' for Inactive)
REMARK    1  A    between atoms: C_1  and  N_2
REMARK    2  A    between atoms: N_2  and  C_3
REMARK    3  A    between atoms: N_2  and  C_4
REMARK    4  A    between atoms: N_2  and  C_5
REMARK    5  A    between atoms: C_5  and  C_6
REMARK    6  A    between atoms: C_6  and  S_7
REMARK                            x       y       z     vdW  Elec       q    Type
REMARK                         _______ _______ _______ _____ _____    ______ ____
ROOT
ATOM      1  C   UNL     1       1.017   0.055   0.066  0.00  0.00    +0.192 C 
ATOM      2  N   UNL     1       2.550   0.032   0.106  0.00  0.00    +0.237 N 
ATOM      3  C   UNL     1       3.002  -1.418   0.234  0.00  0.00    +0.192 C 
ATOM      4  C   UNL     1       3.004   0.823   1.329  0.00  0.00    +0.192 C 
ENDROOT
BRANCH   2   5
ATOM      5  C   UNL     1       3.063   0.675  -1.206  0.00  0.00    +0.143 C 
BRANCH   5   6
ATOM      6  C   UNL     1       4.591   0.730  -1.324  0.00  0.00    +0.116 C 
BRANCH   6   7
ATOM      7  S   UNL     1       5.071   1.525  -2.886  0.00  0.00    -0.173 S 
ATOM      8  H   UNL     1       4.764   0.508  -3.708  0.00  0.00    +0.102 HD
ENDBRANCH   6   7
ENDBRANCH   5   6
ENDBRANCH   2   5
TORSDOF 3
