REMARK  Name = 
REMARK  9 active torsions:
REMARK  status: ('A' for Active; 'I' for Inactive)
REMARK    1  A    between atoms: C_2  and  C_3
REMARK    2  A    between atoms: C_14  and  C_15
REMARK    3  A    between atoms: C_15  and  N_17
REMARK    4  A    between atoms: C_15  and  C_18
REMARK    5  A    between atoms: C_18  and  C_20
REMARK    6  A    between atoms: C_18  and  O_21
REMARK    7  A    between atoms: N_22  and  C_23
REMARK    8  A    between atoms: C_23  and  C_24
REMARK    9  A    between atoms: C_24  and  O_25
REMARK                            x       y       z     vdW  Elec       q    Type
REMARK                         _______ _______ _______ _____ _____    ______ ____
ROOT
ATOM      1  C   UNL     1       9.882   1.076  -1.603  0.00  0.00    +0.073 C 
ATOM      2  C   UNL     1       8.637   0.668  -1.888  0.00  0.00    +0.263 C 
ATOM      3  C   UNL     1       7.689   1.431  -2.733  0.00  0.00    +0.378 C 
ATOM      4  O   UNL     1       7.861   2.530  -3.224  0.00  0.00    -0.237 OA
ATOM      5  N   UNL     1       6.643   0.554  -2.897  0.00  0.00    -0.150 N 
ATOM      6  C   UNL     1       6.953  -0.586  -2.218  0.00  0.00    +0.316 C 
ATOM      7  N   UNL     1       8.085  -0.550  -1.592  0.00  0.00    -0.037 NA
ENDROOT
BRANCH   1   8
ATOM      8  C   UNL     1      10.878   0.306  -0.917  0.00  0.00    +0.004 A 
ATOM      9  C   UNL     1      12.299   0.420  -1.042  0.00  0.00    +0.007 A 
ATOM     10  C   UNL     1      12.861  -0.571  -0.232  0.00  0.00    +0.047 A 
ATOM     11  C   UNL     1      14.242  -0.770  -0.117  0.00  0.00    +0.026 A 
ATOM     12  C   UNL     1      15.080   0.068  -0.853  0.00  0.00    +0.002 A 
ATOM     13  C   UNL     1      14.556   1.062  -1.674  0.00  0.00    +0.001 A 
ATOM     14  N   UNL     1      11.824  -1.248   0.364  0.00  0.00    -0.360 N 
ATOM     15  H   UNL     1      11.929  -2.032   0.992  0.00  0.00    +0.165 HD
ATOM     16  C   UNL     1      13.171   1.246  -1.783  0.00  0.00    +0.010 A 
ATOM     17  C   UNL     1      10.628  -0.718  -0.029  0.00  0.00    +0.091 A 
ENDBRANCH   1   8
BRANCH   5  18
ATOM     18  C   UNL     1       5.617   0.770  -3.908  0.00  0.00    +0.263 C 
BRANCH  18  19
ATOM     19  C   UNL     1       4.953   2.150  -3.880  0.00  0.00    +0.200 C 
BRANCH  19  20
ATOM     20  O   UNL     1       3.868   2.168  -4.807  0.00  0.00    -0.391 OA
ATOM     21  H   UNL     1       4.246   2.317  -5.692  0.00  0.00    +0.210 HD
ENDBRANCH  19  20
ENDBRANCH  18  19
ENDBRANCH   5  18
BRANCH   6  22
ATOM     22  C   UNL     1       6.055  -1.833  -2.191  0.00  0.00    +0.197 C 
BRANCH  22  23
ATOM     23  N   UNL     1       4.759  -1.477  -1.553  0.00  0.00    -0.316 NA
ATOM     24  H   UNL     1       4.313  -0.699  -2.031  0.00  0.00    +0.119 HD
ATOM     25  H   UNL     1       4.120  -2.269  -1.654  0.00  0.00    +0.119 HD
ENDBRANCH  22  23
BRANCH  22  26
ATOM     26  C   UNL     1       6.621  -3.039  -1.375  0.00  0.00    +0.140 C 
ATOM     27  C   UNL     1       7.989  -3.571  -1.778  0.00  0.00    +0.040 C 
BRANCH  26  28
ATOM     28  O   UNL     1       6.623  -2.752   0.030  0.00  0.00    -0.390 OA
ATOM     29  H   UNL     1       5.922  -2.081   0.152  0.00  0.00    +0.210 HD
ENDBRANCH  26  28
ENDBRANCH  22  26
ENDBRANCH   6  22
TORSDOF 8
