REMARK  Name = 
REMARK  6 active torsions:
REMARK  status: ('A' for Active; 'I' for Inactive)
REMARK    1  A    between atoms: C_1  and  C_2
REMARK    2  A    between atoms: C_2  and  C_3
REMARK    3  A    between atoms: C_2  and  C_4
REMARK    4  A    between atoms: C_11  and  N_12
REMARK    5  A    between atoms: C_13  and  C_18
REMARK    6  A    between atoms: C_18  and  O_19
REMARK                            x       y       z     vdW  Elec       q    Type
REMARK                         _______ _______ _______ _____ _____    ______ ____
ROOT
ATOM      1  C   UNL     1       2.861   0.969  -1.131  0.00  0.00    -0.044 A 
ATOM      2  C   UNL     1       2.623   2.351  -1.037  0.00  0.00    +0.007 A 
ATOM      3  C   UNL     1       2.970   3.216  -2.086  0.00  0.00    +0.047 A 
ATOM      4  C   UNL     1       3.558   2.713  -3.246  0.00  0.00    +0.141 A 
ATOM      5  O   UNL     1       3.845   3.602  -4.255  0.00  0.00    -0.437 OA
ATOM      6  C   UNL     1       4.402   3.117  -5.421  0.00  0.00    +0.233 A 
ATOM      7  C   UNL     1       4.698   1.780  -5.615  0.00  0.00    +0.085 A 
ATOM      8  C   UNL     1       4.424   0.823  -4.549  0.00  0.00    +0.202 A 
ATOM      9  O   UNL     1       4.705  -0.360  -4.687  0.00  0.00    -0.286 OA
ATOM     10  C   UNL     1       5.257   1.360  -6.819  0.00  0.00    +0.035 A 
ATOM     11  C   UNL     1       5.545   2.315  -7.793  0.00  0.00    +0.099 A 
ATOM     12  C   UNL     1       5.214   3.653  -7.536  0.00  0.00    +0.134 A 
ATOM     13  N   UNL     1       4.653   4.053  -6.368  0.00  0.00    -0.197 NA
ATOM     14  C   UNL     1       3.819   1.347  -3.325  0.00  0.00    +0.065 A 
ATOM     15  C   UNL     1       3.486   0.480  -2.284  0.00  0.00    +0.019 A 
ENDROOT
BRANCH   1  17
ATOM     16  C   UNL     1       1.340  -0.949  -0.587  0.00  0.00    +0.012 C 
ATOM     17  C   UNL     1       2.393   0.021  -0.039  0.00  0.00    +0.013 C 
ATOM     18  C   UNL     1       3.549  -0.754   0.600  0.00  0.00    +0.012 C 
ENDBRANCH   1  17
BRANCH  12  19
ATOM     19  N   UNL     1       5.561   4.682  -8.406  0.00  0.00    -0.342 N 
ATOM     20  H   UNL     1       5.408   4.440  -9.387  0.00  0.00    +0.144 HD
ATOM     21  H   UNL     1       5.119   5.549  -8.120  0.00  0.00    +0.144 HD
ENDBRANCH  12  19
BRANCH  11  22
ATOM     22  C   UNL     1       6.091   1.917  -9.110  0.00  0.00    +0.340 C 
ATOM     23  O   UNL     1       5.808   2.503 -10.143  0.00  0.00    -0.245 OA
BRANCH  22  24
ATOM     24  O   UNL     1       6.910   0.843  -9.080  0.00  0.00    -0.477 OA
ATOM     25  H   UNL     1       7.183   0.521  -8.201  0.00  0.00    +0.295 HD
ENDBRANCH  22  24
ENDBRANCH  11  22
TORSDOF 4
