REMARK  Name = 
REMARK  16 active torsions:
REMARK  status: ('A' for Active; 'I' for Inactive)
REMARK    1  A    between atoms: N_10  and  C_11
REMARK    2  A    between atoms: C_14  and  C_16
REMARK    3  A    between atoms: C_16  and  O_17
REMARK    4  A    between atoms: C_18  and  O_20
REMARK    5  A    between atoms: O_20  and  P_21
REMARK    6  A    between atoms: P_21  and  O_22
REMARK    7  A    between atoms: P_21  and  O_24
REMARK    8  A    between atoms: O_24  and  C_25
REMARK    9  A    between atoms: C_25  and  C_26
REMARK   10  A    between atoms: C_29  and  N_41
REMARK   11  A    between atoms: C_31  and  O_33
REMARK   12  A    between atoms: C_34  and  O_36
REMARK   13  A    between atoms: O_36  and  P_37
REMARK   14  A    between atoms: P_37  and  O_38
REMARK   15  A    between atoms: P_37  and  O_39
REMARK   16  A    between atoms: C_49  and  O_51
REMARK                            x       y       z     vdW  Elec       q    Type
REMARK                         _______ _______ _______ _____ _____    ______ ____
ROOT
ATOM      1  P   UNL     1       5.796 -10.210  -2.027  0.00  0.00    +0.475 P 
ATOM      2  O   UNL     1       6.297 -11.572  -2.501  0.00  0.00    -0.227 OA
ENDROOT
BRANCH   1   3
ATOM      3  O   UNL     1       4.367 -10.432  -1.267  0.00  0.00    -0.302 OA
ATOM      4  H   UNL     1       3.813  -9.636  -1.331  0.00  0.00    +0.222 HD
ENDBRANCH   1   3
BRANCH   1   5
ATOM      5  O   UNL     1       6.728 -10.354  -0.577  0.00  0.00    -0.284 OA
BRANCH   5   6
ATOM      6  C   UNL     1       6.025 -10.594   0.639  0.00  0.00    +0.206 C 
BRANCH   6   7
ATOM      7  C   UNL     1       6.979 -10.732   1.822  0.00  0.00    +0.179 C 
ATOM      8  C   UNL     1       8.020 -11.833   1.647  0.00  0.00    +0.194 C 
ATOM      9  C   UNL     1       9.320 -11.109   1.307  0.00  0.00    +0.196 C 
ATOM     10  C   UNL     1       8.894  -9.638   1.188  0.00  0.00    +0.255 C 
ATOM     11  O   UNL     1       7.699  -9.497   1.969  0.00  0.00    -0.346 OA
BRANCH  10  12
ATOM     12  N   UNL     1       9.889  -8.655   1.597  0.00  0.00    -0.271 N 
ATOM     13  C   UNL     1      10.982  -8.505   0.756  0.00  0.00    +0.331 A 
ATOM     14  O   UNL     1      11.222  -9.242  -0.199  0.00  0.00    -0.246 OA
ATOM     15  N   UNL     1      11.792  -7.430   1.023  0.00  0.00    -0.275 N 
ATOM     16  H   UNL     1      12.529  -7.247   0.361  0.00  0.00    +0.173 HD
ATOM     17  C   UNL     1      11.518  -6.442   1.924  0.00  0.00    +0.254 A 
ATOM     18  O   UNL     1      12.121  -5.376   1.953  0.00  0.00    -0.268 OA
ATOM     19  C   UNL     1      10.417  -6.715   2.859  0.00  0.00    +0.088 A 
ATOM     20  C   UNL     1       9.656  -7.790   2.648  0.00  0.00    +0.098 A 
ENDBRANCH  10  12
BRANCH   9  21
ATOM     21  O   UNL     1       9.856 -11.645   0.099  0.00  0.00    -0.385 OA
ATOM     22  H   UNL     1      10.554 -11.027  -0.207  0.00  0.00    +0.210 HD
ENDBRANCH   9  21
BRANCH   8  23
ATOM     23  O   UNL     1       8.145 -12.478   2.911  0.00  0.00    -0.278 OA
BRANCH  23  24
ATOM     24  P   UNL     1       8.813 -13.925   2.987  0.00  0.00    +0.473 P 
ATOM     25  O   UNL     1      10.260 -14.008   2.654  0.00  0.00    -0.228 OA
BRANCH  24  26
ATOM     26  O   UNL     1       8.462 -14.366   4.479  0.00  0.00    -0.303 OA
ATOM     27  H   UNL     1       8.933 -13.814   5.126  0.00  0.00    +0.222 HD
ENDBRANCH  24  26
BRANCH  24  28
ATOM     28  O   UNL     1       7.861 -14.852   2.108  0.00  0.00    -0.303 OA
ATOM     29  H   UNL     1       8.234 -15.014   1.221  0.00  0.00    +0.222 HD
ENDBRANCH  24  28
ENDBRANCH  23  24
ENDBRANCH   8  23
ENDBRANCH   6   7
ENDBRANCH   5   6
ENDBRANCH   1   5
BRANCH   1  30
ATOM     30  O   UNL     1       4.863 -10.065  -3.477  0.00  0.00    -0.278 OA
BRANCH  30  33
ATOM     31  C   UNL     1       4.937  -7.034  -5.015  0.00  0.00    +0.253 C 
ATOM     32  C   UNL     1       5.847  -7.881  -4.115  0.00  0.00    +0.196 C 
ATOM     33  C   UNL     1       5.543  -9.335  -4.492  0.00  0.00    +0.194 C 
ATOM     34  C   UNL     1       4.643  -9.222  -5.718  0.00  0.00    +0.178 C 
ATOM     35  O   UNL     1       4.741  -7.857  -6.189  0.00  0.00    -0.346 OA
BRANCH  31  43
ATOM     36  N   UNL     1      -0.122  -5.542  -1.989  0.00  0.00    -0.341 N 
ATOM     37  H   UNL     1      -0.358  -4.892  -2.730  0.00  0.00    +0.144 HD
ATOM     38  H   UNL     1      -0.374  -5.297  -1.040  0.00  0.00    +0.144 HD
ATOM     39  C   UNL     1       1.149  -6.083  -2.087  0.00  0.00    +0.147 A 
ATOM     40  C   UNL     1       1.894  -6.117  -3.281  0.00  0.00    +0.147 A 
ATOM     41  N   UNL     1       1.642  -5.625  -4.540  0.00  0.00    -0.231 NA
ATOM     42  C   UNL     1       2.710  -5.933  -5.244  0.00  0.00    +0.203 A 
ATOM     43  N   UNL     1       3.639  -6.628  -4.502  0.00  0.00    -0.286 N 
ATOM     44  C   UNL     1       3.137  -6.736  -3.228  0.00  0.00    +0.167 A 
ATOM     45  N   UNL     1       3.705  -7.296  -2.140  0.00  0.00    -0.216 NA
ATOM     46  C   UNL     1       2.932  -7.122  -1.045  0.00  0.00    +0.225 A 
ATOM     47  N   UNL     1       1.710  -6.572  -0.961  0.00  0.00    -0.219 NA
ENDBRANCH  31  43
BRANCH  32  48
ATOM     48  O   UNL     1       7.234  -7.608  -4.392  0.00  0.00    -0.385 OA
ATOM     49  H   UNL     1       7.439  -7.861  -5.312  0.00  0.00    +0.210 HD
ENDBRANCH  32  48
BRANCH  34  50
ATOM     50  C   UNL     1       5.084 -10.187  -6.815  0.00  0.00    +0.190 C 
BRANCH  50  51
ATOM     51  O   UNL     1       4.258 -10.053  -7.965  0.00  0.00    -0.392 OA
ATOM     52  H   UNL     1       4.318  -9.122  -8.246  0.00  0.00    +0.210 HD
ENDBRANCH  50  51
ENDBRANCH  34  50
ENDBRANCH  30  33
ENDBRANCH   1  30
TORSDOF 16
