REMARK  Name = 
REMARK  10 active torsions:
REMARK  status: ('A' for Active; 'I' for Inactive)
REMARK    1  A    between atoms: N_1  and  C_2
REMARK    2  A    between atoms: C_2  and  C_3
REMARK    3  A    between atoms: C_3  and  C_4
REMARK    4  A    between atoms: C_4  and  N_5
REMARK    5  A    between atoms: N_5  and  C_6
REMARK    6  A    between atoms: C_6  and  C_7
REMARK    7  A    between atoms: C_7  and  S_8
REMARK    8  A    between atoms: S_8  and  P_9
REMARK    9  A    between atoms: P_9  and  O_10
REMARK   10  A    between atoms: P_9  and  O_11
REMARK                            x       y       z     vdW  Elec       q    Type
REMARK                         _______ _______ _______ _____ _____    ______ ____
ROOT
ATOM      1  C   UNL     1       6.492   0.314  -2.779  0.00  0.00    +0.092 C 
ENDROOT
BRANCH   1   2
ATOM      2  N   UNL     1       5.021   0.295  -2.722  0.00  0.00    -0.315 NA
ATOM      3  H   UNL     1       4.666   1.172  -3.118  0.00  0.00    +0.122 HD
BRANCH   2   4
ATOM      4  C   UNL     1       4.533   0.126  -1.351  0.00  0.00    +0.082 C 
BRANCH   4   5
ATOM      5  C   UNL     1       3.007   0.140  -1.347  0.00  0.00    +0.030 C 
BRANCH   5   6
ATOM      6  C   UNL     1       2.454  -0.082   0.064  0.00  0.00    +0.079 C 
BRANCH   6   7
ATOM      7  N   UNL     1       0.990  -0.059   0.065  0.00  0.00    -0.330 NA
ATOM      8  H   UNL     1       0.641  -0.796  -0.554  0.00  0.00    +0.118 HD
ATOM      9  H   UNL     1       0.646  -0.278   0.999  0.00  0.00    +0.118 HD
ENDBRANCH   6   7
ENDBRANCH   5   6
ENDBRANCH   4   5
ENDBRANCH   2   4
ENDBRANCH   1   2
BRANCH   1  10
ATOM     10  C   UNL     1       7.000   0.596  -4.209  0.00  0.00    +0.096 C 
BRANCH  10  11
ATOM     11  S   UNL     1       6.388   2.203  -4.775  0.00  0.00    -0.040 S 
BRANCH  11  12
ATOM     12  P   UNL     1       7.091   2.515  -6.750  0.00  0.00    +0.386 P 
ATOM     13  O   UNL     1       7.604   2.744  -8.193  0.00  0.00    -0.246 OA
BRANCH  12  14
ATOM     14  O   UNL     1       6.361   3.990  -6.647  0.00  0.00    -0.316 OA
ATOM     15  H   UNL     1       6.964   4.688  -6.917  0.00  0.00    +0.221 HD
ENDBRANCH  12  14
BRANCH  12  16
ATOM     16  O   UNL     1       5.764   1.691  -7.254  0.00  0.00    -0.316 OA
ATOM     17  H   UNL     1       5.024   1.886  -6.648  0.00  0.00    +0.221 HD
ENDBRANCH  12  16
ENDBRANCH  11  12
ENDBRANCH  10  11
ENDBRANCH   1  10
TORSDOF 10
