REMARK  Name = 
REMARK  7 active torsions:
REMARK  status: ('A' for Active; 'I' for Inactive)
REMARK    1  A    between atoms: C_1  and  C_2
REMARK    2  A    between atoms: C_2  and  N_3
REMARK    3  A    between atoms: N_3  and  C_4
REMARK    4  A    between atoms: N_3  and  C_6
REMARK    5  A    between atoms: C_4  and  C_5
REMARK    6  A    between atoms: C_6  and  C_7
REMARK    7  A    between atoms: C_7  and  C_8
REMARK                            x       y       z     vdW  Elec       q    Type
REMARK                         _______ _______ _______ _____ _____    ______ ____
ROOT
ATOM      1  C   UNL     1       6.540   2.358   1.711  0.00  0.00    -0.021 A 
ATOM      2  C   UNL     1       7.355   3.058   0.765  0.00  0.00    +0.003 A 
ATOM      3  C   UNL     1       8.688   2.798   1.088  0.00  0.00    +0.047 A 
ATOM      4  C   UNL     1       9.762   3.334   0.367  0.00  0.00    +0.026 A 
ATOM      5  C   UNL     1       9.464   4.161  -0.720  0.00  0.00    +0.002 A 
ATOM      6  C   UNL     1       8.145   4.438  -1.069  0.00  0.00    +0.001 A 
ATOM      7  N   UNL     1       8.684   1.969   2.184  0.00  0.00    -0.360 N 
ATOM      8  H   UNL     1       9.516   1.615   2.637  0.00  0.00    +0.165 HD
ATOM      9  C   UNL     1       7.083   3.894  -0.337  0.00  0.00    +0.010 A 
ATOM     10  C   UNL     1       7.400   1.695   2.567  0.00  0.00    +0.087 A 
ENDROOT
BRANCH   1  11
ATOM     11  C   UNL     1       5.040   2.333   1.772  0.00  0.00    +0.052 C 
BRANCH  11  12
ATOM     12  C   UNL     1       4.453   1.166   0.957  0.00  0.00    +0.089 C 
BRANCH  12  13
ATOM     13  N   UNL     1       2.976   1.051   0.972  0.00  0.00    -0.303 NA
BRANCH  13  15
ATOM     14  C   UNL     1       1.064  -0.245  -0.063  0.00  0.00    +0.020 C 
ATOM     15  C   UNL     1       2.571  -0.041   0.066  0.00  0.00    +0.081 C 
ENDBRANCH  13  15
BRANCH  13  16
ATOM     16  C   UNL     1       2.402   0.947   2.322  0.00  0.00    +0.081 C 
ATOM     17  C   UNL     1       2.897  -0.214   3.179  0.00  0.00    +0.020 C 
ENDBRANCH  13  16
ENDBRANCH  12  13
ENDBRANCH  11  12
ENDBRANCH   1  11
TORSDOF 5
