REMARK  Name = 
REMARK  8 active torsions:
REMARK  status: ('A' for Active; 'I' for Inactive)
REMARK    1  A    between atoms: CA_2  and  N_3
REMARK    2  A    between atoms: CA_2  and  C_12
REMARK    3  A    between atoms: CA_2  and  C_31
REMARK    4  A    between atoms: N_14  and  CA_15
REMARK    5  A    between atoms: CA_20  and  C_22
REMARK    6  A    between atoms: C_22  and  O_23
REMARK    7  A    between atoms: C_25  and  C_26
REMARK    8  A    between atoms: C_25  and  C_27
REMARK                            x       y       z     vdW  Elec       q    Type
REMARK                         _______ _______ _______ _____ _____    ______ ____
ROOT
ATOM      1  CA  UNL     1       0.858   2.131   2.236  0.00  0.00    +0.191 C 
ENDROOT
BRANCH   1   2
ATOM      2  N   UNL     1       2.125   2.382   1.571  0.00  0.00    -0.284 N 
ATOM      3  H   UNL     1       2.544   3.305   1.609  0.00  0.00    +0.151 HD
ATOM      4  C   UNL     1       2.920   1.403   1.039  0.00  0.00    +0.311 C 
ATOM      5  N   UNL     1       4.097   1.871   0.479  0.00  0.00    -0.208 N 
ATOM      6  C   UNL     1       4.554   3.200   0.388  0.00  0.00    +0.310 C 
ATOM      7  O   UNL     1       3.975   4.205   0.770  0.00  0.00    -0.252 OA
ATOM      8  N   UNL     1       5.828   3.181  -0.167  0.00  0.00    -0.297 N 
ATOM      9  H   UNL     1       6.396   4.018  -0.116  0.00  0.00    +0.150 HD
ATOM     10  C   UNL     1       6.328   1.834  -0.175  0.00  0.00    +0.125 C 
ATOM     11  C   UNL     1       5.061   0.995  -0.154  0.00  0.00    +0.138 C 
ATOM     12  O   UNL     1       2.617   0.215   1.054  0.00  0.00    -0.252 OA
ENDBRANCH   1   2
BRANCH   1  13
ATOM     13  C   UNL     1      -0.163   3.232   1.954  0.00  0.00    -0.018 A 
ATOM     14  C   UNL     1      -1.529   2.933   2.079  0.00  0.00    +0.006 A 
ATOM     15  C   UNL     1      -2.492   3.941   2.002  0.00  0.00    +0.000 A 
ATOM     16  C   UNL     1      -2.106   5.264   1.799  0.00  0.00    +0.000 A 
ATOM     17  C   UNL     1      -0.762   5.574   1.626  0.00  0.00    +0.000 A 
ATOM     18  C   UNL     1       0.202   4.567   1.691  0.00  0.00    +0.006 A 
ENDBRANCH   1  13
BRANCH   1  19
ATOM     19  C   UNL     1       1.081   2.005   3.777  0.00  0.00    +0.239 C 
ATOM     20  N   UNL     1       1.602   3.135   4.377  0.00  0.00    -0.300 N 
ATOM     21  H   UNL     1       1.814   3.922   3.772  0.00  0.00    +0.150 HD
ATOM     22  O   UNL     1       0.777   1.007   4.425  0.00  0.00    -0.273 OA
BRANCH  20  23
ATOM     23  CA  UNL     1       1.906   3.253   5.829  0.00  0.00    +0.190 C 
ATOM     24  C   UNL     1       3.116   4.175   6.148  0.00  0.00    +0.165 C 
ATOM     25  N   UNL     1       2.237   4.982   7.019  0.00  0.00    -0.271 N 
ATOM     26  CA  UNL     1       2.330   6.449   6.847  0.00  0.00    +0.201 C 
ATOM     27  C   UNL     1       2.586   6.717   5.344  0.00  0.00    +0.042 C 
ATOM     28  C   UNL     1       1.273   6.690   4.533  0.00  0.00    +0.025 C 
ATOM     29  C   UNL     1       3.276   8.039   4.993  0.00  0.00    +0.025 C 
ATOM     30  S   UNL     1       3.644   5.306   4.784  0.00  0.00    -0.127 S 
ATOM     31  C   UNL     1       1.096   4.305   6.655  0.00  0.00    +0.240 C 
ATOM     32  O   UNL     1      -0.056   4.614   6.840  0.00  0.00    -0.273 OA
BRANCH  26  33
ATOM     33  C   UNL     1       3.409   6.957   7.827  0.00  0.00    +0.327 C 
ATOM     34  OXT UNL     1       3.967   8.041   7.774  0.00  0.00    -0.249 OA
BRANCH  33  35
ATOM     35  O   UNL     1       3.605   6.116   8.878  0.00  0.00    -0.479 OA
ATOM     36  H   UNL     1       2.994   5.351   8.820  0.00  0.00    +0.295 HD
ENDBRANCH  33  35
ENDBRANCH  26  33
ENDBRANCH  20  23
ENDBRANCH   1  19
TORSDOF 6
