REMARK  Name = 
REMARK  9 active torsions:
REMARK  status: ('A' for Active; 'I' for Inactive)
REMARK    1  A    between atoms: C_1  and  O_2
REMARK    2  A    between atoms: O_2  and  C_3
REMARK    3  A    between atoms: C_5  and  N_6
REMARK    4  A    between atoms: N_6  and  C_7
REMARK    5  A    between atoms: C_7  and  C_8
REMARK    6  A    between atoms: C_7  and  C_9
REMARK    7  A    between atoms: C_9  and  C_10
REMARK    8  A    between atoms: C_10  and  C_11
REMARK    9  A    between atoms: C_11  and  N_12
REMARK                            x       y       z     vdW  Elec       q    Type
REMARK                         _______ _______ _______ _____ _____    ______ ____
ROOT
ATOM      1  C   UNL     1       2.832  -1.103  -0.631  0.00  0.00    +0.123 A 
ATOM      2  C   UNL     1       2.613  -2.447  -0.369  0.00  0.00    +0.055 A 
ATOM      3  C   UNL     1       3.245  -3.430  -1.143  0.00  0.00    +0.006 A 
ATOM      4  C   UNL     1       4.159  -3.074  -2.168  0.00  0.00    +0.092 A 
ATOM      5  N   UNL     1       4.743  -4.031  -2.930  0.00  0.00    -0.253 NA
ATOM      6  C   UNL     1       4.406  -5.324  -2.713  0.00  0.00    +0.111 A 
ATOM      7  C   UNL     1       3.531  -5.746  -1.730  0.00  0.00    +0.020 A 
ATOM      8  C   UNL     1       4.427  -1.702  -2.380  0.00  0.00    +0.057 A 
ATOM      9  C   UNL     1       2.943  -4.780  -0.928  0.00  0.00    +0.011 A 
ATOM     10  C   UNL     1       3.733  -0.740  -1.629  0.00  0.00    +0.070 A 
ENDROOT
BRANCH   1  12
ATOM     11  C   UNL     1       0.998  -0.341   0.648  0.00  0.00    +0.277 C 
ATOM     12  O   UNL     1       2.260  -0.063   0.048  0.00  0.00    -0.495 OA
ENDBRANCH   1  12
BRANCH   8  13
ATOM     13  N   UNL     1       5.417  -1.311  -3.308  0.00  0.00    -0.340 N 
ATOM     14  H   UNL     1       5.890  -2.126  -3.702  0.00  0.00    +0.146 HD
BRANCH  13  15
ATOM     15  C   UNL     1       5.213  -0.168  -4.201  0.00  0.00    +0.067 C 
ATOM     16  C   UNL     1       6.001   1.027  -3.659  0.00  0.00    +0.028 C 
BRANCH  15  17
ATOM     17  C   UNL     1       5.721  -0.502  -5.620  0.00  0.00    +0.023 C 
BRANCH  17  18
ATOM     18  C   UNL     1       4.936  -1.597  -6.356  0.00  0.00    +0.017 C 
BRANCH  18  19
ATOM     19  C   UNL     1       3.449  -1.312  -6.571  0.00  0.00    +0.078 C 
BRANCH  19  20
ATOM     20  N   UNL     1       3.228  -0.116  -7.377  0.00  0.00    -0.330 NA
ATOM     21  H   UNL     1       2.225   0.034  -7.481  0.00  0.00    +0.118 HD
ATOM     22  H   UNL     1       3.585   0.705  -6.894  0.00  0.00    +0.118 HD
ENDBRANCH  19  20
ENDBRANCH  18  19
ENDBRANCH  17  18
ENDBRANCH  15  17
ENDBRANCH  13  15
ENDBRANCH   8  13
TORSDOF 7
