REMARK  Name = 
REMARK  35 active torsions:
REMARK  status: ('A' for Active; 'I' for Inactive)
REMARK    1  A    between atoms: C_1  and  C_2
REMARK    2  A    between atoms: C_2  and  C_3
REMARK    3  A    between atoms: C_2  and  C_4
REMARK    4  A    between atoms: C_2  and  C_40
REMARK    5  A    between atoms: C_4  and  O_5
REMARK    6  A    between atoms: O_5  and  P_6
REMARK    7  A    between atoms: P_6  and  O_7
REMARK    8  A    between atoms: P_6  and  O_9
REMARK    9  A    between atoms: O_9  and  P_10
REMARK   10  A    between atoms: P_10  and  O_11
REMARK   11  A    between atoms: P_10  and  O_13
REMARK   12  A    between atoms: O_13  and  C_14
REMARK   13  A    between atoms: C_14  and  C_15
REMARK   14  A    between atoms: C_18  and  N_30
REMARK   15  A    between atoms: C_20  and  O_22
REMARK   16  A    between atoms: C_23  and  O_25
REMARK   17  A    between atoms: O_25  and  P_26
REMARK   18  A    between atoms: P_26  and  O_27
REMARK   19  A    between atoms: P_26  and  O_28
REMARK   20  A    between atoms: C_40  and  O_42
REMARK   21  A    between atoms: C_40  and  C_43
REMARK   22  A    between atoms: N_45  and  C_46
REMARK   23  A    between atoms: C_46  and  C_47
REMARK   24  A    between atoms: C_47  and  C_48
REMARK   25  A    between atoms: N_50  and  C_51
REMARK   26  A    between atoms: C_51  and  C_52
REMARK   27  A    between atoms: C_52  and  S_53
REMARK   28  A    between atoms: S_53  and  C_54
REMARK   29  A    between atoms: C_54  and  C_55
REMARK   30  A    between atoms: C_55  and  C_56
REMARK   31  A    between atoms: C_56  and  C_57
REMARK   32  A    between atoms: C_57  and  C_58
REMARK   33  A    between atoms: N_60  and  C_61
REMARK   34  A    between atoms: C_61  and  C_62
REMARK   35  A    between atoms: C_62  and  C_63
REMARK                            x       y       z     vdW  Elec       q    Type
REMARK                         _______ _______ _______ _____ _____    ______ ____
ROOT
ATOM      1  C   UNL     1       8.300   5.488 -12.568  0.00  0.00    +0.016 C 
ATOM      2  C   UNL     1       9.461   4.932 -13.456  0.00  0.00    +0.024 C 
ATOM      3  C   UNL     1      10.537   6.029 -13.063  0.00  0.00    +0.016 C 
ENDROOT
BRANCH   2   4
ATOM      4  C   UNL     1       8.779   4.533 -14.950  0.00  0.00    +0.208 C 
BRANCH   4   5
ATOM      5  C   UNL     1       9.301   4.023 -16.456  0.00  0.00    +0.242 C 
ATOM      6  N   UNL     1       9.429   4.906 -17.567  0.00  0.00    -0.313 N 
ATOM      7  H   UNL     1       9.340   5.904 -17.448  0.00  0.00    +0.149 HD
ATOM      8  O   UNL     1       9.515   2.812 -16.610  0.00  0.00    -0.273 OA
BRANCH   6   9
ATOM      9  C   UNL     1      10.373   4.604 -18.667  0.00  0.00    +0.113 C 
BRANCH   9  10
ATOM     10  C   UNL     1      10.156   4.983 -20.130  0.00  0.00    +0.114 C 
BRANCH  10  11
ATOM     11  C   UNL     1       9.007   4.215 -20.665  0.00  0.00    +0.215 C 
ATOM     12  N   UNL     1       8.345   4.884 -21.667  0.00  0.00    -0.314 N 
ATOM     13  H   UNL     1       8.577   5.858 -21.827  0.00  0.00    +0.149 HD
ATOM     14  O   UNL     1       8.692   3.101 -20.272  0.00  0.00    -0.276 OA
BRANCH  12  15
ATOM     15  C   UNL     1       6.965   4.523 -21.902  0.00  0.00    +0.115 C 
BRANCH  15  16
ATOM     16  C   UNL     1       6.031   5.211 -20.894  0.00  0.00    +0.088 C 
BRANCH  16  17
ATOM     17  S   UNL     1       6.058   7.026 -21.150  0.00  0.00    -0.159 S 
BRANCH  17  18
ATOM     18  C   UNL     1       4.767   7.535 -19.960  0.00  0.00    +0.069 C 
BRANCH  18  19
ATOM     19  C   UNL     1       5.078   7.210 -18.502  0.00  0.00    +0.011 C 
BRANCH  19  20
ATOM     20  C   UNL     1       6.355   7.916 -18.040  0.00  0.00    +0.010 C 
BRANCH  20  21
ATOM     21  C   UNL     1       6.665   7.648 -16.589  0.00  0.00    +0.096 C 
BRANCH  21  22
ATOM     22  C   UNL     1       8.040   8.245 -16.241  0.00  0.00    +0.213 C 
ATOM     23  N   UNL     1       9.117   7.380 -16.374  0.00  0.00    -0.315 N 
ATOM     24  H   UNL     1       8.804   6.487 -16.005  0.00  0.00    +0.149 HD
ATOM     25  O   UNL     1       8.157   9.413 -15.885  0.00  0.00    -0.276 OA
BRANCH  23  26
ATOM     26  C   UNL     1      10.528   7.768 -16.087  0.00  0.00    +0.109 C 
BRANCH  26  27
ATOM     27  C   UNL     1      11.483   6.662 -15.575  0.00  0.00    +0.056 C 
BRANCH  27  28
ATOM     28  C   UNL     1      12.205   5.538 -16.230  0.00  0.00    -0.021 A 
ATOM     29  C   UNL     1      13.299   5.592 -17.107  0.00  0.00    +0.003 A 
ATOM     30  C   UNL     1      13.345   4.371 -17.783  0.00  0.00    +0.047 A 
ATOM     31  C   UNL     1      13.912   4.241 -19.041  0.00  0.00    +0.026 A 
ATOM     32  C   UNL     1      14.609   5.359 -19.510  0.00  0.00    +0.002 A 
ATOM     33  C   UNL     1      14.770   6.500 -18.722  0.00  0.00    +0.001 A 
ATOM     34  N   UNL     1      12.611   3.486 -17.042  0.00  0.00    -0.360 N 
ATOM     35  H   UNL     1      12.367   2.526 -17.292  0.00  0.00    +0.165 HD
ATOM     36  C   UNL     1      14.116   6.639 -17.503  0.00  0.00    +0.010 A 
ATOM     37  C   UNL     1      12.030   4.185 -16.014  0.00  0.00    +0.087 A 
ENDBRANCH  27  28
ENDBRANCH  26  27
ENDBRANCH  23  26
ENDBRANCH  21  22
ENDBRANCH  20  21
ENDBRANCH  19  20
ENDBRANCH  18  19
ENDBRANCH  17  18
ENDBRANCH  16  17
ENDBRANCH  15  16
ENDBRANCH  12  15
ENDBRANCH  10  11
ENDBRANCH   9  10
ENDBRANCH   6   9
ENDBRANCH   4   5
BRANCH   4  38
ATOM     38  O   UNL     1       7.773   5.463 -15.293  0.00  0.00    -0.382 OA
ATOM     39  H   UNL     1       7.366   5.876 -14.520  0.00  0.00    +0.210 HD
ENDBRANCH   4  38
ENDBRANCH   2   4
BRANCH   2  40
ATOM     40  C   UNL     1      10.026   3.622 -12.874  0.00  0.00    +0.181 C 
BRANCH  40  41
ATOM     41  O   UNL     1      10.717   3.885 -11.662  0.00  0.00    -0.286 OA
BRANCH  41  42
ATOM     42  P   UNL     1      11.931   2.946 -11.191  0.00  0.00    +0.483 P 
ATOM     43  O   UNL     1      12.492   3.332  -9.865  0.00  0.00    -0.227 OA
BRANCH  42  44
ATOM     44  O   UNL     1      11.122   1.565 -11.150  0.00  0.00    -0.302 OA
ATOM     45  H   UNL     1      10.441   1.681 -10.450  0.00  0.00    +0.222 HD
ENDBRANCH  42  44
BRANCH  42  46
ATOM     46  O   UNL     1      12.926   2.879 -12.430  0.00  0.00    -0.186 OA
BRANCH  46  47
ATOM     47  P   UNL     1      13.323   1.452 -13.324  0.00  0.00    +0.483 P 
ATOM     48  O   UNL     1      14.753   1.499 -12.787  0.00  0.00    -0.227 OA
BRANCH  47  49
ATOM     49  O   UNL     1      13.396   2.278 -14.703  0.00  0.00    -0.302 OA
ATOM     50  H   UNL     1      14.305   2.606 -14.843  0.00  0.00    +0.222 HD
ENDBRANCH  47  49
BRANCH  47  51
ATOM     51  O   UNL     1      13.720   0.026 -14.218  0.00  0.00    -0.284 OA
BRANCH  51  52
ATOM     52  C   UNL     1      12.938  -1.098 -13.820  0.00  0.00    +0.206 C 
BRANCH  52  53
ATOM     53  C   UNL     1      13.262  -2.326 -14.685  0.00  0.00    +0.179 C 
ATOM     54  C   UNL     1      13.121  -2.029 -16.175  0.00  0.00    +0.194 C 
ATOM     55  C   UNL     1      14.549  -1.971 -16.695  0.00  0.00    +0.196 C 
ATOM     56  C   UNL     1      15.439  -2.044 -15.452  0.00  0.00    +0.253 C 
ATOM     57  O   UNL     1      14.637  -2.723 -14.462  0.00  0.00    -0.346 OA
BRANCH  56  58
ATOM     58  N   UNL     1      16.672  -2.790 -15.655  0.00  0.00    -0.286 N 
ATOM     59  C   UNL     1      17.462  -2.735 -16.778  0.00  0.00    +0.167 A 
ATOM     60  N   UNL     1      17.213  -2.075 -17.924  0.00  0.00    -0.216 NA
ATOM     61  C   UNL     1      18.212  -2.269 -18.812  0.00  0.00    +0.225 A 
ATOM     62  N   UNL     1      19.341  -2.978 -18.653  0.00  0.00    -0.219 NA
ATOM     63  C   UNL     1      19.562  -3.597 -17.460  0.00  0.00    +0.147 A 
ATOM     64  N   UNL     1      20.736  -4.300 -17.279  0.00  0.00    -0.341 N 
ATOM     65  H   UNL     1      20.710  -4.977 -16.555  0.00  0.00    +0.144 HD
ATOM     66  H   UNL     1      21.167  -4.554 -18.177  0.00  0.00    +0.144 HD
ATOM     67  C   UNL     1      18.570  -3.503 -16.471  0.00  0.00    +0.147 A 
ATOM     68  N   UNL     1      18.462  -4.034 -15.204  0.00  0.00    -0.231 NA
ATOM     69  C   UNL     1      17.321  -3.580 -14.735  0.00  0.00    +0.203 A 
ENDBRANCH  56  58
BRANCH  55  70
ATOM     70  O   UNL     1      14.729  -0.788 -17.471  0.00  0.00    -0.385 OA
ATOM     71  H   UNL     1      15.672  -0.775 -17.746  0.00  0.00    +0.210 HD
ENDBRANCH  55  70
BRANCH  54  72
ATOM     72  O   UNL     1      12.415  -3.106 -16.819  0.00  0.00    -0.278 OA
BRANCH  72  73
ATOM     73  P   UNL     1      12.281  -2.880 -18.529  0.00  0.00    +0.473 P 
ATOM     74  O   UNL     1      12.160  -2.678 -20.060  0.00  0.00    -0.228 OA
BRANCH  73  75
ATOM     75  O   UNL     1      11.509  -4.325 -18.491  0.00  0.00    -0.303 OA
ATOM     76  H   UNL     1      12.125  -5.058 -18.326  0.00  0.00    +0.222 HD
ENDBRANCH  73  75
BRANCH  73  77
ATOM     77  O   UNL     1      10.930  -2.032 -18.165  0.00  0.00    -0.303 OA
ATOM     78  H   UNL     1      10.184  -2.546 -18.528  0.00  0.00    +0.222 HD
ENDBRANCH  73  77
ENDBRANCH  72  73
ENDBRANCH  54  72
ENDBRANCH  52  53
ENDBRANCH  51  52
ENDBRANCH  47  51
ENDBRANCH  46  47
ENDBRANCH  42  46
ENDBRANCH  41  42
ENDBRANCH  40  41
ENDBRANCH   2  40
TORSDOF 33
