REMARK  Name = 
REMARK  1 active torsions:
REMARK  status: ('A' for Active; 'I' for Inactive)
REMARK    1  A    between atoms: C_11  and  C_12
REMARK                            x       y       z     vdW  Elec       q    Type
REMARK                         _______ _______ _______ _____ _____    ______ ____
ROOT
ATOM      1 BR   UNL     1       0.981   0.004  -0.221  0.00  0.00    -0.050 Br
ATOM      2  C   UNL     1       2.869   0.004  -0.139  0.00  0.00    +0.019 A 
ATOM      3  C   UNL     1       3.560  -1.202  -0.128  0.00  0.00    +0.017 A 
ATOM      4  C   UNL     1       4.956  -1.198  -0.080  0.00  0.00    +0.025 A 
ATOM      5  C   UNL     1       5.668   0.010  -0.063  0.00  0.00    +0.043 A 
ATOM      6  N   UNL     1       7.066  -0.095  -0.113  0.00  0.00    -0.283 N 
ATOM      7  H   UNL     1       7.505  -0.976   0.120  0.00  0.00    +0.155 HD
ATOM      8  C   UNL     1       7.940   0.811  -0.656  0.00  0.00    +0.239 C 
ATOM      9  C   UNL     1       7.354   2.027  -1.353  0.00  0.00    +0.238 C 
ATOM     10  N   UNL     1       6.724   2.918  -0.386  0.00  0.00    -0.272 NA
ATOM     11  C   UNL     1       5.650   2.534   0.224  0.00  0.00    +0.093 C 
ATOM     12  O   UNL     1       9.146   0.557  -0.664  0.00  0.00    -0.273 OA
ATOM     13  C   UNL     1       4.963   1.224  -0.004  0.00  0.00    +0.024 A 
ATOM     14  C   UNL     1       3.559   1.213  -0.073  0.00  0.00    +0.027 A 
ENDROOT
BRANCH  11  15
ATOM     15  C   UNL     1       5.071   3.464   1.254  0.00  0.00    +0.089 A 
ATOM     16  N   UNL     1       4.372   2.889   2.265  0.00  0.00    -0.253 NA
ATOM     17  C   UNL     1       3.895   3.717   3.220  0.00  0.00    +0.111 A 
ATOM     18  C   UNL     1       4.067   5.092   3.208  0.00  0.00    +0.020 A 
ATOM     19  C   UNL     1       4.778   5.658   2.156  0.00  0.00    +0.004 A 
ATOM     20  C   UNL     1       5.299   4.833   1.163  0.00  0.00    +0.030 A 
ENDBRANCH  11  15
TORSDOF 1
