REMARK  Name = 
REMARK  16 active torsions:
REMARK  status: ('A' for Active; 'I' for Inactive)
REMARK    1  A    between atoms: C_1  and  C_2
REMARK    2  A    between atoms: C_2  and  C_3
REMARK    3  A    between atoms: C_2  and  C_4
REMARK    4  A    between atoms: C_5  and  C_6
REMARK    5  A    between atoms: N_8  and  C_9
REMARK    6  A    between atoms: C_15  and  C_36
REMARK    7  A    between atoms: C_16  and  C_29
REMARK    8  A    between atoms: N_17  and  C_18
REMARK    9  A    between atoms: C_18  and  C_19
REMARK   10  A    between atoms: C_19  and  C_20
REMARK   11  A    between atoms: C_20  and  O_21
REMARK   12  A    between atoms: C_20  and  C_22
REMARK   13  A    between atoms: C_22  and  C_23
REMARK   14  A    between atoms: C_23  and  O_24
REMARK   15  A    between atoms: C_23  and  C_25
REMARK   16  A    between atoms: C_25  and  C_26
REMARK                            x       y       z     vdW  Elec       q    Type
REMARK                         _______ _______ _______ _____ _____    ______ ____
ROOT
ATOM      1  C   UNL     1       2.818   1.584  -0.665  0.00  0.00    +0.035 A 
ATOM      2  N   UNL     1       3.733   1.598  -1.731  0.00  0.00    -0.342 N 
ATOM      3  C   UNL     1       3.902   2.911  -2.231  0.00  0.00    +0.058 A 
ATOM      4  C   UNL     1       3.258   3.765  -1.308  0.00  0.00    +0.020 A 
ATOM      5  C   UNL     1       2.613   2.927  -0.305  0.00  0.00    +0.066 A 
ENDROOT
BRANCH   3   6
ATOM      6  C   UNL     1       4.719   3.254  -3.462  0.00  0.00    -0.001 A 
ATOM      7  C   UNL     1       4.596   2.543  -4.675  0.00  0.00    +0.013 A 
ATOM      8  C   UNL     1       5.358   2.876  -5.812  0.00  0.00    +0.039 A 
ATOM      9  C   UNL     1       6.194   3.980  -5.783  0.00  0.00    +0.123 A 
ATOM     10  F   UNL     1       6.870   4.333  -6.887  0.00  0.00    -0.205 F 
ATOM     11  C   UNL     1       6.328   4.719  -4.621  0.00  0.00    +0.039 A 
ATOM     12  C   UNL     1       5.640   4.323  -3.460  0.00  0.00    +0.013 A 
ENDBRANCH   3   6
BRANCH   4  13
ATOM     13  C   UNL     1       3.280   5.251  -1.399  0.00  0.00    -0.015 A 
ATOM     14  C   UNL     1       3.220   5.919  -2.634  0.00  0.00    +0.008 A 
ATOM     15  C   UNL     1       3.436   7.302  -2.736  0.00  0.00    +0.001 A 
ATOM     16  C   UNL     1       3.575   8.073  -1.589  0.00  0.00    +0.000 A 
ATOM     17  C   UNL     1       3.533   7.453  -0.348  0.00  0.00    +0.001 A 
ATOM     18  C   UNL     1       3.433   6.057  -0.262  0.00  0.00    +0.008 A 
ENDBRANCH   4  13
BRANCH   5  19
ATOM     19  C   UNL     1       1.937   3.384   0.946  0.00  0.00    +0.251 C 
ATOM     20  N   UNL     1       0.620   3.006   1.150  0.00  0.00    -0.281 N 
ATOM     21  H   UNL     1       0.261   2.259   0.578  0.00  0.00    +0.155 HD
ATOM     22  O   UNL     1       2.586   3.994   1.787  0.00  0.00    -0.270 OA
BRANCH  20  23
ATOM     23  C   UNL     1      -0.208   3.454   2.217  0.00  0.00    +0.034 A 
ATOM     24  C   UNL     1      -1.342   2.711   2.570  0.00  0.00    +0.023 A 
ATOM     25  C   UNL     1      -2.189   3.135   3.609  0.00  0.00    +0.002 A 
ATOM     26  C   UNL     1      -1.927   4.319   4.286  0.00  0.00    +0.000 A 
ATOM     27  C   UNL     1      -0.817   5.081   3.931  0.00  0.00    +0.002 A 
ATOM     28  C   UNL     1       0.037   4.643   2.916  0.00  0.00    +0.023 A 
ENDBRANCH  20  23
ENDBRANCH   5  19
BRANCH   1  30
ATOM     29  C   UNL     1       0.858  -0.020  -0.686  0.00  0.00    +0.014 C 
ATOM     30  C   UNL     1       2.170   0.362   0.023  0.00  0.00    +0.030 C 
ATOM     31  C   UNL     1       2.957  -0.903   0.316  0.00  0.00    +0.014 C 
ENDBRANCH   1  30
BRANCH   2  32
ATOM     32  C   UNL     1       4.409   0.432  -2.288  0.00  0.00    +0.124 C 
BRANCH  32  33
ATOM     33  C   UNL     1       5.933   0.489  -2.455  0.00  0.00    +0.053 C 
BRANCH  33  34
ATOM     34  C   UNL     1       6.736   0.420  -1.158  0.00  0.00    +0.119 C 
BRANCH  34  35
ATOM     35  O   UNL     1       6.468  -0.845  -0.550  0.00  0.00    -0.392 OA
ATOM     36  H   UNL     1       7.250  -1.029   0.016  0.00  0.00    +0.210 HD
ENDBRANCH  34  35
BRANCH  34  37
ATOM     37  C   UNL     1       8.229   0.547  -1.516  0.00  0.00    +0.063 C 
BRANCH  37  38
ATOM     38  C   UNL     1       9.169   0.547  -0.306  0.00  0.00    +0.122 C 
BRANCH  38  39
ATOM     39  O   UNL     1       8.968  -0.694   0.406  0.00  0.00    -0.391 OA
ATOM     40  H   UNL     1       9.676  -1.296   0.112  0.00  0.00    +0.210 HD
ENDBRANCH  38  39
BRANCH  38  41
ATOM     41  C   UNL     1      10.633   0.645  -0.722  0.00  0.00    +0.083 C 
BRANCH  41  42
ATOM     42  C   UNL     1      10.992   1.915  -1.488  0.00  0.00    +0.044 C 
ATOM     43  O   UNL     1      11.911   1.763  -2.341  0.00  0.00    -0.550 OA
ATOM     44  O   UNL     1      10.337   2.948  -1.185  0.00  0.00    -0.550 OA
ENDBRANCH  41  42
ENDBRANCH  38  41
ENDBRANCH  37  38
ENDBRANCH  34  37
ENDBRANCH  33  34
ENDBRANCH  32  33
ENDBRANCH   2  32
TORSDOF 14
