REMARK  Name = 
REMARK  15 active torsions:
REMARK  status: ('A' for Active; 'I' for Inactive)
REMARK    1  A    between atoms: O_1  and  C_2
REMARK    2  A    between atoms: C_4  and  O_6
REMARK    3  A    between atoms: C_7  and  O_9
REMARK    4  A    between atoms: O_9  and  P_10
REMARK    5  A    between atoms: P_10  and  O_11
REMARK    6  A    between atoms: P_10  and  O_12
REMARK    7  A    between atoms: C_14  and  O_16
REMARK    8  A    between atoms: O_16  and  P_17
REMARK    9  A    between atoms: P_17  and  O_18
REMARK   10  A    between atoms: P_17  and  O_19
REMARK   11  A    between atoms: C_21  and  O_23
REMARK   12  A    between atoms: C_24  and  O_26
REMARK   13  A    between atoms: O_26  and  P_27
REMARK   14  A    between atoms: P_27  and  O_28
REMARK   15  A    between atoms: P_27  and  O_29
REMARK                            x       y       z     vdW  Elec       q    Type
REMARK                         _______ _______ _______ _____ _____    ______ ____
ROOT
ATOM      1  C   UNL     1       2.675   0.128   0.074  0.00  0.00    +0.177 C 
ATOM      2  C   UNL     1       3.136   1.176  -0.936  0.00  0.00    +0.192 C 
ATOM      3  C   UNL     1       2.783   0.765  -2.381  0.00  0.00    +0.178 C 
ATOM      4  C   UNL     1       3.319  -0.620  -2.723  0.00  0.00    +0.193 C 
ATOM      5  C   UNL     1       2.640  -1.607  -1.763  0.00  0.00    +0.193 C 
ATOM      6  C   UNL     1       3.112  -1.283  -0.326  0.00  0.00    +0.177 C 
ENDROOT
BRANCH   1   7
ATOM      7  O   UNL     1       3.165   0.425   1.389  0.00  0.00    -0.386 OA
ATOM      8  H   UNL     1       4.106   0.683   1.335  0.00  0.00    +0.210 HD
ENDBRANCH   1   7
BRANCH   3   9
ATOM      9  O   UNL     1       1.349   0.698  -2.520  0.00  0.00    -0.386 OA
ATOM     10  H   UNL     1       0.955   1.359  -1.912  0.00  0.00    +0.210 HD
ENDBRANCH   3   9
BRANCH   6  11
ATOM     11  O   UNL     1       2.547  -2.200   0.624  0.00  0.00    -0.386 OA
ATOM     12  H   UNL     1       2.683  -1.795   1.509  0.00  0.00    +0.210 HD
ENDBRANCH   6  11
BRANCH   2  13
ATOM     13  O   UNL     1       2.416   2.376  -0.752  0.00  0.00    -0.278 OA
BRANCH  13  14
ATOM     14  P   UNL     1       2.401   3.358   0.672  0.00  0.00    +0.473 P 
ATOM     15  O   UNL     1       2.388   4.236   1.947  0.00  0.00    -0.228 OA
BRANCH  14  16
ATOM     16  O   UNL     1       2.171   4.599  -0.367  0.00  0.00    -0.303 OA
ATOM     17  H   UNL     1       1.227   4.780  -0.523  0.00  0.00    +0.222 HD
ENDBRANCH  14  16
BRANCH  14  18
ATOM     18  O   UNL     1       4.033   3.397   0.540  0.00  0.00    -0.303 OA
ATOM     19  H   UNL     1       4.265   4.347   0.541  0.00  0.00    +0.222 HD
ENDBRANCH  14  18
ENDBRANCH  13  14
ENDBRANCH   2  13
BRANCH   4  20
ATOM     20  O   UNL     1       3.025  -0.896  -4.090  0.00  0.00    -0.278 OA
BRANCH  20  21
ATOM     21  P   UNL     1       3.683  -2.191  -4.773  0.00  0.00    +0.473 P 
ATOM     22  O   UNL     1       5.016  -2.613  -4.261  0.00  0.00    -0.228 OA
BRANCH  21  23
ATOM     23  O   UNL     1       3.763  -1.780  -6.310  0.00  0.00    -0.303 OA
ATOM     24  H   UNL     1       4.677  -1.587  -6.560  0.00  0.00    +0.222 HD
ENDBRANCH  21  23
BRANCH  21  25
ATOM     25  O   UNL     1       2.548  -3.307  -4.774  0.00  0.00    -0.303 OA
ATOM     26  H   UNL     1       2.465  -3.756  -3.901  0.00  0.00    +0.222 HD
ENDBRANCH  21  25
ENDBRANCH  20  21
ENDBRANCH   4  20
BRANCH   5  27
ATOM     27  O   UNL     1       2.958  -2.922  -2.162  0.00  0.00    -0.278 OA
BRANCH  27  28
ATOM     28  P   UNL     1       2.205  -4.094  -1.135  0.00  0.00    +0.473 P 
ATOM     29  O   UNL     1       1.532  -5.142  -0.216  0.00  0.00    -0.228 OA
BRANCH  28  30
ATOM     30  O   UNL     1       3.726  -4.569  -0.754  0.00  0.00    -0.303 OA
ATOM     31  H   UNL     1       3.808  -4.520   0.218  0.00  0.00    +0.222 HD
ENDBRANCH  28  30
BRANCH  28  32
ATOM     32  O   UNL     1       2.164  -5.000  -2.499  0.00  0.00    -0.303 OA
ATOM     33  H   UNL     1       2.935  -5.602  -2.438  0.00  0.00    +0.222 HD
ENDBRANCH  28  32
ENDBRANCH  27  28
ENDBRANCH   5  27
TORSDOF 15
