REMARK  Name = 
REMARK  17 active torsions:
REMARK  status: ('A' for Active; 'I' for Inactive)
REMARK    1  A    between atoms: N_1  and  C_2
REMARK    2  A    between atoms: C_2  and  C_3
REMARK    3  A    between atoms: C_6  and  O_8
REMARK    4  A    between atoms: O_8  and  C_9
REMARK    5  A    between atoms: C_11  and  N_13
REMARK    6  A    between atoms: C_15  and  N_17
REMARK    7  A    between atoms: C_18  and  O_20
REMARK    8  A    between atoms: O_20  and  C_21
REMARK    9  A    between atoms: C_24  and  C_26
REMARK   10  A    between atoms: C_26  and  O_27
REMARK   11  A    between atoms: C_28  and  O_30
REMARK   12  A    between atoms: C_31  and  N_33
REMARK   13  A    between atoms: C_34  and  O_36
REMARK   14  A    between atoms: C_37  and  O_39
REMARK   15  A    between atoms: C_40  and  O_42
REMARK   16  A    between atoms: C_43  and  O_45
REMARK   17  A    between atoms: C_46  and  O_48
REMARK                            x       y       z     vdW  Elec       q    Type
REMARK                         _______ _______ _______ _____ _____    ______ ____
ROOT
ATOM      1  C   UNL     1       6.915   0.739  -1.237  0.00  0.00    +0.169 C 
ATOM      2  C   UNL     1       6.373   2.114  -1.732  0.00  0.00    +0.175 C 
ATOM      3  C   UNL     1       4.889   2.137  -2.207  0.00  0.00    +0.169 C 
ATOM      4  C   UNL     1       4.531   0.917  -3.096  0.00  0.00    +0.084 C 
ATOM      5  C   UNL     1       5.015  -0.398  -2.497  0.00  0.00    +0.042 C 
ATOM      6  C   UNL     1       6.515  -0.378  -2.238  0.00  0.00    +0.084 C 
ENDROOT
BRANCH   6   7
ATOM      7  N   UNL     1       6.901  -1.716  -1.760  0.00  0.00    -0.325 NA
ATOM      8  H   UNL     1       6.737  -2.406  -2.494  0.00  0.00    +0.119 HD
ATOM      9  H   UNL     1       7.906  -1.717  -1.583  0.00  0.00    +0.119 HD
ENDBRANCH   6   7
BRANCH   4  10
ATOM     10  N   UNL     1       3.081   0.768  -3.315  0.00  0.00    -0.325 NA
ATOM     11  H   UNL     1       2.870  -0.107  -3.791  0.00  0.00    +0.119 HD
ATOM     12  H   UNL     1       2.582   0.754  -2.425  0.00  0.00    +0.119 HD
ENDBRANCH   4  10
BRANCH   2  13
ATOM     13  O   UNL     1       6.492   3.127  -0.714  0.00  0.00    -0.387 OA
ATOM     14  H   UNL     1       6.514   2.727   0.184  0.00  0.00    +0.210 HD
ENDBRANCH   2  13
BRANCH   3  15
ATOM     15  O   UNL     1       4.695   3.405  -2.916  0.00  0.00    -0.341 OA
BRANCH  15  16
ATOM     16  C   UNL     1       3.327   3.705  -3.238  0.00  0.00    +0.281 C 
ATOM     17  C   UNL     1       3.172   5.035  -4.024  0.00  0.00    +0.189 C 
ATOM     18  C   UNL     1       3.360   6.266  -3.121  0.00  0.00    +0.116 C 
ATOM     19  C   UNL     1       2.533   6.128  -1.826  0.00  0.00    +0.165 C 
ATOM     20  C   UNL     1       2.825   4.767  -1.173  0.00  0.00    +0.177 C 
ATOM     21  O   UNL     1       2.499   3.699  -2.072  0.00  0.00    -0.341 OA
BRANCH  18  22
ATOM     22  N   UNL     1       3.011   7.530  -3.818  0.00  0.00    -0.323 NA
ATOM     23  H   UNL     1       2.061   7.468  -4.185  0.00  0.00    +0.119 HD
ATOM     24  H   UNL     1       2.976   8.260  -3.099  0.00  0.00    +0.119 HD
ENDBRANCH  18  22
BRANCH  17  25
ATOM     25  O   UNL     1       4.049   5.070  -5.157  0.00  0.00    -0.385 OA
ATOM     26  H   UNL     1       4.944   5.225  -4.806  0.00  0.00    +0.210 HD
ENDBRANCH  17  25
BRANCH  19  27
ATOM     27  O   UNL     1       2.853   7.227  -0.965  0.00  0.00    -0.388 OA
ATOM     28  H   UNL     1       2.621   6.956  -0.051  0.00  0.00    +0.210 HD
ENDBRANCH  19  27
BRANCH  20  29
ATOM     29  C   UNL     1       2.005   4.555   0.099  0.00  0.00    +0.190 C 
BRANCH  29  30
ATOM     30  O   UNL     1       2.324   5.536   1.083  0.00  0.00    -0.392 OA
ATOM     31  H   UNL     1       3.040   5.161   1.630  0.00  0.00    +0.210 HD
ENDBRANCH  29  30
ENDBRANCH  20  29
ENDBRANCH  15  16
ENDBRANCH   3  15
BRANCH   1  32
ATOM     32  O   UNL     1       8.369   0.687  -1.145  0.00  0.00    -0.341 OA
BRANCH  32  37
ATOM     33  C   UNL     1       9.037   2.397   2.032  0.00  0.00    +0.166 C 
ATOM     34  C   UNL     1      10.586   2.415   2.037  0.00  0.00    +0.176 C 
ATOM     35  C   UNL     1      11.165   2.503   0.612  0.00  0.00    +0.179 C 
ATOM     36  C   UNL     1      10.500   1.475  -0.313  0.00  0.00    +0.201 C 
ATOM     37  C   UNL     1       8.962   1.645  -0.257  0.00  0.00    +0.282 C 
ATOM     38  O   UNL     1       8.495   1.458   1.074  0.00  0.00    -0.342 OA
BRANCH  34  39
ATOM     39  O   UNL     1      11.083   1.260   2.732  0.00  0.00    -0.387 OA
ATOM     40  H   UNL     1      11.466   0.645   2.076  0.00  0.00    +0.210 HD
ENDBRANCH  34  39
BRANCH  35  41
ATOM     41  O   UNL     1      10.984   3.830   0.110  0.00  0.00    -0.386 OA
ATOM     42  H   UNL     1      11.297   3.855  -0.811  0.00  0.00    +0.210 HD
ENDBRANCH  35  41
BRANCH  36  43
ATOM     43  O   UNL     1      10.912   0.156   0.082  0.00  0.00    -0.384 OA
ATOM     44  H   UNL     1      10.188  -0.438  -0.203  0.00  0.00    +0.210 HD
ENDBRANCH  36  43
BRANCH  33  45
ATOM     45  C   UNL     1       8.447   3.818   1.842  0.00  0.00    +0.112 C 
BRANCH  45  46
ATOM     46  N   UNL     1       6.984   3.838   2.013  0.00  0.00    -0.328 NA
ATOM     47  H   UNL     1       6.772   3.712   3.003  0.00  0.00    +0.118 HD
ATOM     48  H   UNL     1       6.655   4.774   1.766  0.00  0.00    +0.118 HD
ENDBRANCH  45  46
ENDBRANCH  33  45
ENDBRANCH  32  37
ENDBRANCH   1  32
TORSDOF 17
