REMARK  Name = 
REMARK  11 active torsions:
REMARK  status: ('A' for Active; 'I' for Inactive)
REMARK    1  A    between atoms: C_1  and  C_2
REMARK    2  A    between atoms: C_2  and  C_4
REMARK    3  A    between atoms: C_2  and  N_11
REMARK    4  A    between atoms: C_4  and  C_5
REMARK    5  A    between atoms: C_12  and  C_14
REMARK    6  A    between atoms: C_14  and  N_16
REMARK    7  A    between atoms: C_14  and  C_17
REMARK    8  A    between atoms: C_17  and  C_18
REMARK    9  A    between atoms: C_18  and  C_19
REMARK   10  A    between atoms: C_19  and  C_20
REMARK   11  A    between atoms: C_20  and  N_21
REMARK                            x       y       z     vdW  Elec       q    Type
REMARK                         _______ _______ _______ _____ _____    ______ ____
ROOT
ATOM      1  N   UNL     1       3.175  -1.338   0.254  0.00  0.00    -0.311 N 
ATOM      2  H   UNL     1       2.679  -2.152   0.613  0.00  0.00    +0.149 HD
ATOM      3  C   UNL     1       4.546  -1.475   0.235  0.00  0.00    +0.230 C 
ATOM      4  O   UNL     1       5.323  -0.549   0.028  0.00  0.00    -0.274 OA
ENDROOT
BRANCH   1   6
ATOM      5  C   UNL     1       1.054  -0.320  -0.332  0.00  0.00    +0.028 C 
ATOM      6  C   UNL     1       2.488  -0.055   0.127  0.00  0.00    +0.074 C 
BRANCH   6   7
ATOM      7  C   UNL     1       2.541   0.746   1.449  0.00  0.00    +0.057 C 
BRANCH   7   8
ATOM      8  C   UNL     1       1.931   2.132   1.390  0.00  0.00    -0.046 A 
ATOM      9  C   UNL     1       2.434   3.100   0.509  0.00  0.00    +0.004 A 
ATOM     10  C   UNL     1       1.881   4.384   0.473  0.00  0.00    +0.000 A 
ATOM     11  C   UNL     1       0.830   4.718   1.322  0.00  0.00    +0.000 A 
ATOM     12  C   UNL     1       0.329   3.769   2.211  0.00  0.00    +0.000 A 
ATOM     13  C   UNL     1       0.876   2.484   2.245  0.00  0.00    +0.004 A 
ENDBRANCH   7   8
ENDBRANCH   6   7
ENDBRANCH   1   6
BRANCH   3  14
ATOM     14  C   UNL     1       5.017  -2.933   0.453  0.00  0.00    +0.138 C 
BRANCH  14  15
ATOM     15  N   UNL     1       4.115  -3.588   1.441  0.00  0.00    -0.320 NA
ATOM     16  H   UNL     1       4.460  -4.533   1.615  0.00  0.00    +0.119 HD
ATOM     17  H   UNL     1       4.211  -3.094   2.330  0.00  0.00    +0.119 HD
ENDBRANCH  14  15
BRANCH  14  18
ATOM     18  C   UNL     1       4.987  -3.744  -0.851  0.00  0.00    +0.028 C 
BRANCH  18  19
ATOM     19  C   UNL     1       5.960  -3.203  -1.905  0.00  0.00    +0.003 C 
BRANCH  19  20
ATOM     20  C   UNL     1       5.939  -4.057  -3.177  0.00  0.00    +0.015 C 
BRANCH  20  21
ATOM     21  C   UNL     1       6.880  -3.487  -4.238  0.00  0.00    +0.077 C 
BRANCH  21  22
ATOM     22  N   UNL     1       6.842  -4.306  -5.444  0.00  0.00    -0.330 NA
ATOM     23  H   UNL     1       7.505  -3.935  -6.123  0.00  0.00    +0.118 HD
ATOM     24  H   UNL     1       7.153  -5.252  -5.228  0.00  0.00    +0.118 HD
ENDBRANCH  21  22
ENDBRANCH  20  21
ENDBRANCH  19  20
ENDBRANCH  18  19
ENDBRANCH  14  18
ENDBRANCH   3  14
TORSDOF 10
