REMARK  Name = 
REMARK  3 active torsions:
REMARK  status: ('A' for Active; 'I' for Inactive)
REMARK    1  A    between atoms: O_1  and  B_2
REMARK    2  A    between atoms: B_2  and  O_3
REMARK    3  A    between atoms: B_2  and  C_4
REMARK                            x       y       z     vdW  Elec       q    Type
REMARK                         _______ _______ _______ _____ _____    ______ ____
ROOT
ATOM      1  C   UNL     1       3.250  -0.179  -1.244  0.00  0.00    +0.000 A 
ATOM      2  C   UNL     1       3.254  -1.459  -1.827  0.00  0.00    +0.000 A 
ATOM      3  C   UNL     1       3.850  -1.664  -3.076  0.00  0.00    +0.000 A 
ATOM      4  C   UNL     1       4.450  -0.596  -3.750  0.00  0.00    +0.000 A 
ATOM      5  C   UNL     1       4.451   0.679  -3.178  0.00  0.00    +0.000 A 
ATOM      6  C   UNL     1       3.855   0.890  -1.930  0.00  0.00    +0.000 A 
ENDROOT
BRANCH   1   7
ATOM      7  B   UNL     1       2.581   0.057   0.165  0.00  0.00    +0.000 B 
BRANCH   7   8
ATOM      8  O   UNL     1       2.569   1.391   0.765  0.00  0.00    +0.000 OA
ATOM      9  H   UNL     1       3.201   1.330   1.525  0.00  0.00    +0.000 HD
ENDBRANCH   7   8
BRANCH   7  10
ATOM     10  O   UNL     1       1.976  -1.057   0.894  0.00  0.00    +0.000 OA
ATOM     11  H   UNL     1       1.012  -0.836   0.941  0.00  0.00    +0.000 HD
ENDBRANCH   7  10
ENDBRANCH   1   7
TORSDOF 3
