REMARK  Name = 
REMARK  3 active torsions:
REMARK  status: ('A' for Active; 'I' for Inactive)
REMARK    1  A    between atoms: O_1  and  C_2
REMARK    2  A    between atoms: C_2  and  C_4
REMARK    3  A    between atoms: C_4  and  C_5
REMARK                            x       y       z     vdW  Elec       q    Type
REMARK                         _______ _______ _______ _____ _____    ______ ____
ROOT
ATOM      1  C   UNL     1       4.661  -0.853   0.136  0.00  0.00    +0.013 A 
ATOM      2  C   UNL     1       5.671  -1.862   0.130  0.00  0.00    +0.006 A 
ATOM      3  C   UNL     1       5.594  -3.274   0.124  0.00  0.00    +0.010 A 
ATOM      4  C   UNL     1       6.755  -4.043   0.090  0.00  0.00    +0.001 A 
ATOM      5  C   UNL     1       7.992  -3.425   0.068  0.00  0.00    +0.002 A 
ATOM      6  C   UNL     1       8.100  -2.030   0.085  0.00  0.00    +0.027 A 
ATOM      7  C   UNL     1       6.934  -1.235   0.116  0.00  0.00    +0.056 A 
ATOM      8  N   UNL     1       6.704   0.143   0.136  0.00  0.00    -0.295 N 
ATOM      9  C   UNL     1       7.588   1.269   0.109  0.00  0.00    +0.061 A 
ATOM     10  C   UNL     1       7.019   2.561   0.135  0.00  0.00    +0.063 A 
ATOM     11  C   UNL     1       7.825   3.708   0.094  0.00  0.00    +0.015 A 
ATOM     12  C   UNL     1       9.207   3.581   0.028  0.00  0.00    +0.001 A 
ATOM     13  C   UNL     1       9.780   2.314   0.005  0.00  0.00    +0.002 A 
ATOM     14  C   UNL     1       5.550   2.749   0.201  0.00  0.00    +0.259 A 
ATOM     15  O   UNL     1       4.981   3.824   0.225  0.00  0.00    -0.267 OA
ATOM     16  N   UNL     1       4.739   1.585   0.216  0.00  0.00    -0.308 N 
ATOM     17  H   UNL     1       3.739   1.710   0.294  0.00  0.00    +0.170 HD
ATOM     18  C   UNL     1       8.979   1.165   0.045  0.00  0.00    +0.027 A 
ATOM     19  C   UNL     1       5.333   0.344   0.172  0.00  0.00    +0.123 A 
ENDROOT
BRANCH   1  20
ATOM     20  C   UNL     1       3.183  -1.096   0.089  0.00  0.00    +0.159 C 
BRANCH  20  21
ATOM     21  C   UNL     1       2.578  -1.283   1.462  0.00  0.00    +0.309 C 
ATOM     22  O   UNL     1       2.967  -0.711   2.470  0.00  0.00    -0.251 OA
BRANCH  21  23
ATOM     23  O   UNL     1       1.491  -2.090   1.469  0.00  0.00    -0.480 OA
ATOM     24  H   UNL     1       1.241  -2.485   0.611  0.00  0.00    +0.295 HD
ENDBRANCH  21  23
ENDBRANCH  20  21
ENDBRANCH   1  20
TORSDOF 3
