REMARK  Name = 
REMARK  12 active torsions:
REMARK  status: ('A' for Active; 'I' for Inactive)
REMARK    1  A    between atoms: O_1  and  C_2
REMARK    2  A    between atoms: C_2  and  C_3
REMARK    3  A    between atoms: C_3  and  C_4
REMARK    4  A    between atoms: C_4  and  O_6
REMARK    5  A    between atoms: C_4  and  C_7
REMARK    6  A    between atoms: C_7  and  O_9
REMARK    7  A    between atoms: C_7  and  C_10
REMARK    8  A    between atoms: C_10  and  O_12
REMARK    9  A    between atoms: C_10  and  C_13
REMARK   10  A    between atoms: C_14  and  P_15
REMARK   11  A    between atoms: P_15  and  O_16
REMARK   12  A    between atoms: P_15  and  O_17
REMARK                            x       y       z     vdW  Elec       q    Type
REMARK                         _______ _______ _______ _____ _____    ______ ____
ROOT
ATOM      1  C   UNL     1       6.479  -2.673   0.377  0.00  0.00    +0.169 C 
ENDROOT
BRANCH   1   2
ATOM      2  C   UNL     1       5.327  -3.642   0.255  0.00  0.00    +0.014 C 
ATOM      3  C   UNL     1       5.462  -4.973   0.103  0.00  0.00    +0.095 C 
BRANCH   3   4
ATOM      4  P   UNL     1       4.034  -6.109  -0.043  0.00  0.00    +0.351 P 
ATOM      5  O   UNL     1       2.826  -7.069  -0.166  0.00  0.00    -0.254 OA
BRANCH   4   6
ATOM      6  O   UNL     1       4.441  -6.707   1.434  0.00  0.00    -0.321 OA
ATOM      7  H   UNL     1       5.352  -6.552   1.730  0.00  0.00    +0.220 HD
ENDBRANCH   4   6
BRANCH   4   8
ATOM      8  O   UNL     1       5.032  -7.031  -0.956  0.00  0.00    -0.321 OA
ATOM      9  H   UNL     1       4.481  -7.661  -1.467  0.00  0.00    +0.220 HD
ENDBRANCH   4   8
ENDBRANCH   3   4
ENDBRANCH   1   2
BRANCH   1  10
ATOM     10  O   UNL     1       7.562  -3.359   1.002  0.00  0.00    -0.385 OA
ATOM     11  H   UNL     1       7.412  -3.289   1.960  0.00  0.00    +0.210 HD
ENDBRANCH   1  10
BRANCH   1  12
ATOM     12  C   UNL     1       6.901  -2.131  -1.008  0.00  0.00    +0.175 C 
BRANCH  12  13
ATOM     13  O   UNL     1       5.849  -1.380  -1.617  0.00  0.00    -0.386 OA
ATOM     14  H   UNL     1       5.111  -1.988  -1.782  0.00  0.00    +0.210 HD
ENDBRANCH  12  13
BRANCH  12  15
ATOM     15  C   UNL     1       8.195  -1.260  -0.911  0.00  0.00    +0.148 C 
BRANCH  15  16
ATOM     16  O   UNL     1       7.977  -0.156  -0.031  0.00  0.00    -0.389 OA
ATOM     17  H   UNL     1       8.858   0.171   0.219  0.00  0.00    +0.210 HD
ENDBRANCH  15  16
BRANCH  15  18
ATOM     18  C   UNL     1       8.608  -0.754  -2.302  0.00  0.00    +0.062 C 
BRANCH  18  19
ATOM     19  C   UNL     1       9.920   0.023  -2.300  0.00  0.00    +0.158 C 
BRANCH  19  20
ATOM     20  O   UNL     1      10.954  -0.757  -1.719  0.00  0.00    -0.395 OA
ATOM     21  H   UNL     1      11.789  -0.262  -1.847  0.00  0.00    +0.209 HD
ENDBRANCH  19  20
ENDBRANCH  18  19
ENDBRANCH  15  18
ENDBRANCH  12  15
ENDBRANCH   1  12
TORSDOF 12
