REMARK  Name = 
REMARK  7 active torsions:
REMARK  status: ('A' for Active; 'I' for Inactive)
REMARK    1  A    between atoms: C_1  and  C_2
REMARK    2  A    between atoms: N_5  and  C_11
REMARK    3  A    between atoms: C_7  and  C_9
REMARK    4  A    between atoms: C_14  and  N_15
REMARK    5  A    between atoms: C_19  and  C_28
REMARK    6  A    between atoms: N_21  and  C_22
REMARK    7  A    between atoms: C_28  and  O_29
REMARK                            x       y       z     vdW  Elec       q    Type
REMARK                         _______ _______ _______ _____ _____    ______ ____
ROOT
ATOM      1  C   UNL     1       1.640  -2.748  -2.139  0.00  0.00    +0.105 A 
ATOM      2  C   UNL     1       2.060  -4.080  -1.923  0.00  0.00    +0.171 A 
ATOM      3  F   UNL     1       3.219  -4.277  -1.271  0.00  0.00    -0.201 F 
ATOM      4  C   UNL     1       1.301  -5.214  -2.288  0.00  0.00    +0.092 A 
ATOM      5  C   UNL     1       0.011  -4.997  -2.812  0.00  0.00    +0.072 A 
ATOM      6  C   UNL     1      -0.850  -6.175  -3.107  0.00  0.00    +0.205 A 
ATOM      7  C   UNL     1      -0.300  -7.530  -2.910  0.00  0.00    +0.122 A 
ATOM      8  C   UNL     1       0.953  -7.617  -2.444  0.00  0.00    +0.105 A 
ATOM      9  O   UNL     1      -2.023  -6.057  -3.468  0.00  0.00    -0.286 OA
ATOM     10  C   UNL     1      -0.489  -3.697  -2.996  0.00  0.00    +0.075 A 
ATOM     11  N   UNL     1       1.786  -6.554  -2.152  0.00  0.00    -0.340 N 
ATOM     12  C   UNL     1       0.354  -2.612  -2.694  0.00  0.00    +0.168 A 
ATOM     13  F   UNL     1      -0.131  -1.391  -2.985  0.00  0.00    -0.201 F 
ENDROOT
BRANCH   1  21
ATOM     14  C   UNL     1       1.725   0.652  -3.884  0.00  0.00    +0.025 C 
ATOM     15  C   UNL     1       2.462   0.727  -2.543  0.00  0.00    +0.068 C 
ATOM     16  N   UNL     1       3.932   0.701  -2.707  0.00  0.00    -0.308 NA
ATOM     17  H   UNL     1       4.207   1.278  -3.499  0.00  0.00    +0.123 HD
ATOM     18  C   UNL     1       4.511  -0.652  -2.834  0.00  0.00    +0.068 C 
ATOM     19  C   UNL     1       4.514  -1.143  -4.287  0.00  0.00    +0.025 C 
ATOM     20  C   UNL     1       3.919  -1.725  -1.874  0.00  0.00    +0.123 C 
ATOM     21  N   UNL     1       2.448  -1.661  -1.837  0.00  0.00    -0.322 N 
ATOM     22  C   UNL     1       1.934  -0.318  -1.527  0.00  0.00    +0.123 C 
ENDBRANCH   1  21
BRANCH  10  23
ATOM     23  N   UNL     1      -1.690  -3.437  -3.693  0.00  0.00    -0.355 N 
ATOM     24  H   UNL     1      -2.366  -4.204  -3.648  0.00  0.00    +0.142 HD
ATOM     25  H   UNL     1      -2.093  -2.525  -3.489  0.00  0.00    +0.142 HD
ENDBRANCH  10  23
BRANCH  11  26
ATOM     26  C   UNL     1       3.169  -6.836  -1.710  0.00  0.00    +0.088 C 
ATOM     27  C   UNL     1       4.336  -6.601  -2.643  0.00  0.00    +0.027 C 
ATOM     28  C   UNL     1       4.006  -7.992  -2.204  0.00  0.00    +0.027 C 
ENDBRANCH  11  26
BRANCH   7  29
ATOM     29  C   UNL     1      -1.059  -8.766  -3.186  0.00  0.00    +0.342 C 
ATOM     30  O   UNL     1      -0.598  -9.887  -3.027  0.00  0.00    -0.245 OA
BRANCH  29  31
ATOM     31  O   UNL     1      -2.317  -8.566  -3.635  0.00  0.00    -0.477 OA
ATOM     32  H   UNL     1      -2.570  -7.613  -3.712  0.00  0.00    +0.295 HD
ENDBRANCH  29  31
ENDBRANCH   7  29
TORSDOF 5
