REMARK  Name = 
REMARK  28 active torsions:
REMARK  status: ('A' for Active; 'I' for Inactive)
REMARK    1  A    between atoms: C_1  and  C_2
REMARK    2  A    between atoms: C_2  and  C_3
REMARK    3  A    between atoms: C_2  and  C_4
REMARK    4  A    between atoms: C_2  and  C_40
REMARK    5  A    between atoms: C_4  and  O_5
REMARK    6  A    between atoms: O_5  and  P_6
REMARK    7  A    between atoms: P_6  and  O_7
REMARK    8  A    between atoms: P_6  and  O_9
REMARK    9  A    between atoms: O_9  and  P_10
REMARK   10  A    between atoms: P_10  and  O_11
REMARK   11  A    between atoms: P_10  and  O_13
REMARK   12  A    between atoms: O_13  and  C_14
REMARK   13  A    between atoms: C_14  and  C_15
REMARK   14  A    between atoms: C_18  and  N_30
REMARK   15  A    between atoms: C_20  and  O_22
REMARK   16  A    between atoms: C_23  and  O_25
REMARK   17  A    between atoms: O_25  and  P_26
REMARK   18  A    between atoms: P_26  and  O_27
REMARK   19  A    between atoms: P_26  and  O_28
REMARK   20  A    between atoms: C_40  and  O_42
REMARK   21  A    between atoms: C_40  and  C_43
REMARK   22  A    between atoms: N_45  and  C_46
REMARK   23  A    between atoms: C_46  and  C_47
REMARK   24  A    between atoms: C_47  and  C_48
REMARK   25  A    between atoms: N_50  and  C_51
REMARK   26  A    between atoms: C_51  and  C_52
REMARK   27  A    between atoms: C_52  and  S_53
REMARK   28  A    between atoms: S_53  and  O_54
REMARK                            x       y       z     vdW  Elec       q    Type
REMARK                         _______ _______ _______ _____ _____    ______ ____
ROOT
ATOM      1  P   UNL     1      -3.716  -6.286   3.192  0.00  0.00    +0.483 P 
ATOM      2  O   UNL     1      -4.401  -6.407   4.515  0.00  0.00    -0.227 OA
ENDROOT
BRANCH   1   3
ATOM      3  O   UNL     1      -4.653  -5.598   2.092  0.00  0.00    -0.302 OA
ATOM      4  H   UNL     1      -5.588  -5.782   2.314  0.00  0.00    +0.222 HD
ENDBRANCH   1   3
BRANCH   1   5
ATOM      5  O   UNL     1      -3.337  -7.695   2.513  0.00  0.00    -0.186 OA
BRANCH   5   6
ATOM      6  P   UNL     1      -4.499  -8.707   2.986  0.00  0.00    +0.483 P 
ATOM      7  O   UNL     1      -5.860  -8.090   3.042  0.00  0.00    -0.227 OA
BRANCH   6   8
ATOM      8  O   UNL     1      -3.948  -9.180   4.416  0.00  0.00    -0.302 OA
ATOM      9  H   UNL     1      -4.582  -8.966   5.128  0.00  0.00    +0.222 HD
ENDBRANCH   6   8
BRANCH   6  10
ATOM     10  O   UNL     1      -4.526 -10.121   2.216  0.00  0.00    -0.286 OA
BRANCH  10  11
ATOM     11  C   UNL     1      -5.413 -11.045   2.886  0.00  0.00    +0.181 C 
BRANCH  11  13
ATOM     12  C   UNL     1      -4.343 -12.947   1.754  0.00  0.00    +0.016 C 
ATOM     13  C   UNL     1      -5.711 -12.299   2.053  0.00  0.00    +0.024 C 
ATOM     14  C   UNL     1      -6.521 -13.315   2.891  0.00  0.00    +0.016 C 
BRANCH  13  15
ATOM     15  C   UNL     1      -6.467 -11.908   0.751  0.00  0.00    +0.208 C 
BRANCH  15  16
ATOM     16  C   UNL     1      -7.824 -11.184   0.998  0.00  0.00    +0.242 C 
ATOM     17  N   UNL     1      -8.486 -10.819  -0.158  0.00  0.00    -0.313 N 
ATOM     18  H   UNL     1      -8.251 -11.347  -0.992  0.00  0.00    +0.149 HD
ATOM     19  O   UNL     1      -8.268 -10.899   2.107  0.00  0.00    -0.273 OA
BRANCH  17  20
ATOM     20  C   UNL     1      -9.779 -10.159  -0.077  0.00  0.00    +0.113 C 
BRANCH  20  21
ATOM     21  C   UNL     1      -9.644  -8.656   0.158  0.00  0.00    +0.114 C 
BRANCH  21  22
ATOM     22  C   UNL     1     -11.007  -8.036   0.363  0.00  0.00    +0.215 C 
ATOM     23  N   UNL     1     -10.983  -6.823   1.014  0.00  0.00    -0.314 N 
ATOM     24  H   UNL     1     -10.120  -6.505   1.438  0.00  0.00    +0.149 HD
ATOM     25  O   UNL     1     -12.041  -8.542  -0.062  0.00  0.00    -0.276 OA
BRANCH  23  26
ATOM     26  C   UNL     1     -12.206  -6.077   1.272  0.00  0.00    +0.117 C 
BRANCH  26  27
ATOM     27  C   UNL     1     -12.928  -6.533   2.542  0.00  0.00    +0.118 C 
BRANCH  27  28
ATOM     28  S   UNL     1     -14.427  -5.520   2.787  0.00  0.00    -0.010 S 
BRANCH  28  29
ATOM     29  O   UNL     1     -14.913  -6.092   4.270  0.00  0.00    -0.329 OA
ATOM     30  H   UNL     1     -15.899  -6.064   4.352  0.00  0.00    +0.227 HD
ENDBRANCH  28  29
ENDBRANCH  27  28
ENDBRANCH  26  27
ENDBRANCH  23  26
ENDBRANCH  21  22
ENDBRANCH  20  21
ENDBRANCH  17  20
ENDBRANCH  15  16
BRANCH  15  31
ATOM     31  O   UNL     1      -6.707 -13.045  -0.084  0.00  0.00    -0.382 OA
ATOM     32  H   UNL     1      -5.843 -13.424  -0.319  0.00  0.00    +0.210 HD
ENDBRANCH  15  31
ENDBRANCH  13  15
ENDBRANCH  11  13
ENDBRANCH  10  11
ENDBRANCH   6  10
ENDBRANCH   5   6
ENDBRANCH   1   5
BRANCH   1  33
ATOM     33  O   UNL     1      -2.509  -5.187   3.303  0.00  0.00    -0.284 OA
BRANCH  33  34
ATOM     34  C   UNL     1      -2.999  -4.151   4.182  0.00  0.00    +0.206 C 
BRANCH  34  35
ATOM     35  C   UNL     1      -2.183  -2.904   4.456  0.00  0.00    +0.179 C 
ATOM     36  C   UNL     1      -0.757  -3.197   4.883  0.00  0.00    +0.194 C 
ATOM     37  C   UNL     1       0.072  -2.811   3.672  0.00  0.00    +0.196 C 
ATOM     38  C   UNL     1      -0.952  -2.388   2.608  0.00  0.00    +0.253 C 
ATOM     39  O   UNL     1      -2.158  -2.071   3.296  0.00  0.00    -0.346 OA
BRANCH  38  40
ATOM     40  N   UNL     1      -0.517  -1.234   1.852  0.00  0.00    -0.286 N 
ATOM     41  C   UNL     1       0.612  -1.223   1.087  0.00  0.00    +0.167 A 
ATOM     42  N   UNL     1       1.460  -2.244   0.881  0.00  0.00    -0.216 NA
ATOM     43  C   UNL     1       2.479  -1.858   0.085  0.00  0.00    +0.225 A 
ATOM     44  N   UNL     1       2.706  -0.640  -0.452  0.00  0.00    -0.219 NA
ATOM     45  C   UNL     1       1.834   0.359  -0.178  0.00  0.00    +0.147 A 
ATOM     46  N   UNL     1       2.083   1.617  -0.708  0.00  0.00    -0.341 N 
ATOM     47  H   UNL     1       1.261   2.208  -0.753  0.00  0.00    +0.144 HD
ATOM     48  H   UNL     1       2.684   1.581  -1.520  0.00  0.00    +0.144 HD
ATOM     49  C   UNL     1       0.710   0.072   0.613  0.00  0.00    +0.147 A 
ATOM     50  N   UNL     1      -0.360   0.830   1.046  0.00  0.00    -0.231 NA
ATOM     51  C   UNL     1      -1.078   0.011   1.788  0.00  0.00    +0.203 A 
ENDBRANCH  38  40
BRANCH  37  52
ATOM     52  O   UNL     1       0.842  -3.939   3.257  0.00  0.00    -0.385 OA
ATOM     53  H   UNL     1       1.372  -3.644   2.487  0.00  0.00    +0.210 HD
ENDBRANCH  37  52
BRANCH  36  54
ATOM     54  O   UNL     1      -0.486  -2.370   6.014  0.00  0.00    -0.278 OA
BRANCH  54  55
ATOM     55  P   UNL     1       0.913  -2.490   6.787  0.00  0.00    +0.473 P 
ATOM     56  O   UNL     1       2.126  -2.258   5.962  0.00  0.00    -0.228 OA
BRANCH  55  57
ATOM     57  O   UNL     1       0.671  -1.432   7.957  0.00  0.00    -0.303 OA
ATOM     58  H   UNL     1       0.852  -0.523   7.664  0.00  0.00    +0.222 HD
ENDBRANCH  55  57
BRANCH  55  59
ATOM     59  O   UNL     1       0.800  -3.873   7.567  0.00  0.00    -0.303 OA
ATOM     60  H   UNL     1       0.147  -4.495   7.212  0.00  0.00    +0.222 HD
ENDBRANCH  55  59
ENDBRANCH  54  55
ENDBRANCH  36  54
ENDBRANCH  34  35
ENDBRANCH  33  34
ENDBRANCH   1  33
TORSDOF 26
