REMARK  Name = 
REMARK  28 active torsions:
REMARK  status: ('A' for Active; 'I' for Inactive)
REMARK    1  A    between atoms: C_1  and  C_2
REMARK    2  A    between atoms: C_2  and  C_3
REMARK    3  A    between atoms: C_2  and  C_4
REMARK    4  A    between atoms: C_4  and  C_5
REMARK    5  A    between atoms: C_5  and  C_6
REMARK    6  A    between atoms: C_6  and  C_7
REMARK    7  A    between atoms: C_7  and  C_8
REMARK    8  A    between atoms: C_8  and  C_9
REMARK    9  A    between atoms: C_9  and  C_10
REMARK   10  A    between atoms: C_10  and  C_11
REMARK   11  A    between atoms: C_11  and  C_12
REMARK   12  A    between atoms: N_14  and  C_15
REMARK   13  A    between atoms: N_14  and  C_16
REMARK   14  A    between atoms: C_16  and  C_18
REMARK   15  A    between atoms: C_16  and  C_20
REMARK   16  A    between atoms: C_18  and  O_19
REMARK   17  A    between atoms: N_22  and  CA_23
REMARK   18  A    between atoms: CA_23  and  CB_25
REMARK   19  A    between atoms: CA_23  and  C_26
REMARK   20  A    between atoms: N_28  and  CA_29
REMARK   21  A    between atoms: CA_29  and  C_30
REMARK   22  A    between atoms: N_32  and  C_33
REMARK   23  A    between atoms: N_32  and  C_34
REMARK   24  A    between atoms: C_39  and  O_40
REMARK   25  A    between atoms: C_47  and  C_58
REMARK   26  A    between atoms: CA_52  and  CB_54
REMARK   27  A    between atoms: C_58  and  O_59
REMARK   28  A    between atoms: C_63  and  O_64
REMARK                            x       y       z     vdW  Elec       q    Type
REMARK                         _______ _______ _______ _____ _____    ______ ____
ROOT
ATOM      1  C   GLY A   2      24.103  -2.306  11.523  0.00  0.00    +0.233 C 
ATOM      2  N   UNK A   3      25.147  -2.450  12.455  0.00  0.00    -0.288 N 
ATOM      3  C   UNK A   3      25.118  -3.616  13.399  0.00  0.00    +0.133 C 
ATOM      4  O   GLY A   2      24.107  -1.423  10.666  0.00  0.00    -0.274 OA
ENDROOT
BRANCH   2   5
ATOM      5  C   UNK A   3      26.460  -1.540  12.520  0.00  0.00    +0.192 C 
ATOM      6  C   UNK A   3      27.026   0.103  12.119  0.00  0.00    +0.239 C 
ATOM      7  O   UNK A   3      27.325   0.243  10.908  0.00  0.00    -0.273 OA
ATOM      8  N   ALA A   4      27.352   1.282  12.815  0.00  0.00    -0.302 N 
ATOM      9  H   ALA A   4      27.737   1.805  12.035  0.00  0.00    +0.150 HD
ATOM     10  CA  ALA A   4      27.644   2.336  14.109  0.00  0.00    +0.156 C 
ATOM     11  CB  ALA A   4      29.133   2.328  14.549  0.00  0.00    +0.038 C 
ATOM     12  C   ALA A   4      26.701   3.320  15.151  0.00  0.00    +0.234 C 
ATOM     13  O   ALA A   4      25.826   4.041  14.659  0.00  0.00    -0.274 OA
ATOM     14  N   UNK A   5      27.002   3.460  16.522  0.00  0.00    -0.301 N 
ATOM     15  H   UNK A   5      27.978   3.463  16.782  0.00  0.00    +0.150 HD
ATOM     16  C   UNK A   5      26.080   3.721  17.746  0.00  0.00    +0.186 C 
ATOM     17  C   UNK A   5      24.569   4.021  17.497  0.00  0.00    +0.069 C 
ATOM     18  C   UNK A   5      23.917   2.998  16.601  0.00  0.00    -0.044 A 
ATOM     19  C   UNK A   5      23.087   3.398  15.554  0.00  0.00    +0.007 A 
ATOM     20  C   UNK A   5      23.065   2.632  14.398  0.00  0.00    +0.046 A 
ATOM     21  C   UNK A   5      23.936   1.538  14.300  0.00  0.00    +0.125 A 
ATOM     22  C   UNK A   5      24.689   1.073  15.430  0.00  0.00    +0.027 A 
ATOM     23  C   UNK A   5      25.785   0.060  15.456  0.00  0.00    +0.027 A 
ATOM     24  C   UNK A   5      25.585  -0.935  14.592  0.00  0.00    +0.018 A 
ATOM     25  C   UNK A   5      27.061   0.016  16.093  0.00  0.00    +0.125 A 
ATOM     26  C   UNK A   5      28.096  -0.878  15.722  0.00  0.00    +0.046 A 
ATOM     27  C   UNK A   5      27.944  -1.610  14.577  0.00  0.00    +0.009 A 
ATOM     28  C   UNK A   5      24.463   1.717  16.609  0.00  0.00    +0.016 A 
ATOM     29  C   UNK A   5      26.704  -1.493  13.987  0.00  0.00    -0.017 A 
BRANCH  25  30
ATOM     30  O   UNK A   5      27.414   0.939  17.026  0.00  0.00    -0.506 OA
ATOM     31  H   UNK A   5      28.338   0.806  17.302  0.00  0.00    +0.292 HD
ENDBRANCH  25  30
BRANCH  21  32
ATOM     32  O   UNK A   5      24.073   0.979  13.044  0.00  0.00    -0.506 OA
ATOM     33  H   UNK A   5      23.665   1.559  12.379  0.00  0.00    +0.292 HD
ENDBRANCH  21  32
BRANCH  16  34
ATOM     34  C   UNK A   5      26.311   2.687  18.927  0.00  0.00    +0.326 C 
ATOM     35  O   UNK A   5      27.434   2.404  19.340  0.00  0.00    -0.249 OA
BRANCH  34  36
ATOM     36  O   UNK A   5      25.226   2.117  19.517  0.00  0.00    -0.479 OA
ATOM     37  H   UNK A   5      24.348   2.200  19.096  0.00  0.00    +0.295 HD
ENDBRANCH  34  36
ENDBRANCH  16  34
ENDBRANCH   2   5
BRANCH   1  38
ATOM     38  CA  GLY A   2      22.819  -3.221  11.733  0.00  0.00    +0.200 C 
BRANCH  38  40
ATOM     39  C   ALA A   1      22.050  -4.813  10.035  0.00  0.00    +0.233 C 
ATOM     40  N   GLY A   2      21.939  -3.551  10.612  0.00  0.00    -0.305 N 
ATOM     41  H   GLY A   2      21.034  -3.094  10.589  0.00  0.00    +0.149 HD
ATOM     42  O   ALA A   1      23.044  -5.543  10.229  0.00  0.00    -0.274 OA
BRANCH  39  43
ATOM     43  CA  ALA A   1      20.922  -5.216   9.061  0.00  0.00    +0.156 C 
ATOM     44  CB  ALA A   1      21.207  -4.606   7.711  0.00  0.00    +0.038 C 
BRANCH  43  46
ATOM     45  C   UNK A   0      19.966  -7.394   9.813  0.00  0.00    +0.236 C 
ATOM     46  N   ALA A   1      20.821  -6.688   8.978  0.00  0.00    -0.303 N 
ATOM     47  H   ALA A   1      21.667  -7.183   8.732  0.00  0.00    +0.149 HD
ATOM     48  O   UNK A   0      19.223  -6.820  10.611  0.00  0.00    -0.274 OA
BRANCH  45  49
ATOM     49  C   UNK A   0      19.812  -8.911   9.500  0.00  0.00    +0.187 C 
BRANCH  49  51
ATOM     50  C   UNK A   0      21.773 -10.140  10.373  0.00  0.00    +0.216 C 
ATOM     51  N   UNK A   0      21.113  -9.632   9.251  0.00  0.00    -0.291 N 
ATOM     52  C   UNK A   0      21.426 -10.089   7.898  0.00  0.00    +0.133 C 
ATOM     53  O   UNK A   0      21.474  -9.786  11.523  0.00  0.00    -0.276 OA
BRANCH  50  54
ATOM     54  C   UNK A   0      22.865 -11.186  10.143  0.00  0.00    +0.096 C 
BRANCH  54  55
ATOM     55  C   UNK A   0      23.114 -12.098  11.349  0.00  0.00    +0.009 C 
BRANCH  55  56
ATOM     56  C   UNK A   0      21.906 -12.995  11.635  0.00  0.00    +0.000 C 
BRANCH  56  57
ATOM     57  C   UNK A   0      22.174 -13.956  12.792  0.00  0.00    +0.000 C 
BRANCH  57  58
ATOM     58  C   UNK A   0      20.933 -14.794  13.085  0.00  0.00    +0.000 C 
BRANCH  58  59
ATOM     59  C   UNK A   0      21.170 -15.754  14.247  0.00  0.00    +0.000 C 
BRANCH  59  60
ATOM     60  C   UNK A   0      19.906 -16.561  14.537  0.00  0.00    +0.000 C 
BRANCH  60  61
ATOM     61  C   UNK A   0      20.111 -17.513  15.715  0.00  0.00    +0.003 C 
BRANCH  61  63
ATOM     62  C   UNK A   0      19.180 -19.314  17.190  0.00  0.00    +0.007 C 
ATOM     63  C   UNK A   0      18.872 -18.369  16.027  0.00  0.00    -0.017 C 
ATOM     64  C   UNK A   0      17.642 -17.522  16.360  0.00  0.00    +0.007 C 
ENDBRANCH  61  63
ENDBRANCH  60  61
ENDBRANCH  59  60
ENDBRANCH  58  59
ENDBRANCH  57  58
ENDBRANCH  56  57
ENDBRANCH  55  56
ENDBRANCH  54  55
ENDBRANCH  50  54
ENDBRANCH  49  51
BRANCH  49  65
ATOM     65  C   UNK A   0      18.798  -9.052   8.336  0.00  0.00    +0.187 C 
BRANCH  65  66
ATOM     66  O   UNK A   0      17.479  -8.614   8.649  0.00  0.00    -0.393 OA
ATOM     67  H   UNK A   0      17.049  -9.298   9.190  0.00  0.00    +0.209 HD
ENDBRANCH  65  66
ENDBRANCH  49  65
ENDBRANCH  45  49
ENDBRANCH  43  46
ENDBRANCH  39  43
ENDBRANCH  38  40
ENDBRANCH   1  38
TORSDOF 22
