REMARK  Name = 
REMARK  8 active torsions:
REMARK  status: ('A' for Active; 'I' for Inactive)
REMARK    1  A    between atoms: C_1  and  O_2
REMARK    2  A    between atoms: O_2  and  C_3
REMARK    3  A    between atoms: C_7  and  N_8
REMARK    4  A    between atoms: N_8  and  S_9
REMARK    5  A    between atoms: S_9  and  C_12
REMARK    6  A    between atoms: C_15  and  N_16
REMARK    7  A    between atoms: C_19  and  O_20
REMARK    8  A    between atoms: O_20  and  C_21
REMARK                            x       y       z     vdW  Elec       q    Type
REMARK                         _______ _______ _______ _____ _____    ______ ____
ROOT
ATOM      1  N   UNL     1       6.520   2.446  -0.910  0.00  0.00    -0.196 N 
ATOM      2  H   UNL     1       6.705   3.173  -1.596  0.00  0.00    +0.175 HD
ENDROOT
BRANCH   1   5
ATOM      3  C   UNL     1       2.901   1.961  -1.129  0.00  0.00    +0.263 A 
ATOM      4  C   UNL     1       4.179   2.188  -1.616  0.00  0.00    +0.223 A 
ATOM      5  C   UNL     1       5.152   2.214  -0.620  0.00  0.00    +0.187 A 
ATOM      6  N   UNL     1       4.931   2.045   0.693  0.00  0.00    -0.216 NA
ATOM      7  C   UNL     1       3.654   1.865   1.030  0.00  0.00    +0.227 A 
ATOM      8  N   UNL     1       2.619   1.808   0.185  0.00  0.00    -0.198 NA
BRANCH   3  10
ATOM      9  C   UNL     1       0.587   1.590  -1.415  0.00  0.00    +0.279 C 
ATOM     10  O   UNL     1       1.838   1.928  -2.007  0.00  0.00    -0.477 OA
ENDBRANCH   3  10
BRANCH   4  11
ATOM     11  O   UNL     1       4.598   2.418  -2.895  0.00  0.00    -0.488 OA
ATOM     12  C   UNL     1       3.646   2.292  -3.947  0.00  0.00    +0.277 C 
ENDBRANCH   4  11
ENDBRANCH   1   5
BRANCH   1  13
ATOM     13  S   UNL     1       7.453   1.086  -1.238  0.00  0.00    +0.074 S 
ATOM     14  O   UNL     1       8.662   1.575  -1.867  0.00  0.00    -0.150 OA
ATOM     15  O   UNL     1       6.633   0.083  -1.887  0.00  0.00    -0.150 OA
BRANCH  13  16
ATOM     16  C   UNL     1       7.918   0.486   0.366  0.00  0.00    +0.109 A 
ATOM     17  C   UNL     1       8.648   1.314   1.221  0.00  0.00    +0.030 A 
ATOM     18  C   UNL     1       9.030   0.838   2.479  0.00  0.00    +0.024 A 
ATOM     19  C   UNL     1       8.659  -0.442   2.905  0.00  0.00    +0.025 A 
ATOM     20  C   UNL     1       8.005  -1.287   2.002  0.00  0.00    +0.024 A 
ATOM     21  C   UNL     1       7.613  -0.824   0.742  0.00  0.00    +0.030 A 
BRANCH  19  22
ATOM     22  N   UNL     1       9.139  -0.946   4.121  0.00  0.00    -0.358 N 
ATOM     23  H   UNL     1       9.314  -0.227   4.817  0.00  0.00    +0.142 HD
ATOM     24  H   UNL     1       8.588  -1.712   4.491  0.00  0.00    +0.142 HD
ENDBRANCH  19  22
ENDBRANCH  13  16
ENDBRANCH   1  13
TORSDOF 6
