REMARK  Name = 
REMARK  9 active torsions:
REMARK  status: ('A' for Active; 'I' for Inactive)
REMARK    1  A    between atoms: C_4  and  C_5
REMARK    2  A    between atoms: C_4  and  C_6
REMARK    3  A    between atoms: CA_7  and  C_27
REMARK    4  A    between atoms: CA_12  and  N_14
REMARK    5  A    between atoms: C_15  and  CA_17
REMARK    6  A    between atoms: CA_17  and  N_19
REMARK    7  A    between atoms: CA_17  and  C_20
REMARK    8  A    between atoms: C_23  and  O_24
REMARK    9  A    between atoms: C_27  and  O_28
REMARK                            x       y       z     vdW  Elec       q    Type
REMARK                         _______ _______ _______ _____ _____    ______ ____
ROOT
ATOM      1  N   UNL     1       6.040  -1.219   3.526  0.00  0.00    -0.300 N 
ATOM      2  H   UNL     1       5.437  -0.636   2.948  0.00  0.00    +0.150 HD
ATOM      3  C   UNL     1       5.375  -2.131   4.320  0.00  0.00    +0.235 C 
ATOM      4  O   UNL     1       5.967  -2.979   4.983  0.00  0.00    -0.274 OA
ENDROOT
BRANCH   1   6
ATOM      5  C   UNL     1       8.015  -2.351   2.313  0.00  0.00    +0.165 C 
ATOM      6  CA  UNL     1       7.503  -1.300   3.330  0.00  0.00    +0.190 C 
ATOM      7  C   UNL     1       8.155  -0.271   2.375  0.00  0.00    +0.240 C 
ATOM      8  O   UNL     1       8.087   0.918   2.166  0.00  0.00    -0.273 OA
ATOM      9  N   UNL     1       8.751  -1.262   1.630  0.00  0.00    -0.271 N 
ATOM     10  CA  UNL     1       8.655  -1.224   0.160  0.00  0.00    +0.201 C 
ATOM     11  C   UNL     1       7.247  -1.744  -0.221  0.00  0.00    +0.042 C 
ATOM     12  C   UNL     1       6.179  -0.634  -0.133  0.00  0.00    +0.025 C 
ATOM     13  C   UNL     1       7.124  -2.369  -1.615  0.00  0.00    +0.025 C 
ATOM     14  S   UNL     1       6.826  -3.002   1.068  0.00  0.00    -0.127 S 
BRANCH  10  15
ATOM     15  C   UNL     1       9.843  -2.023  -0.409  0.00  0.00    +0.327 C 
ATOM     16  OXT UNL     1      10.009  -2.285  -1.591  0.00  0.00    -0.249 OA
BRANCH  15  17
ATOM     17  O   UNL     1      10.774  -2.353   0.524  0.00  0.00    -0.479 OA
ATOM     18  H   UNL     1      10.529  -1.977   1.395  0.00  0.00    +0.295 HD
ENDBRANCH  15  17
ENDBRANCH  10  15
ENDBRANCH   1   6
BRANCH   3  19
ATOM     19  CA  UNL     1       3.837  -1.982   4.307  0.00  0.00    +0.168 C 
BRANCH  19  20
ATOM     20  C   UNL     1       3.360  -1.074   5.425  0.00  0.00    -0.022 A 
ATOM     21  C   UNL     1       3.149   0.301   5.232  0.00  0.00    +0.009 A 
ATOM     22  C   UNL     1       2.682   1.104   6.274  0.00  0.00    +0.046 A 
ATOM     23  C   UNL     1       2.433   0.543   7.518  0.00  0.00    +0.117 A 
ATOM     24  C   UNL     1       2.671  -0.806   7.750  0.00  0.00    +0.046 A 
ATOM     25  C   UNL     1       3.138  -1.610   6.706  0.00  0.00    +0.009 A 
BRANCH  23  26
ATOM     26  O   UNL     1       1.948   1.360   8.496  0.00  0.00    -0.507 OA
ATOM     27  H   UNL     1       1.738   0.818   9.275  0.00  0.00    +0.292 HD
ENDBRANCH  23  26
ENDBRANCH  19  20
BRANCH  19  28
ATOM     28  N   UNL     1       3.390  -1.515   2.967  0.00  0.00    -0.316 NA
ATOM     29  H1  UNL     1       3.585  -2.263   2.298  0.00  0.00    +0.119 HD
ATOM     30  H2  UNL     1       2.370  -1.450   3.000  0.00  0.00    +0.119 HD
ENDBRANCH  19  28
ENDBRANCH   3  19
TORSDOF 7
