REMARK  Name = 
REMARK  31 active torsions:
REMARK  status: ('A' for Active; 'I' for Inactive)
REMARK    1  A    between atoms: C_1  and  C_2
REMARK    2  A    between atoms: C_2  and  C_3
REMARK    3  A    between atoms: C_2  and  C_4
REMARK    4  A    between atoms: C_2  and  C_40
REMARK    5  A    between atoms: C_4  and  O_5
REMARK    6  A    between atoms: O_5  and  P_6
REMARK    7  A    between atoms: P_6  and  O_7
REMARK    8  A    between atoms: P_6  and  O_9
REMARK    9  A    between atoms: O_9  and  P_10
REMARK   10  A    between atoms: P_10  and  O_11
REMARK   11  A    between atoms: P_10  and  O_13
REMARK   12  A    between atoms: O_13  and  C_14
REMARK   13  A    between atoms: C_14  and  C_15
REMARK   14  A    between atoms: C_18  and  N_30
REMARK   15  A    between atoms: C_20  and  O_22
REMARK   16  A    between atoms: C_23  and  O_25
REMARK   17  A    between atoms: O_25  and  P_26
REMARK   18  A    between atoms: P_26  and  O_27
REMARK   19  A    between atoms: P_26  and  O_28
REMARK   20  A    between atoms: C_34  and  N_35
REMARK   21  A    between atoms: C_40  and  O_42
REMARK   22  A    between atoms: C_40  and  C_43
REMARK   23  A    between atoms: N_45  and  C_46
REMARK   24  A    between atoms: C_46  and  C_47
REMARK   25  A    between atoms: C_47  and  C_48
REMARK   26  A    between atoms: N_50  and  C_51
REMARK   27  A    between atoms: C_51  and  C_52
REMARK   28  A    between atoms: C_52  and  S_53
REMARK   29  A    between atoms: S_53  and  C_54
REMARK   30  A    between atoms: C_54  and  C_56
REMARK   31  A    between atoms: C_59  and  O_60
REMARK                            x       y       z     vdW  Elec       q    Type
REMARK                         _______ _______ _______ _____ _____    ______ ____
ROOT
ATOM      1  P   UNL     1       6.169   6.570   2.323  0.00  0.00    +0.483 P 
ATOM      2  O   UNL     1       5.231   6.920   3.432  0.00  0.00    -0.227 OA
ENDROOT
BRANCH   1   3
ATOM      3  O   UNL     1       5.480   5.636   1.219  0.00  0.00    -0.302 OA
ATOM      4  H   UNL     1       4.515   5.587   1.345  0.00  0.00    +0.222 HD
ENDBRANCH   1   3
BRANCH   1   5
ATOM      5  O   UNL     1       6.694   7.823   1.471  0.00  0.00    -0.286 OA
BRANCH   5   6
ATOM      6  C   UNL     1       5.741   8.824   1.137  0.00  0.00    +0.181 C 
BRANCH   6   8
ATOM      7  C   UNL     1       7.601  10.487   0.949  0.00  0.00    +0.016 C 
ATOM      8  C   UNL     1       6.364   9.907   0.216  0.00  0.00    +0.024 C 
ATOM      9  C   UNL     1       6.875   9.282  -1.097  0.00  0.00    +0.016 C 
BRANCH   8  10
ATOM     10  C   UNL     1       5.325  11.043  -0.065  0.00  0.00    +0.208 C 
BRANCH  10  11
ATOM     11  C   UNL     1       3.985  10.563  -0.683  0.00  0.00    +0.242 C 
ATOM     12  N   UNL     1       3.067  11.573  -0.903  0.00  0.00    -0.313 N 
ATOM     13  H   UNL     1       3.480  12.486  -1.096  0.00  0.00    +0.149 HD
ATOM     14  O   UNL     1       3.712   9.386  -0.900  0.00  0.00    -0.273 OA
BRANCH  12  15
ATOM     15  C   UNL     1       1.809  11.274  -1.574  0.00  0.00    +0.113 C 
BRANCH  15  16
ATOM     16  C   UNL     1       0.671  12.203  -1.170  0.00  0.00    +0.114 C 
BRANCH  16  17
ATOM     17  C   UNL     1       0.897  13.618  -1.650  0.00  0.00    +0.215 C 
ATOM     18  N   UNL     1      -0.103  14.494  -1.295  0.00  0.00    -0.314 N 
ATOM     19  H   UNL     1      -0.969  14.139  -0.909  0.00  0.00    +0.149 HD
ATOM     20  O   UNL     1       1.889  13.964  -2.281  0.00  0.00    -0.276 OA
BRANCH  18  21
ATOM     21  C   UNL     1      -0.046  15.894  -1.684  0.00  0.00    +0.115 C 
BRANCH  21  22
ATOM     22  C   UNL     1      -0.622  16.169  -3.077  0.00  0.00    +0.096 C 
BRANCH  22  23
ATOM     23  S   UNL     1      -2.403  15.791  -3.086  0.00  0.00    -0.082 S 
BRANCH  23  24
ATOM     24  C   UNL     1      -2.813  16.221  -4.746  0.00  0.00    +0.220 C 
ATOM     25  O   UNL     1      -2.034  16.836  -5.462  0.00  0.00    -0.280 OA
BRANCH  24  26
ATOM     26  C   UNL     1      -4.178  15.844  -5.221  0.00  0.00    +0.029 A 
ATOM     27  C   UNL     1      -4.736  16.563  -6.287  0.00  0.00    +0.016 A 
ATOM     28  C   UNL     1      -6.011  16.243  -6.764  0.00  0.00    +0.046 A 
ATOM     29  C   UNL     1      -6.721  15.196  -6.188  0.00  0.00    +0.117 A 
ATOM     30  C   UNL     1      -6.187  14.472  -5.131  0.00  0.00    +0.046 A 
ATOM     31  C   UNL     1      -4.916  14.794  -4.649  0.00  0.00    +0.016 A 
BRANCH  29  32
ATOM     32  O   UNL     1      -7.948  14.896  -6.697  0.00  0.00    -0.507 OA
ATOM     33  H   UNL     1      -8.269  14.081  -6.278  0.00  0.00    +0.292 HD
ENDBRANCH  29  32
ENDBRANCH  24  26
ENDBRANCH  23  24
ENDBRANCH  22  23
ENDBRANCH  21  22
ENDBRANCH  18  21
ENDBRANCH  16  17
ENDBRANCH  15  16
ENDBRANCH  12  15
ENDBRANCH  10  11
BRANCH  10  34
ATOM     34  O   UNL     1       5.852  12.072  -0.909  0.00  0.00    -0.382 OA
ATOM     35  H   UNL     1       6.677  12.407  -0.508  0.00  0.00    +0.210 HD
ENDBRANCH  10  34
ENDBRANCH   8  10
ENDBRANCH   6   8
ENDBRANCH   5   6
ENDBRANCH   1   5
BRANCH   1  36
ATOM     36  O   UNL     1       7.464   5.754   2.754  0.00  0.00    -0.186 OA
BRANCH  36  37
ATOM     37  P   UNL     1       8.092   6.038   4.221  0.00  0.00    +0.483 P 
ATOM     38  O   UNL     1       9.331   5.154   4.383  0.00  0.00    -0.227 OA
BRANCH  37  39
ATOM     39  O   UNL     1       9.138   7.231   3.530  0.00  0.00    -0.302 OA
ATOM     40  H   UNL     1       9.849   6.688   3.128  0.00  0.00    +0.222 HD
ENDBRANCH  37  39
BRANCH  37  41
ATOM     41  O   UNL     1       7.047   4.846   4.913  0.00  0.00    -0.284 OA
BRANCH  41  42
ATOM     42  C   UNL     1       7.357   4.465   6.264  0.00  0.00    +0.206 C 
BRANCH  42  43
ATOM     43  C   UNL     1       7.336   5.658   7.225  0.00  0.00    +0.179 C 
ATOM     44  C   UNL     1       7.569   5.300   8.692  0.00  0.00    +0.194 C 
ATOM     45  C   UNL     1       6.777   6.374   9.456  0.00  0.00    +0.196 C 
ATOM     46  C   UNL     1       5.992   7.118   8.359  0.00  0.00    +0.253 C 
ATOM     47  O   UNL     1       6.054   6.293   7.183  0.00  0.00    -0.346 OA
BRANCH  46  48
ATOM     48  N   UNL     1       4.612   7.443   8.642  0.00  0.00    -0.286 N 
ATOM     49  C   UNL     1       4.111   7.879   9.839  0.00  0.00    +0.167 A 
ATOM     50  C   UNL     1       2.824   8.303   9.552  0.00  0.00    +0.147 A 
ATOM     51  C   UNL     1       2.089   8.857  10.612  0.00  0.00    +0.147 A 
ATOM     52  N   UNL     1       2.645   8.866  11.845  0.00  0.00    -0.219 NA
ATOM     53  C   UNL     1       3.905   8.400  11.984  0.00  0.00    +0.225 A 
ATOM     54  N   UNL     1       2.523   8.100   8.222  0.00  0.00    -0.231 NA
ATOM     55  N   UNL     1       4.734   7.917  11.031  0.00  0.00    -0.216 NA
ATOM     56  C   UNL     1       3.618   7.584   7.705  0.00  0.00    +0.203 A 
BRANCH  51  57
ATOM     57  N   UNL     1       0.819   9.394  10.451  0.00  0.00    -0.341 N 
ATOM     58  H   UNL     1       0.291   9.422  11.313  0.00  0.00    +0.144 HD
ATOM     59  H   UNL     1       0.348   9.084   9.609  0.00  0.00    +0.144 HD
ENDBRANCH  51  57
ENDBRANCH  46  48
BRANCH  45  60
ATOM     60  O   UNL     1       7.614   7.283  10.189  0.00  0.00    -0.385 OA
ATOM     61  H   UNL     1       7.002   7.741  10.808  0.00  0.00    +0.210 HD
ENDBRANCH  45  60
BRANCH  44  62
ATOM     62  O   UNL     1       8.957   5.268   8.950  0.00  0.00    -0.278 OA
BRANCH  62  63
ATOM     63  P   UNL     1       9.476   5.066  10.450  0.00  0.00    +0.473 P 
ATOM     64  O   UNL     1       8.451   4.791  11.494  0.00  0.00    -0.228 OA
BRANCH  63  65
ATOM     65  O   UNL     1      10.531   3.883  10.274  0.00  0.00    -0.303 OA
ATOM     66  H   UNL     1      10.096   3.013  10.286  0.00  0.00    +0.222 HD
ENDBRANCH  63  65
BRANCH  63  67
ATOM     67  O   UNL     1      10.404   6.339  10.694  0.00  0.00    -0.303 OA
ATOM     68  H   UNL     1       9.856   7.140  10.788  0.00  0.00    +0.222 HD
ENDBRANCH  63  67
ENDBRANCH  62  63
ENDBRANCH  44  62
ENDBRANCH  42  43
ENDBRANCH  41  42
ENDBRANCH  37  41
ENDBRANCH  36  37
ENDBRANCH   1  36
TORSDOF 29
