REMARK  Name = 
REMARK  4 active torsions:
REMARK  status: ('A' for Active; 'I' for Inactive)
REMARK    1  A    between atoms: O_1  and  C_2
REMARK    2  A    between atoms: C_8  and  O_10
REMARK    3  A    between atoms: C_11  and  O_13
REMARK    4  A    between atoms: C_14  and  O_16
REMARK                            x       y       z     vdW  Elec       q    Type
REMARK                         _______ _______ _______ _____ _____    ______ ____
ROOT
ATOM      1  C   UNL     1       2.462  -0.054  -0.051  0.00  0.00    +0.135 C 
ATOM      2  C   UNL     1       3.125  -0.773   1.127  0.00  0.00    +0.116 C 
ATOM      3  N   UNL     1       4.309   0.068   1.416  0.00  0.00    -0.292 NA
ATOM      4  C   UNL     1       4.891  -0.313   2.708  0.00  0.00    +0.118 C 
ATOM      5  C   UNL     1       5.338  -1.800   2.702  0.00  0.00    +0.159 C 
ATOM      6  C   UNL     1       4.253  -2.757   2.144  0.00  0.00    +0.174 C 
ATOM      7  C   UNL     1       3.788   1.429   1.351  0.00  0.00    +0.087 C 
ATOM      8  C   UNL     1       3.589  -2.208   0.860  0.00  0.00    +0.165 C 
ATOM      9  C   UNL     1       2.953   1.394   0.071  0.00  0.00    +0.048 C 
ENDROOT
BRANCH   1  10
ATOM     10  O   UNL     1       1.043  -0.092   0.079  0.00  0.00    -0.390 OA
ATOM     11  H   UNL     1       0.672   0.329  -0.715  0.00  0.00    +0.210 HD
ENDBRANCH   1  10
BRANCH   6  12
ATOM     12  O   UNL     1       3.251  -2.979   3.145  0.00  0.00    -0.387 OA
ATOM     13  H   UNL     1       3.614  -3.630   3.771  0.00  0.00    +0.210 HD
ENDBRANCH   6  12
BRANCH   5  14
ATOM     14  O   UNL     1       6.540  -1.953   1.936  0.00  0.00    -0.388 OA
ATOM     15  H   UNL     1       7.231  -1.424   2.371  0.00  0.00    +0.210 HD
ENDBRANCH   5  14
BRANCH   8  16
ATOM     16  O   UNL     1       4.518  -2.237  -0.233  0.00  0.00    -0.388 OA
ATOM     17  H   UNL     1       5.250  -1.645   0.043  0.00  0.00    +0.210 HD
ENDBRANCH   8  16
TORSDOF 4
