REMARK  Name = 
REMARK  3 active torsions:
REMARK  status: ('A' for Active; 'I' for Inactive)
REMARK    1  A    between atoms: C_2  and  O_4
REMARK    2  A    between atoms: O_4  and  C_5
REMARK    3  A    between atoms: C_5  and  C_7
REMARK                            x       y       z     vdW  Elec       q    Type
REMARK                         _______ _______ _______ _____ _____    ______ ____
ROOT
ATOM      1  C   UNL     1       4.172   0.293  -1.276  0.00  0.00    +0.406 C 
ATOM      2  F   UNL     1       4.625  -0.888  -0.764  0.00  0.00    -0.205 F 
ENDROOT
BRANCH   1   3
ATOM      3  C   UNL     1       4.711   0.500  -2.702  0.00  0.00    +0.446 C 
ATOM      4  F   UNL     1       5.597  -0.467  -3.047  0.00  0.00    -0.165 F 
ATOM      5  F   UNL     1       5.365   1.684  -2.802  0.00  0.00    -0.165 F 
ATOM      6  F   UNL     1       3.736   0.498  -3.639  0.00  0.00    -0.165 F 
ENDBRANCH   1   3
BRANCH   1   7
ATOM      7  O   UNL     1       2.750   0.235  -1.226  0.00  0.00    -0.280 OA
BRANCH   7   9
ATOM      8  F   UNL     1       2.746   1.083   0.845  0.00  0.00    -0.178 F 
ATOM      9  C   UNL     1       2.329   0.029   0.101  0.00  0.00    +0.485 C 
ATOM     10  F   UNL     1       0.976   0.057   0.102  0.00  0.00    -0.178 F 
ENDBRANCH   7   9
ENDBRANCH   1   7
TORSDOF 3
