REMARK  Name = 
REMARK  9 active torsions:
REMARK  status: ('A' for Active; 'I' for Inactive)
REMARK    1  A    between atoms: C_1  and  C_2
REMARK    2  A    between atoms: C_3  and  O_4
REMARK    3  A    between atoms: C_5  and  C_6
REMARK    4  A    between atoms: C_8  and  C_9
REMARK    5  A    between atoms: C_9  and  O_10
REMARK    6  A    between atoms: O_10  and  P_11
REMARK    7  A    between atoms: P_11  and  O_12
REMARK    8  A    between atoms: P_11  and  O_13
REMARK    9  A    between atoms: N_16  and  C_17
REMARK                            x       y       z     vdW  Elec       q    Type
REMARK                         _______ _______ _______ _____ _____    ______ ____
ROOT
ATOM      1  C   UNL     1       0.713   0.001   0.002  0.00  0.00    +0.126 C 
ATOM      2  C   UNL     1       2.212   0.129   0.004  0.00  0.00    +0.223 A 
ATOM      3  N   UNL     1       2.977  -1.008  -0.033  0.00  0.00    -0.201 N 
ATOM      4  C   UNL     1       2.352  -2.347  -0.081  0.00  0.00    +0.439 C 
ATOM      5  C   UNL     1       4.332  -0.932  -0.037  0.00  0.00    +0.315 A 
ATOM      6  C   UNL     1       5.024   0.287  -0.012  0.00  0.00    +0.056 A 
ATOM      7  C   UNL     1       4.262   1.453   0.003  0.00  0.00    +0.073 A 
ATOM      8  C   UNL     1       2.862   1.380   0.031  0.00  0.00    +0.195 A 
ENDROOT
BRANCH   7   9
ATOM      9  C   UNL     1       4.880   2.796  -0.111  0.00  0.00    +0.263 C 
ATOM     10  O   UNL     1       5.847   2.993  -0.837  0.00  0.00    -0.296 OA
ENDBRANCH   7   9
BRANCH   8  11
ATOM     11  O   UNL     1       2.173   2.564   0.072  0.00  0.00    -0.501 OA
ATOM     12  H   UNL     1       1.334   2.535  -0.420  0.00  0.00    +0.292 HD
ENDBRANCH   8  11
BRANCH   6  13
ATOM     13  C   UNL     1       6.526   0.217  -0.130  0.00  0.00    +0.214 C 
BRANCH  13  14
ATOM     14  O   UNL     1       7.187   1.202   0.647  0.00  0.00    -0.282 OA
BRANCH  14  15
ATOM     15  P   UNL     1       8.914   1.154   0.732  0.00  0.00    +0.473 P 
ATOM     16  O   UNL     1      10.460   1.110   0.808  0.00  0.00    -0.228 OA
BRANCH  15  17
ATOM     17  O   UNL     1       8.944   0.603  -0.811  0.00  0.00    -0.303 OA
ATOM     18  H   UNL     1       9.313   1.293  -1.394  0.00  0.00    +0.222 HD
ENDBRANCH  15  17
BRANCH  15  19
ATOM     19  O   UNL     1       8.741  -0.283   1.503  0.00  0.00    -0.303 OA
ATOM     20  H   UNL     1       9.354  -0.298   2.262  0.00  0.00    +0.222 HD
ENDBRANCH  15  19
ENDBRANCH  14  15
ENDBRANCH  13  14
ENDBRANCH   6  13
TORSDOF 7
