REMARK  Name = 
REMARK  2 active torsions:
REMARK  status: ('A' for Active; 'I' for Inactive)
REMARK    1  A    between atoms: O_1  and  N_2
REMARK    2  A    between atoms: C_3  and  C_5
REMARK                            x       y       z     vdW  Elec       q    Type
REMARK                         _______ _______ _______ _____ _____    ______ ____
ROOT
ATOM      1  N   UNL     1       2.401  -1.350  -1.764  0.00  0.00    -0.193 N 
ATOM      2  H   UNL     1       2.904  -1.948  -2.411  0.00  0.00    +0.183 HD
ATOM      3  C   UNL     1       2.983  -0.214  -1.239  0.00  0.00    +0.267 C 
ATOM      4  O   UNL     1       2.374   0.747  -0.781  0.00  0.00    -0.268 OA
ENDROOT
BRANCH   3   5
ATOM      5  C   UNL     1       4.476  -0.192  -1.293  0.00  0.00    +0.039 A 
ATOM      6  C   UNL     1       5.232  -1.375  -1.316  0.00  0.00    +0.013 A 
ATOM      7  C   UNL     1       6.625  -1.316  -1.382  0.00  0.00    +0.001 A 
ATOM      8  C   UNL     1       7.270  -0.081  -1.409  0.00  0.00    +0.000 A 
ATOM      9  C   UNL     1       6.527   1.098  -1.359  0.00  0.00    +0.001 A 
ATOM     10  C   UNL     1       5.133   1.044  -1.298  0.00  0.00    +0.013 A 
ENDBRANCH   3   5
BRANCH   1  11
ATOM     11  O   UNL     1       0.993  -1.364  -1.820  0.00  0.00    -0.295 OA
ATOM     12  H   UNL     1       0.795  -1.757  -2.688  0.00  0.00    +0.241 HD
ENDBRANCH   1  11
TORSDOF 2
