REMARK  Name = 
REMARK  16 active torsions:
REMARK  status: ('A' for Active; 'I' for Inactive)
REMARK    1  A    between atoms: C_1  and  C_2
REMARK    2  A    between atoms: N_4  and  C_5
REMARK    3  A    between atoms: C_5  and  C_7
REMARK    4  A    between atoms: C_5  and  C_22
REMARK    5  A    between atoms: C_7  and  C_8
REMARK    6  A    between atoms: C_11  and  P_18
REMARK    7  A    between atoms: C_12  and  P_14
REMARK    8  A    between atoms: P_14  and  O_15
REMARK    9  A    between atoms: P_14  and  O_16
REMARK   10  A    between atoms: P_18  and  O_19
REMARK   11  A    between atoms: P_18  and  O_20
REMARK   12  A    between atoms: N_24  and  C_25
REMARK   13  A    between atoms: C_33  and  O_34
REMARK   14  A    between atoms: O_34  and  C_35
REMARK   15  A    between atoms: C_35  and  C_36
REMARK   16  A    between atoms: C_42  and  C_45
REMARK                            x       y       z     vdW  Elec       q    Type
REMARK                         _______ _______ _______ _____ _____    ______ ____
ROOT
ATOM      1  C   UNL     1       5.553  -1.759   2.233  0.00  0.00    +0.234 C 
ATOM      2  N   UNL     1       6.503  -2.582   1.653  0.00  0.00    -0.307 N 
ATOM      3  H   UNL     1       6.499  -2.678   0.647  0.00  0.00    +0.149 HD
ATOM      4  O   UNL     1       5.307  -1.800   3.433  0.00  0.00    -0.274 OA
ENDROOT
BRANCH   2   5
ATOM      5  C   UNL     1       7.332  -3.545   2.381  0.00  0.00    +0.103 C 
ATOM      6  C   UNL     1       8.106  -4.442   1.425  0.00  0.00    -0.023 A 
ATOM      7  C   UNL     1       9.092  -3.977   0.554  0.00  0.00    -0.039 A 
ATOM      8  C   UNL     1       9.751  -4.906  -0.276  0.00  0.00    +0.050 A 
ATOM      9  C   UNL     1       9.480  -6.299  -0.267  0.00  0.00    +0.133 A 
ATOM     10  C   UNL     1       8.526  -6.785   0.645  0.00  0.00    +0.078 A 
ATOM     11  C   UNL     1       9.500  -2.524   0.509  0.00  0.00    +0.035 C 
ATOM     12  C   UNL     1      10.138  -2.063   1.819  0.00  0.00    +0.005 C 
ATOM     13  C   UNL     1       9.145  -1.757   2.939  0.00  0.00    +0.002 C 
ATOM     14  C   UNL     1       7.858  -5.825   1.457  0.00  0.00    +0.022 A 
ATOM     15  C   UNL     1       8.281  -2.922   3.420  0.00  0.00    +0.027 C 
BRANCH  10  16
ATOM     16  C   UNL     1       8.028  -8.177   0.951  0.00  0.00    +0.245 C 
ATOM     17  O   UNL     1       7.027  -8.353   1.644  0.00  0.00    -0.270 OA
ATOM     18  N   UNL     1       8.673  -9.302   0.540  0.00  0.00    -0.325 N 
ATOM     19  H   UNL     1       8.257 -10.156   0.899  0.00  0.00    +0.145 HD
ATOM     20  H   UNL     1       9.671  -9.318   0.427  0.00  0.00    +0.145 HD
ENDBRANCH  10  16
BRANCH   9  21
ATOM     21  O   UNL     1      10.276  -6.918  -1.201  0.00  0.00    -0.491 OA
BRANCH  21  22
ATOM     22  C   UNL     1       9.831  -8.122  -1.795  0.00  0.00    +0.232 C 
BRANCH  22  23
ATOM     23  C   UNL     1      10.295  -8.311  -3.251  0.00  0.00    +0.027 C 
ATOM     24  C   UNL     1       9.847  -7.197  -4.203  0.00  0.00    +0.007 C 
ATOM     25  C   UNL     1       8.336  -7.184  -4.413  0.00  0.00    +0.000 C 
ATOM     26  C   UNL     1       7.812  -8.545  -4.870  0.00  0.00    +0.000 C 
ATOM     27  C   UNL     1       8.267  -9.688  -3.967  0.00  0.00    +0.000 C 
ATOM     28  C   UNL     1       9.783  -9.676  -3.754  0.00  0.00    +0.007 C 
ENDBRANCH  22  23
ENDBRANCH  21  22
ENDBRANCH   9  21
ENDBRANCH   2   5
BRANCH   1  29
ATOM     29  C   UNL     1       4.860  -0.768   1.271  0.00  0.00    +0.163 C 
BRANCH  29  32
ATOM     30  C   UNL     1       2.217   1.772   2.296  0.00  0.00    +0.109 C 
ATOM     31  C   UNL     1       3.072   0.954   1.367  0.00  0.00    +0.211 C 
ATOM     32  N   UNL     1       3.881   0.041   1.996  0.00  0.00    -0.304 N 
ATOM     33  H   UNL     1       3.754  -0.161   2.981  0.00  0.00    +0.149 HD
ATOM     34  O   UNL     1       3.036   1.108   0.152  0.00  0.00    -0.276 OA
ENDBRANCH  29  32
BRANCH  29  35
ATOM     35  C   UNL     1       5.904   0.093   0.510  0.00  0.00    +0.067 C 
BRANCH  35  36
ATOM     36  C   UNL     1       6.705   1.111   1.292  0.00  0.00    -0.044 A 
ATOM     37  C   UNL     1       6.722   1.189   2.682  0.00  0.00    +0.020 A 
ATOM     38  C   UNL     1       7.572   2.084   3.358  0.00  0.00    +0.078 A 
ATOM     39  C   UNL     1       8.292   2.973   2.739  0.00  0.00    +0.078 A 
ATOM     40  C   UNL     1       8.288   2.928   1.322  0.00  0.00    +0.017 A 
ATOM     41  C   UNL     1       7.537   1.991   0.608  0.00  0.00    +0.004 A 
BRANCH  38  42
ATOM     42  P   UNL     1       7.790   1.824   5.157  0.00  0.00    +0.359 P 
ATOM     43  O   UNL     1       7.974   1.603   6.678  0.00  0.00    -0.253 OA
BRANCH  42  44
ATOM     44  O   UNL     1       7.854   3.443   5.428  0.00  0.00    -0.321 OA
ATOM     45  H   UNL     1       8.147   3.525   6.365  0.00  0.00    +0.220 HD
ENDBRANCH  42  44
BRANCH  42  46
ATOM     46  O   UNL     1       9.379   1.559   4.839  0.00  0.00    -0.321 OA
ATOM     47  H   UNL     1       9.701   0.755   5.289  0.00  0.00    +0.220 HD
ENDBRANCH  42  46
ENDBRANCH  38  42
BRANCH  39  48
ATOM     48  P   UNL     1       9.512   3.971   3.669  0.00  0.00    +0.359 P 
ATOM     49  O   UNL     1      10.544   4.816   4.455  0.00  0.00    -0.253 OA
BRANCH  48  50
ATOM     50  O   UNL     1       8.910   5.279   2.849  0.00  0.00    -0.321 OA
ATOM     51  H   UNL     1       8.222   5.725   3.373  0.00  0.00    +0.220 HD
ENDBRANCH  48  50
BRANCH  48  52
ATOM     52  O   UNL     1      10.648   3.612   2.524  0.00  0.00    -0.321 OA
ATOM     53  H   UNL     1      11.303   4.332   2.599  0.00  0.00    +0.220 HD
ENDBRANCH  48  52
ENDBRANCH  39  48
ENDBRANCH  35  36
ENDBRANCH  29  35
ENDBRANCH   1  29
TORSDOF 15
