REMARK  Name = 
REMARK  5 active torsions:
REMARK  status: ('A' for Active; 'I' for Inactive)
REMARK    1  A    between atoms: O_1  and  C_2
REMARK    2  A    between atoms: C_2  and  C_4
REMARK    3  A    between atoms: N_6  and  C_7
REMARK    4  A    between atoms: C_16  and  C_17
REMARK    5  A    between atoms: C_17  and  O_18
REMARK                            x       y       z     vdW  Elec       q    Type
REMARK                         _______ _______ _______ _____ _____    ______ ____
ROOT
ATOM      1  C   UNL     1       5.267  -1.177   2.317  0.00  0.00    +0.048 A 
ATOM      2  C   UNL     1       5.179  -2.580   2.413  0.00  0.00    +0.081 A 
ATOM      3  C   UNL     1       5.869  -3.260   3.438  0.00  0.00    +0.025 A 
ATOM      4  C   UNL     1       6.668  -2.560   4.361  0.00  0.00    -0.017 A 
ATOM      5  C   UNL     1       7.362  -3.199   5.404  0.00  0.00    +0.008 A 
ATOM      6  C   UNL     1       8.183  -2.469   6.269  0.00  0.00    +0.001 A 
ATOM      7  C   UNL     1       8.323  -1.094   6.109  0.00  0.00    +0.001 A 
ATOM      8  C   UNL     1       7.631  -0.445   5.093  0.00  0.00    +0.008 A 
ATOM      9  C   UNL     1       6.799  -1.166   4.224  0.00  0.00    -0.016 A 
ATOM     10  C   UNL     1       6.105  -0.501   3.212  0.00  0.00    +0.032 A 
ENDROOT
BRANCH   1  12
ATOM     11  C   UNL     1       4.306   0.914   1.380  0.00  0.00    +0.325 C 
ATOM     12  N   UNL     1       4.544  -0.448   1.339  0.00  0.00    -0.275 N 
ATOM     13  H   UNL     1       4.108  -0.974   0.572  0.00  0.00    +0.155 HD
ATOM     14  O   UNL     1       4.592   1.728   2.256  0.00  0.00    -0.263 OA
BRANCH  11  15
ATOM     15  C   UNL     1       3.558   1.495   0.178  0.00  0.00    +0.393 C 
ATOM     16  O   UNL     1       3.145   0.823  -0.742  0.00  0.00    -0.240 OA
BRANCH  15  17
ATOM     17  O   UNL     1       3.436   2.833   0.313  0.00  0.00    -0.474 OA
ATOM     18  H   UNL     1       3.851   3.097   1.169  0.00  0.00    +0.296 HD
ENDBRANCH  15  17
ENDBRANCH  11  15
ENDBRANCH   1  12
BRANCH   2  19
ATOM     19  C   UNL     1       4.409  -3.348   1.400  0.00  0.00    +0.339 C 
ATOM     20  O   UNL     1       4.288  -2.962   0.249  0.00  0.00    -0.245 OA
BRANCH  19  21
ATOM     21  O   UNL     1       3.827  -4.477   1.856  0.00  0.00    -0.477 OA
ATOM     22  H   UNL     1       3.816  -4.596   2.822  0.00  0.00    +0.295 HD
ENDBRANCH  19  21
ENDBRANCH   2  19
TORSDOF 5
