REMARK  Name = 
REMARK  8 active torsions:
REMARK  status: ('A' for Active; 'I' for Inactive)
REMARK    1  A    between atoms: C_1  and  C_2
REMARK    2  A    between atoms: C_2  and  C_3
REMARK    3  A    between atoms: C_2  and  N_21
REMARK    4  A    between atoms: C_3  and  N_4
REMARK    5  A    between atoms: C_15  and  C_18
REMARK    6  A    between atoms: C_18  and  C_19
REMARK    7  A    between atoms: N_21  and  C_22
REMARK    8  A    between atoms: N_21  and  C_23
REMARK                            x       y       z     vdW  Elec       q    Type
REMARK                         _______ _______ _______ _____ _____    ______ ____
ROOT
ATOM      1  N   UNL     1       2.361   2.094   1.250  0.00  0.00    -0.297 N 
ATOM      2  C   UNL     1       3.366   3.113   1.224  0.00  0.00    +0.049 A 
ATOM      3  C   UNL     1       4.748   2.828   1.323  0.00  0.00    +0.036 A 
ATOM      4  C   UNL     1       5.744   3.824   1.267  0.00  0.00    +0.019 A 
ATOM      5  C   UNL     1       5.375   5.160   1.213  0.00  0.00    +0.012 A 
ATOM      6  C   UNL     1       4.025   5.481   1.132  0.00  0.00    +0.017 A 
ATOM      7  C   UNL     1       3.034   4.478   1.105  0.00  0.00    +0.034 A 
ATOM      8  S   UNL     1       1.385   5.077   0.846  0.00  0.00    -0.086 S 
ATOM      9  C   UNL     1       0.409   3.618   1.102  0.00  0.00    +0.034 A 
ATOM     10  C   UNL     1      -0.986   3.832   1.073  0.00  0.00    +0.017 A 
ATOM     11  C   UNL     1      -1.877   2.795   1.310  0.00  0.00    +0.001 A 
ATOM     12  C   UNL     1      -1.375   1.549   1.632  0.00  0.00    +0.002 A 
ATOM     13  C   UNL     1       0.011   1.334   1.658  0.00  0.00    +0.024 A 
ATOM     14  C   UNL     1       0.953   2.337   1.332  0.00  0.00    +0.048 A 
ENDROOT
BRANCH   4  15
ATOM     15  C   UNL     1       7.173   3.399   1.255  0.00  0.00    +0.160 C 
ATOM     16  O   UNL     1       7.480   2.291   1.689  0.00  0.00    -0.292 OA
ATOM     17  C   UNL     1       8.220   4.319   0.665  0.00  0.00    +0.091 C 
ENDBRANCH   4  15
BRANCH   1  18
ATOM     18  C   UNL     1       2.822   0.673   1.244  0.00  0.00    +0.129 C 
BRANCH  18  20
ATOM     19  C   UNL     1       2.543   0.413  -1.278  0.00  0.00    +0.026 C 
ATOM     20  C   UNL     1       3.483   0.156  -0.086  0.00  0.00    +0.071 C 
BRANCH  20  21
ATOM     21  N   UNL     1       3.834  -1.304  -0.001  0.00  0.00    -0.304 NA
ATOM     22  C   UNL     1       4.615  -1.629   1.201  0.00  0.00    +0.104 C 
ATOM     23  C   UNL     1       4.582  -1.766  -1.177  0.00  0.00    +0.104 C 
ENDBRANCH  20  21
ENDBRANCH  18  20
ENDBRANCH   1  18
TORSDOF 4
