REMARK  Name = 
REMARK  11 active torsions:
REMARK  status: ('A' for Active; 'I' for Inactive)
REMARK    1  A    between atoms: C_5  and  C_6
REMARK    2  A    between atoms: C_6  and  S_7
REMARK    3  A    between atoms: S_7  and  C_8
REMARK    4  A    between atoms: N_15  and  C_16
REMARK    5  A    between atoms: CA_17  and  C_36
REMARK    6  A    between atoms: CA_21  and  N_23
REMARK    7  A    between atoms: C_24  and  C_26
REMARK    8  A    between atoms: C_26  and  C_30
REMARK    9  A    between atoms: N_27  and  O_28
REMARK   10  A    between atoms: O_28  and  C_29
REMARK   11  A    between atoms: C_36  and  O_37
REMARK                            x       y       z     vdW  Elec       q    Type
REMARK                         _______ _______ _______ _____ _____    ______ ____
ROOT
ATOM      1  C   UNL     1       1.585  -0.249  -0.606  0.00  0.00    +0.169 C 
ATOM      2  CA  UNL     1       2.526  -1.521  -0.632  0.00  0.00    +0.191 C 
ATOM      3  C   UNL     1       3.177  -0.722  -1.814  0.00  0.00    +0.244 C 
ATOM      4  O   UNL     1       4.124  -0.926  -2.555  0.00  0.00    -0.273 OA
ATOM      5  N   UNL     1       2.537   0.410  -1.452  0.00  0.00    -0.249 N 
ATOM      6  CA  UNL     1       2.853   1.738  -1.503  0.00  0.00    +0.123 C 
ATOM      7  C   UNL     1       2.472   2.645  -0.559  0.00  0.00    -0.021 C 
ATOM      8  C   UNL     1       1.538   2.330   0.588  0.00  0.00    +0.104 C 
ATOM      9  S   UNL     1       0.835   0.648   0.734  0.00  0.00    -0.131 S 
ENDROOT
BRANCH   2  10
ATOM     10  N   UNL     1       3.582  -2.092   0.320  0.00  0.00    -0.296 N 
ATOM     11  H   UNL     1       3.371  -2.984   0.764  0.00  0.00    +0.150 HD
ATOM     12  C   UNL     1       4.894  -1.741   0.676  0.00  0.00    +0.268 C 
ATOM     13  O   UNL     1       5.536  -2.465   1.426  0.00  0.00    -0.268 OA
BRANCH  12  14
ATOM     14  C   UNL     1       5.478  -0.389   0.338  0.00  0.00    +0.190 C 
ATOM     15  N   UNL     1       4.854   0.716   0.569  0.00  0.00    -0.078 NA
BRANCH  14  16
ATOM     16  C   UNL     1       6.876  -0.153  -0.030  0.00  0.00    +0.107 A 
ATOM     17  N   UNL     1       7.253   0.501  -1.216  0.00  0.00    -0.223 NA
ATOM     18  C   UNL     1       8.507   0.877  -1.161  0.00  0.00    +0.156 A 
ATOM     19  N   UNL     1       9.150   1.570  -2.125  0.00  0.00    -0.338 N 
ATOM     20  H   UNL     1       8.553   2.015  -2.815  0.00  0.00    +0.144 HD
ATOM     21  H   UNL     1       9.945   2.106  -1.862  0.00  0.00    +0.144 HD
ATOM     22  S   UNL     1       9.319   0.507   0.313  0.00  0.00    -0.060 S 
ATOM     23  C   UNL     1       7.894  -0.231   0.906  0.00  0.00    +0.078 A 
ENDBRANCH  14  16
BRANCH  15  24
ATOM     24  O   UNL     1       3.635   0.719   1.246  0.00  0.00    -0.396 OA
ATOM     25  C   UNL     1       3.390  -0.116   2.365  0.00  0.00    +0.313 C 
ENDBRANCH  15  24
ENDBRANCH  12  14
ENDBRANCH   2  10
BRANCH   6  26
ATOM     26  C   UNL     1       3.663   2.233  -2.686  0.00  0.00    +0.351 C 
ATOM     27  OXT UNL     1       3.417   3.311  -3.195  0.00  0.00    -0.244 OA
BRANCH  26  28
ATOM     28  O   UNL     1       4.603   1.431  -3.179  0.00  0.00    -0.476 OA
ATOM     29  H   UNL     1       4.720   0.549  -2.767  0.00  0.00    +0.295 HD
ENDBRANCH  26  28
ENDBRANCH   6  26
BRANCH   7  30
ATOM     30  C   UNL     1       3.040   4.098  -0.561  0.00  0.00    +0.111 C 
BRANCH  30  31
ATOM     31  S   UNL     1       3.211   5.056   1.002  0.00  0.00    -0.082 S 
BRANCH  31  32
ATOM     32  C   UNL     1       4.707   4.476   1.773  0.00  0.00    +0.187 A 
ATOM     33  N   UNL     1       5.548   5.367   2.434  0.00  0.00    -0.264 N 
ATOM     34  C   UNL     1       5.357   6.798   2.593  0.00  0.00    +0.173 C 
ATOM     35  N   UNL     1       6.831   4.901   2.808  0.00  0.00    -0.257 N 
ATOM     36  H   UNL     1       7.453   5.506   3.340  0.00  0.00    +0.190 HD
ATOM     37  C   UNL     1       7.081   3.549   2.914  0.00  0.00    +0.330 A 
ATOM     38  O   UNL     1       8.129   3.103   3.342  0.00  0.00    -0.260 OA
ATOM     39  C   UNL     1       5.898   2.684   2.496  0.00  0.00    +0.338 A 
ATOM     40  O   UNL     1       5.916   1.545   2.951  0.00  0.00    -0.260 OA
ATOM     41  N   UNL     1       4.850   3.196   1.768  0.00  0.00    -0.179 NA
ENDBRANCH  31  32
ENDBRANCH  30  31
ENDBRANCH   7  30
TORSDOF 9
