REMARK  Name = 
REMARK  9 active torsions:
REMARK  status: ('A' for Active; 'I' for Inactive)
REMARK    1  A    between atoms: N_1  and  CA_2
REMARK    2  A    between atoms: CA_2  and  C_4
REMARK    3  A    between atoms: CA_2  and  C_13
REMARK    4  A    between atoms: C_4  and  C_5
REMARK    5  A    between atoms: C_5  and  C_6
REMARK    6  A    between atoms: C_6  and  N_7
REMARK    7  A    between atoms: N_10  and  C_11
REMARK    8  A    between atoms: N_10  and  C_12
REMARK    9  A    between atoms: C_13  and  O_14
REMARK                            x       y       z     vdW  Elec       q    Type
REMARK                         _______ _______ _______ _____ _____    ______ ____
ROOT
ATOM      1  C   UNL     1       2.428  -0.270  -2.425  0.00  0.00    +0.043 C 
ENDROOT
BRANCH   1   2
ATOM      2  C   UNL     1       2.872   0.580  -1.233  0.00  0.00    +0.033 C 
BRANCH   2   3
ATOM      3  CA  UNL     1       2.358   0.070   0.118  0.00  0.00    +0.161 C 
BRANCH   3   4
ATOM      4  N   UNL     1       0.863   0.060   0.181  0.00  0.00    -0.318 NA
ATOM      5  H1  UNL     1       0.511   0.808  -0.425  0.00  0.00    +0.119 HD
ATOM      6  H2  UNL     1       0.545  -0.794  -0.290  0.00  0.00    +0.119 HD
ENDBRANCH   3   4
BRANCH   3   7
ATOM      7  C   UNL     1       2.884   0.977   1.248  0.00  0.00    +0.322 C 
ATOM      8  OXT UNL     1       4.050   1.301   1.411  0.00  0.00    -0.249 OA
BRANCH   7   9
ATOM      9  O   UNL     1       1.871   1.391   2.055  0.00  0.00    -0.480 OA
ATOM     10  H   UNL     1       1.057   0.960   1.688  0.00  0.00    +0.295 HD
ENDBRANCH   7   9
ENDBRANCH   3   7
ENDBRANCH   2   3
ENDBRANCH   1   2
BRANCH   1  11
ATOM     11  C   UNL     1       2.969   0.311  -3.731  0.00  0.00    +0.243 C 
BRANCH  11  12
ATOM     12  N   UNL     1       2.517  -0.532  -4.828  0.00  0.00    -0.114 NA
ATOM     13  C   UNL     1       2.856  -0.256  -6.041  0.00  0.00    +0.381 C 
ATOM     14  N   UNL     1       2.465  -1.055  -7.095  0.00  0.00    -0.268 N 
ATOM     15  C   UNL     1       2.633  -0.751  -8.511  0.00  0.00    +0.242 C 
ATOM     16  C   UNL     1       1.612  -2.221  -6.857  0.00  0.00    +0.242 C 
ATOM     17  N   UNL     1       3.622   0.808  -6.407  0.00  0.00    -0.289 N 
ATOM     18  H   UNL     1       4.344   0.559  -7.069  0.00  0.00    +0.255 HD
ATOM     19  H   UNL     1       4.027   1.317  -5.636  0.00  0.00    +0.255 HD
ENDBRANCH  11  12
ENDBRANCH   1  11
TORSDOF 7
