REMARK  Name = 
REMARK  4 active torsions:
REMARK  status: ('A' for Active; 'I' for Inactive)
REMARK    1  A    between atoms: C_1  and  C_2
REMARK    2  A    between atoms: C_3  and  C_7
REMARK    3  A    between atoms: N_9  and  C_10
REMARK    4  A    between atoms: C_13  and  C_16
REMARK                            x       y       z     vdW  Elec       q    Type
REMARK                         _______ _______ _______ _____ _____    ______ ____
ROOT
ATOM      1  C   UNL     1       2.594   2.443   0.204  0.00  0.00    +0.253 C 
ATOM      2  N   UNL     1       3.461   3.523   0.118  0.00  0.00    -0.281 N 
ATOM      3  H   UNL     1       4.456   3.348   0.138  0.00  0.00    +0.155 HD
ATOM      4  O   UNL     1       1.374   2.542   0.197  0.00  0.00    -0.270 OA
ENDROOT
BRANCH   1  10
ATOM      5  C   UNL     1       1.030  -0.402   0.401  0.00  0.00    +0.090 C 
ATOM      6  C   UNL     1       2.471  -0.055   0.386  0.00  0.00    +0.146 A 
ATOM      7  O   UNL     1       3.324  -1.110   0.478  0.00  0.00    -0.359 OA
ATOM      8  N   UNL     1       4.628  -0.652   0.448  0.00  0.00    -0.086 NA
ATOM      9  C   UNL     1       4.532   0.676   0.341  0.00  0.00    +0.170 A 
ATOM     10  C   UNL     1       3.195   1.124   0.304  0.00  0.00    +0.098 A 
ENDBRANCH   1  10
BRANCH   2  11
ATOM     11  C   UNL     1       3.067   4.884  -0.018  0.00  0.00    +0.034 A 
ATOM     12  C   UNL     1       4.056   5.870  -0.113  0.00  0.00    +0.024 A 
ATOM     13  C   UNL     1       3.707   7.221  -0.279  0.00  0.00    +0.014 A 
ATOM     14  C   UNL     1       2.360   7.614  -0.350  0.00  0.00    +0.055 A 
ATOM     15  C   UNL     1       1.378   6.629  -0.237  0.00  0.00    +0.014 A 
ATOM     16  C   UNL     1       1.729   5.289  -0.073  0.00  0.00    +0.024 A 
BRANCH  14  17
ATOM     17  C   UNL     1       1.967   9.055  -0.552  0.00  0.00    +0.417 C 
ATOM     18  F   UNL     1       2.479   9.581  -1.699  0.00  0.00    -0.166 F 
ATOM     19  F   UNL     1       2.390   9.862   0.457  0.00  0.00    -0.166 F 
ATOM     20  F   UNL     1       0.616   9.240  -0.633  0.00  0.00    -0.166 F 
ENDBRANCH  14  17
ENDBRANCH   2  11
TORSDOF 3
