REMARK  Name = 
REMARK  13 active torsions:
REMARK  status: ('A' for Active; 'I' for Inactive)
REMARK    1  A    between atoms: C_1  and  C_2
REMARK    2  A    between atoms: C_3  and  C_4
REMARK    3  A    between atoms: C_4  and  C_5
REMARK    4  A    between atoms: C_5  and  O_6
REMARK    5  A    between atoms: O_6  and  P_7
REMARK    6  A    between atoms: P_7  and  O_8
REMARK    7  A    between atoms: P_7  and  O_10
REMARK    8  A    between atoms: O_10  and  P_11
REMARK    9  A    between atoms: P_11  and  O_12
REMARK   10  A    between atoms: N_17  and  C_18
REMARK   11  A    between atoms: C_18  and  C_19
REMARK   12  A    between atoms: C_20  and  C_21
REMARK   13  A    between atoms: C_23  and  C_24
REMARK                            x       y       z     vdW  Elec       q    Type
REMARK                         _______ _______ _______ _____ _____    ______ ____
ROOT
ATOM      1  C   UNL     1      -5.178  -8.802   4.653  0.00  0.00    +0.122 C 
ATOM      2  C   UNL     1      -5.392  -8.176   5.995  0.00  0.00    +0.191 A 
ATOM      3  N   UNL     1      -6.576  -8.366   6.710  0.00  0.00    -0.190 N 
ATOM      4  C   UNL     1      -6.567  -7.818   7.913  0.00  0.00    +0.357 A 
ATOM      5  S   UNL     1      -5.166  -6.876   8.167  0.00  0.00    -0.027 S 
ATOM      6  C   UNL     1      -4.524  -7.300   6.634  0.00  0.00    +0.064 A 
ENDROOT
BRANCH   3   7
ATOM      7  C   UNL     1      -7.846  -8.812   6.120  0.00  0.00    +0.399 C 
BRANCH   7   8
ATOM      8  C   UNL     1      -8.502 -10.050   6.670  0.00  0.00    +0.078 A 
ATOM      9  C   UNL     1      -7.980 -11.301   6.367  0.00  0.00    +0.129 A 
ATOM     10  N   UNL     1      -6.677 -11.465   5.929  0.00  0.00    -0.343 N 
ATOM     11  H   UNL     1      -5.931 -11.154   6.564  0.00  0.00    +0.144 HD
ATOM     12  H   UNL     1      -6.520 -12.457   5.747  0.00  0.00    +0.144 HD
ATOM     13  N   UNL     1      -8.740 -12.410   6.312  0.00  0.00    -0.218 NA
ATOM     14  C   UNL     1     -10.030 -12.285   6.649  0.00  0.00    +0.128 A 
ATOM     15  C   UNL     1     -11.005 -13.367   6.270  0.00  0.00    +0.088 C 
ATOM     16  N   UNL     1     -10.563 -11.178   7.171  0.00  0.00    -0.237 NA
ATOM     17  C   UNL     1      -9.810 -10.061   7.159  0.00  0.00    +0.053 A 
ATOM     18  C   UNL     1     -10.605  -8.870   7.613  0.00  0.00    +0.066 C 
ENDBRANCH   7   8
ENDBRANCH   3   7
BRANCH   6  19
ATOM     19  C   UNL     1      -3.232  -6.719   6.099  0.00  0.00    +0.077 C 
BRANCH  19  20
ATOM     20  C   UNL     1      -2.161  -6.368   7.135  0.00  0.00    +0.178 C 
BRANCH  20  21
ATOM     21  O   UNL     1      -1.778  -7.502   7.891  0.00  0.00    -0.286 OA
BRANCH  21  22
ATOM     22  P   UNL     1      -0.808  -8.582   7.194  0.00  0.00    +0.480 P 
ATOM     23  O   UNL     1      -0.570  -8.390   5.731  0.00  0.00    -0.227 OA
BRANCH  22  24
ATOM     24  O   UNL     1       0.564  -8.337   8.012  0.00  0.00    -0.302 OA
ATOM     25  H   UNL     1       1.264  -8.888   7.611  0.00  0.00    +0.222 HD
ENDBRANCH  22  24
BRANCH  22  26
ATOM     26  O   UNL     1      -1.270  -9.984   7.754  0.00  0.00    -0.229 OA
BRANCH  26  27
ATOM     27  P   UNL     1      -2.210 -10.988   6.951  0.00  0.00    +0.220 P 
ATOM     28  O   UNL     1      -3.601 -10.452   6.755  0.00  0.00    -0.517 OA
ATOM     29  O   UNL     1      -1.411 -11.627   5.853  0.00  0.00    -0.437 OA
BRANCH  27  30
ATOM     30  O   UNL     1      -2.291 -12.163   8.046  0.00  0.00    -0.343 OA
ATOM     31  H   UNL     1      -1.699 -12.852   7.685  0.00  0.00    +0.218 HD
ENDBRANCH  27  30
ENDBRANCH  26  27
ENDBRANCH  22  26
ENDBRANCH  21  22
ENDBRANCH  20  21
ENDBRANCH  19  20
ENDBRANCH   6  19
TORSDOF 10
