REMARK  Name = 
REMARK  6 active torsions:
REMARK  status: ('A' for Active; 'I' for Inactive)
REMARK    1  A    between atoms: O_1  and  C_2
REMARK    2  A    between atoms: C_2  and  C_3
REMARK    3  A    between atoms: C_3  and  O_5
REMARK    4  A    between atoms: C_3  and  C_6
REMARK    5  A    between atoms: C_6  and  S_7
REMARK    6  A    between atoms: S_7  and  O_8
REMARK                            x       y       z     vdW  Elec       q    Type
REMARK                         _______ _______ _______ _____ _____    ______ ____
ROOT
ATOM      1  C   UNL     1       2.958  -1.109   1.079  0.00  0.00    +0.152 C 
ENDROOT
BRANCH   1   2
ATOM      2  O   UNL     1       2.471  -2.404   0.682  0.00  0.00    -0.389 OA
ATOM      3  H   UNL     1       1.529  -2.254   0.458  0.00  0.00    +0.210 HD
ENDBRANCH   1   2
BRANCH   1   4
ATOM      4  C   UNL     1       2.448  -0.084   0.059  0.00  0.00    +0.188 C 
BRANCH   4   5
ATOM      5  O   UNL     1       1.019  -0.176   0.008  0.00  0.00    -0.392 OA
ATOM      6  H   UNL     1       0.717   0.531  -0.589  0.00  0.00    +0.210 HD
ENDBRANCH   4   5
ENDBRANCH   1   4
BRANCH   1   7
ATOM      7  C   UNL     1       4.483  -1.168   1.180  0.00  0.00    +0.133 C 
BRANCH   7   8
ATOM      8  S   UNL     1       5.197   0.384   1.821  0.00  0.00    -0.009 S 
BRANCH   8   9
ATOM      9  O   UNL     1       6.811   0.007   1.699  0.00  0.00    -0.329 OA
ATOM     10  H   UNL     1       7.191  -0.228   2.580  0.00  0.00    +0.227 HD
ENDBRANCH   8   9
ENDBRANCH   7   8
ENDBRANCH   1   7
TORSDOF 6
