REMARK  Name = 
REMARK  4 active torsions:
REMARK  status: ('A' for Active; 'I' for Inactive)
REMARK    1  A    between atoms: C_1  and  O_2
REMARK    2  A    between atoms: O_2  and  C_3
REMARK    3  A    between atoms: C_8  and  C_10
REMARK    4  A    between atoms: C_11  and  C_12
REMARK                            x       y       z     vdW  Elec       q    Type
REMARK                         _______ _______ _______ _____ _____    ______ ____
ROOT
ATOM      1  C   UNL     1       4.474  -1.316  -1.920  0.00  0.00    +0.108 C 
ATOM      2  C   UNL     1       3.648  -1.995  -0.879  0.00  0.00    +0.123 C 
ATOM      3  C   UNL     1       3.305  -3.459  -1.185  0.00  0.00    +0.207 C 
ATOM      4  O   UNL     1       3.527  -3.893  -2.539  0.00  0.00    -0.454 OA
ATOM      5  C   UNL     1       4.330  -3.259  -3.416  0.00  0.00    +0.336 C 
ATOM      6  O   UNL     1       4.629  -3.752  -4.498  0.00  0.00    -0.245 OA
ATOM      7  C   UNL     1       4.802  -1.921  -3.062  0.00  0.00    +0.132 C 
ENDROOT
BRANCH   1   9
ATOM      8  C   UNL     1       4.118   0.811  -0.915  0.00  0.00    +0.276 C 
ATOM      9  O   UNL     1       4.968  -0.043  -1.677  0.00  0.00    -0.499 OA
ENDBRANCH   1   9
BRANCH   3  10
ATOM     10  C   UNL     1       3.936  -4.416  -0.200  0.00  0.00    +0.018 C 
ATOM     11  C   UNL     1       4.613  -5.537  -0.494  0.00  0.00    +0.007 C 
BRANCH  11  12
ATOM     12  C   UNL     1       5.124  -6.444   0.523  0.00  0.00    -0.029 C 
ATOM     13  C   UNL     1       6.034  -6.024   1.578  0.00  0.00    +0.003 C 
ATOM     14  C   UNL     1       6.523  -6.873   2.494  0.00  0.00    -0.026 C 
ATOM     15  C   UNL     1       6.180  -8.331   2.519  0.00  0.00    +0.031 C 
ATOM     16  C   UNL     1       5.167  -8.784   1.454  0.00  0.00    +0.032 C 
ATOM     17  C   UNL     1       4.734  -7.732   0.473  0.00  0.00    -0.019 C 
ENDBRANCH  11  12
ENDBRANCH   3  10
TORSDOF 3
