REMARK  Name = 
REMARK  2 active torsions:
REMARK  status: ('A' for Active; 'I' for Inactive)
REMARK    1  A    between atoms: C_1  and  C_2
REMARK    2  A    between atoms: C_5  and  O_6
REMARK                            x       y       z     vdW  Elec       q    Type
REMARK                         _______ _______ _______ _____ _____    ______ ____
ROOT
ATOM      1  C   UNL     1       1.032   0.069   0.151  0.00  0.00    +0.044 C 
ATOM      2  C   UNL     1       2.528   0.102   0.041  0.00  0.00    -0.050 A 
ATOM      3  C   UNL     1       3.251  -1.097  -0.013  0.00  0.00    +0.007 A 
ATOM      4  C   UNL     1       4.641  -1.079  -0.135  0.00  0.00    +0.045 A 
ATOM      5  C   UNL     1       5.309   0.136  -0.207  0.00  0.00    +0.117 A 
ATOM      6  C   UNL     1       4.611   1.338  -0.150  0.00  0.00    +0.045 A 
ATOM      7  C   UNL     1       3.219   1.319  -0.028  0.00  0.00    +0.007 A 
ENDROOT
BRANCH   5   8
ATOM      8  O   UNL     1       6.666   0.109  -0.339  0.00  0.00    -0.507 OA
ATOM      9  H   UNL     1       6.985   1.022  -0.427  0.00  0.00    +0.292 HD
ENDBRANCH   5   8
TORSDOF 1
