REMARK  Name = 
REMARK  8 active torsions:
REMARK  status: ('A' for Active; 'I' for Inactive)
REMARK    1  A    between atoms: N_8  and  C_9
REMARK    2  A    between atoms: C_12  and  C_14
REMARK    3  A    between atoms: C_14  and  O_15
REMARK    4  A    between atoms: O_15  and  P_16
REMARK    5  A    between atoms: P_16  and  O_17
REMARK    6  A    between atoms: P_16  and  O_18
REMARK    7  A    between atoms: C_20  and  O_22
REMARK    8  A    between atoms: C_23  and  O_25
REMARK                            x       y       z     vdW  Elec       q    Type
REMARK                         _______ _______ _______ _____ _____    ______ ____
ROOT
ATOM      1  C   UNL     1       5.073  -3.752   0.047  0.00  0.00    +0.253 C 
ATOM      2  C   UNL     1       4.986  -4.217   1.514  0.00  0.00    +0.195 C 
ATOM      3  C   UNL     1       5.166  -5.741   1.453  0.00  0.00    +0.178 C 
ATOM      4  C   UNL     1       5.323  -6.030  -0.039  0.00  0.00    +0.178 C 
ATOM      5  O   UNL     1       5.808  -4.810  -0.622  0.00  0.00    -0.346 OA
ENDROOT
BRANCH   1  17
ATOM      6  N   UNL     1       0.217  -5.003   1.865  0.00  0.00    -0.329 N 
ATOM      7  H   UNL     1      -0.532  -5.671   1.741  0.00  0.00    +0.145 HD
ATOM      8  H   UNL     1       0.903  -5.308   2.551  0.00  0.00    +0.145 HD
ATOM      9  C   UNL     1       0.813  -4.534   0.742  0.00  0.00    +0.195 A 
ATOM     10  N   UNL     1       0.004  -4.348  -0.360  0.00  0.00    -0.293 N 
ATOM     11  H   UNL     1      -0.983  -4.529  -0.300  0.00  0.00    +0.172 HD
ATOM     12  C   UNL     1       0.442  -3.854  -1.581  0.00  0.00    +0.280 A 
ATOM     13  O   UNL     1      -0.319  -3.705  -2.532  0.00  0.00    -0.265 OA
ATOM     14  C   UNL     1       1.862  -3.571  -1.579  0.00  0.00    +0.172 A 
ATOM     15  N   UNL     1       2.678  -3.106  -2.577  0.00  0.00    -0.229 NA
ATOM     16  C   UNL     1       3.877  -3.092  -2.033  0.00  0.00    +0.203 A 
ATOM     17  N   UNL     1       3.867  -3.531  -0.724  0.00  0.00    -0.285 N 
ATOM     18  C   UNL     1       2.568  -3.817  -0.423  0.00  0.00    +0.171 A 
ATOM     19  N   UNL     1       2.091  -4.285   0.751  0.00  0.00    -0.196 NA
ENDBRANCH   1  17
BRANCH   2  20
ATOM     20  O   UNL     1       6.090  -3.650   2.264  0.00  0.00    -0.385 OA
ATOM     21  H   UNL     1       6.923  -3.916   1.837  0.00  0.00    +0.210 HD
ENDBRANCH   2  20
BRANCH   3  22
ATOM     22  O   UNL     1       4.060  -6.441   2.017  0.00  0.00    -0.386 OA
ATOM     23  H   UNL     1       4.190  -7.389   1.828  0.00  0.00    +0.210 HD
ENDBRANCH   3  22
BRANCH   4  24
ATOM     24  C   UNL     1       6.281  -7.167  -0.359  0.00  0.00    +0.206 C 
BRANCH  24  25
ATOM     25  O   UNL     1       5.914  -8.332   0.354  0.00  0.00    -0.284 OA
BRANCH  25  26
ATOM     26  P   UNL     1       6.595  -9.702  -0.121  0.00  0.00    +0.472 P 
ATOM     27  O   UNL     1       7.964  -9.592  -0.692  0.00  0.00    -0.228 OA
BRANCH  26  28
ATOM     28  O   UNL     1       5.509 -10.337  -1.098  0.00  0.00    -0.303 OA
ATOM     29  H   UNL     1       5.573  -9.999  -2.008  0.00  0.00    +0.222 HD
ENDBRANCH  26  28
BRANCH  26  30
ATOM     30  O   UNL     1       6.496 -10.614   1.182  0.00  0.00    -0.303 OA
ATOM     31  H   UNL     1       7.217 -10.426   1.807  0.00  0.00    +0.222 HD
ENDBRANCH  26  30
ENDBRANCH  25  26
ENDBRANCH  24  25
ENDBRANCH   4  24
TORSDOF 8
