REMARK  Name = 
REMARK  11 active torsions:
REMARK  status: ('A' for Active; 'I' for Inactive)
REMARK    1  A    between atoms: N_1  and  C_2
REMARK    2  A    between atoms: C_2  and  C_4
REMARK    3  A    between atoms: C_2  and  C_29
REMARK    4  A    between atoms: C_4  and  C_5
REMARK    5  A    between atoms: C_5  and  S_6
REMARK    6  A    between atoms: S_6  and  C_7
REMARK    7  A    between atoms: C_7  and  C_8
REMARK    8  A    between atoms: C_11  and  N_19
REMARK    9  A    between atoms: C_13  and  O_15
REMARK   10  A    between atoms: C_16  and  O_18
REMARK   11  A    between atoms: C_29  and  O_30
REMARK                            x       y       z     vdW  Elec       q    Type
REMARK                         _______ _______ _______ _____ _____    ______ ____
ROOT
ATOM      1  C   UNK     1       2.971  -5.178  -4.425  0.00  0.00    +0.162 C 
ATOM      2  C   UNK     1       2.628  -6.668  -4.470  0.00  0.00    +0.177 C 
ATOM      3  C   UNK     1       3.789  -7.335  -5.209  0.00  0.00    +0.195 C 
ATOM      4  C   UNK     1       4.719  -6.179  -5.589  0.00  0.00    +0.253 C 
ATOM      5  O   UNK     1       4.376  -5.082  -4.721  0.00  0.00    -0.347 OA
ENDROOT
BRANCH   4   6
ATOM      6  N   UNK     1       6.146  -6.417  -5.464  0.00  0.00    -0.286 N 
ATOM      7  C   UNK     1       6.829  -7.575  -5.724  0.00  0.00    +0.167 A 
ATOM      8  N   UNK     1       6.333  -8.782  -6.049  0.00  0.00    -0.216 NA
ATOM      9  C   UNK     1       7.330  -9.684  -6.196  0.00  0.00    +0.225 A 
ATOM     10  N   UNK     1       8.665  -9.491  -6.085  0.00  0.00    -0.219 NA
ATOM     11  C   UNK     1       9.112  -8.253  -5.794  0.00  0.00    +0.147 A 
ATOM     12  N   UNK     1      10.481  -8.037  -5.712  0.00  0.00    -0.341 N 
ATOM     13  H   UNK     1      10.731  -7.200  -5.196  0.00  0.00    +0.144 HD
ATOM     14  H   UNK     1      11.002  -8.882  -5.530  0.00  0.00    +0.144 HD
ATOM     15  C   UNK     1       8.167  -7.237  -5.580  0.00  0.00    +0.147 A 
ATOM     16  N   UNK     1       8.308  -5.909  -5.233  0.00  0.00    -0.231 NA
ATOM     17  C   UNK     1       7.080  -5.445  -5.189  0.00  0.00    +0.203 A 
ENDBRANCH   4   6
BRANCH   2  18
ATOM     18  O   UNK     1       2.550  -7.180  -3.128  0.00  0.00    -0.386 OA
ATOM     19  H   UNK     1       3.381  -6.970  -2.665  0.00  0.00    +0.210 HD
ENDBRANCH   2  18
BRANCH   3  20
ATOM     20  O   UNK     1       3.311  -8.011  -6.375  0.00  0.00    -0.385 OA
ATOM     21  H   UNK     1       4.034  -8.600  -6.670  0.00  0.00    +0.210 HD
ENDBRANCH   3  20
BRANCH   1  22
ATOM     22  C   UNK     1       2.194  -4.311  -5.426  0.00  0.00    +0.103 C 
BRANCH  22  23
ATOM     23  S   UNK     1       0.383  -4.314  -5.193  0.00  0.00    -0.158 S 
BRANCH  23  24
ATOM     24  C   UNK     1       0.286  -3.644  -3.498  0.00  0.00    +0.071 C 
BRANCH  24  25
ATOM     25  C   UNK     1      -1.180  -3.553  -3.078  0.00  0.00    +0.040 C 
BRANCH  25  26
ATOM     26  C   UNK     1      -1.371  -3.021  -1.653  0.00  0.00    +0.161 C 
BRANCH  26  27
ATOM     27  N   UNK     1      -2.831  -3.058  -1.306  0.00  0.00    -0.318 NA
ATOM     28  H   UNK     1      -3.373  -2.910  -2.166  0.00  0.00    +0.119 HD
ATOM     29  H   UNK     1      -3.060  -4.023  -1.045  0.00  0.00    +0.119 HD
ENDBRANCH  26  27
BRANCH  26  30
ATOM     30  C   UNK     1      -0.877  -1.573  -1.487  0.00  0.00    +0.322 C 
ATOM     31  O   UNK     1       0.258  -1.180  -1.707  0.00  0.00    -0.249 OA
BRANCH  30  32
ATOM     32  O   UNK     1      -1.867  -0.760  -1.034  0.00  0.00    -0.480 OA
ATOM     33  H   UNK     1      -2.644  -1.354  -0.879  0.00  0.00    +0.295 HD
ENDBRANCH  30  32
ENDBRANCH  26  30
ENDBRANCH  25  26
ENDBRANCH  24  25
ENDBRANCH  23  24
ENDBRANCH  22  23
ENDBRANCH   1  22
TORSDOF 11
