REMARK  Name = 
REMARK  1 active torsions:
REMARK  status: ('A' for Active; 'I' for Inactive)
REMARK    1  A    between atoms: N_1  and  C_2
REMARK                            x       y       z     vdW  Elec       q    Type
REMARK                         _______ _______ _______ _____ _____    ______ ____
ROOT
ATOM      1  C   UNL     1       2.539  -0.087   0.140  0.00  0.00    +0.292 C 
ATOM      2  N   UNL     1       3.025  -1.240   0.914  0.00  0.00    -0.241 NA
ATOM      3  C   UNL     1       3.733  -0.687   1.833  0.00  0.00    +0.087 A 
ATOM      4  C   UNL     1       3.686   0.786   1.744  0.00  0.00    +0.087 A 
ATOM      5  C   UNL     1       4.410   1.591   2.732  0.00  0.00    +0.029 A 
ATOM      6  C   UNL     1       5.097   0.935   3.678  0.00  0.00    +0.002 A 
ATOM      7  C   UNL     1       5.147  -0.513   3.762  0.00  0.00    +0.002 A 
ATOM      8  C   UNL     1       4.508  -1.321   2.904  0.00  0.00    +0.029 A 
ATOM      9  N   UNL     1       2.949   1.181   0.766  0.00  0.00    -0.241 NA
ENDROOT
BRANCH   1  10
ATOM     10  N   UNL     1       1.108  -0.111   0.064  0.00  0.00    -0.291 NA
ATOM     11  H   UNL     1       0.769  -0.132   1.020  0.00  0.00    +0.122 HD
ATOM     12  H   UNL     1       0.832   0.795  -0.306  0.00  0.00    +0.122 HD
ENDBRANCH   1  10
TORSDOF 1
