REMARK  Name = 
REMARK  37 active torsions:
REMARK  status: ('A' for Active; 'I' for Inactive)
REMARK    1  A    between atoms: C_1  and  C_2
REMARK    2  A    between atoms: C_2  and  C_4
REMARK    3  A    between atoms: C_2  and  C_49
REMARK    4  A    between atoms: C_4  and  C_5
REMARK    5  A    between atoms: C_5  and  C_6
REMARK    6  A    between atoms: N_8  and  C_9
REMARK    7  A    between atoms: N_8  and  C_29
REMARK    8  A    between atoms: C_9  and  C_10
REMARK    9  A    between atoms: C_10  and  C_11
REMARK   10  A    between atoms: C_11  and  N_12
REMARK   11  A    between atoms: C_13  and  C_15
REMARK   12  A    between atoms: C_15  and  O_17
REMARK   13  A    between atoms: C_15  and  C_18
REMARK   14  A    between atoms: C_18  and  O_20
REMARK   15  A    between atoms: C_18  and  C_21
REMARK   16  A    between atoms: C_21  and  O_23
REMARK   17  A    between atoms: C_21  and  C_24
REMARK   18  A    between atoms: C_24  and  O_26
REMARK   19  A    between atoms: C_24  and  C_27
REMARK   20  A    between atoms: C_27  and  O_28
REMARK   21  A    between atoms: C_29  and  C_30
REMARK   22  A    between atoms: C_30  and  C_31
REMARK   23  A    between atoms: C_31  and  N_32
REMARK   24  A    between atoms: C_33  and  C_35
REMARK   25  A    between atoms: C_35  and  O_37
REMARK   26  A    between atoms: C_35  and  C_38
REMARK   27  A    between atoms: C_38  and  O_40
REMARK   28  A    between atoms: C_38  and  C_41
REMARK   29  A    between atoms: C_41  and  O_43
REMARK   30  A    between atoms: C_41  and  C_44
REMARK   31  A    between atoms: C_44  and  O_46
REMARK   32  A    between atoms: C_44  and  C_47
REMARK   33  A    between atoms: C_47  and  O_48
REMARK   34  A    between atoms: C_62  and  O_64
REMARK   35  A    between atoms: C_67  and  C_68
REMARK   36  A    between atoms: C_72  and  O_74
REMARK   37  A    between atoms: C_75  and  C_76
REMARK                            x       y       z     vdW  Elec       q    Type
REMARK                         _______ _______ _______ _____ _____    ______ ____
ROOT
ATOM      1  C   UNL     1      -0.000  -0.000   0.000  0.00  0.00    +0.216 C 
ATOM      2  N   UNL     1      -0.000  -0.000   0.000  0.00  0.00    -0.301 N 
ATOM      3  O   UNL     1      -0.000  -0.000   0.000  0.00  0.00    -0.276 OA
ENDROOT
BRANCH   1   4
ATOM      4  C   UNL     1      -0.000  -0.000   0.000  0.00  0.00    +0.096 C 
BRANCH   4   5
ATOM      5  C   UNL     1      -0.000  -0.000   0.000  0.00  0.00    +0.013 C 
BRANCH   5   7
ATOM      6  C   UNL     1      -0.000  -0.000   0.000  0.00  0.00    +0.008 C 
ATOM      7  C   UNL     1      -0.000  -0.000   0.000  0.00  0.00    -0.010 C 
BRANCH   7   8
ATOM      8  C   UNL     1      -0.000  -0.000   0.000  0.00  0.00    +0.001 C 
ATOM      9  C   UNL     1      -0.000  -0.000   0.000  0.00  0.00    +0.000 C 
ATOM     10  C   UNL     1      -0.000  -0.000   0.000  0.00  0.00    +0.014 C 
ATOM     11  C   UNL     1      -0.000  -0.000   0.000  0.00  0.00    +0.001 C 
ATOM     12  C   UNL     1      -0.000  -0.000   0.000  0.00  0.00    -0.004 C 
ATOM     13  C   UNL     1      -0.000  -0.000   0.000  0.00  0.00    +0.001 C 
ATOM     14  C   UNL     1      -0.000  -0.000   0.000  0.00  0.00    +0.036 C 
ATOM     15  C   UNL     1      -0.000  -0.000   0.000  0.00  0.00    -0.026 C 
ATOM     16  C   UNL     1      -0.000  -0.000   0.000  0.00  0.00    +0.012 C 
ATOM     17  C   UNL     1      -0.000  -0.000   0.000  0.00  0.00    -0.002 C 
ATOM     18  C   UNL     1      -0.000  -0.000   0.000  0.00  0.00    +0.035 C 
ATOM     19  C   UNL     1      -0.000  -0.000   0.000  0.00  0.00    +0.115 C 
ATOM     20  C   UNL     1      -0.000  -0.000   0.000  0.00  0.00    +0.032 C 
ATOM     21  C   UNL     1      -0.000  -0.000   0.000  0.00  0.00    +0.004 C 
ATOM     22  C   UNL     1      -0.000  -0.000   0.000  0.00  0.00    +0.010 C 
ATOM     23  C   UNL     1      -0.000  -0.000   0.000  0.00  0.00    +0.004 C 
ATOM     24  C   UNL     1      -0.000  -0.000   0.000  0.00  0.00    +0.005 C 
ATOM     25  C   UNL     1      -0.000  -0.000   0.000  0.00  0.00    +0.121 C 
ATOM     26  C   UNL     1      -0.000  -0.000   0.000  0.00  0.00    +0.005 C 
BRANCH  19  27
ATOM     27  O   UNL     1      -0.000  -0.000   0.000  0.00  0.00    -0.392 OA
ATOM     28  H   UNL     1      -0.000  -0.000   0.000  0.00  0.00    +0.210 HD
ENDBRANCH  19  27
BRANCH  25  29
ATOM     29  O   UNL     1      -0.000  -0.000   0.000  0.00  0.00    -0.391 OA
ATOM     30  H   UNL     1      -0.000  -0.000   0.000  0.00  0.00    +0.210 HD
ENDBRANCH  25  29
ENDBRANCH   7   8
ENDBRANCH   5   7
ENDBRANCH   4   5
ENDBRANCH   1   4
BRANCH   2  31
ATOM     31  C   UNL     1      -0.000  -0.000   0.000  0.00  0.00    +0.109 C 
BRANCH  31  32
ATOM     32  C   UNL     1      -0.000  -0.000   0.000  0.00  0.00    +0.038 C 
BRANCH  32  33
ATOM     33  C   UNL     1      -0.000  -0.000   0.000  0.00  0.00    +0.106 C 
BRANCH  33  34
ATOM     34  N   UNL     1      -0.000  -0.000   0.000  0.00  0.00    -0.313 N 
ATOM     35  H   UNL     1      -0.000  -0.000   0.000  0.00  0.00    +0.149 HD
ATOM     36  C   UNL     1      -0.000  -0.000   0.000  0.00  0.00    +0.244 C 
ATOM     37  O   UNL     1      -0.000  -0.000   0.000  0.00  0.00    -0.273 OA
BRANCH  36  38
ATOM     38  C   UNL     1      -0.000  -0.000   0.000  0.00  0.00    +0.231 C 
BRANCH  38  39
ATOM     39  O   UNL     1      -0.000  -0.000   0.000  0.00  0.00    -0.380 OA
ATOM     40  H   UNL     1      -0.000  -0.000   0.000  0.00  0.00    +0.211 HD
ENDBRANCH  38  39
BRANCH  38  41
ATOM     41  C   UNL     1      -0.000  -0.000   0.000  0.00  0.00    +0.183 C 
BRANCH  41  42
ATOM     42  O   UNL     1      -0.000  -0.000   0.000  0.00  0.00    -0.386 OA
ATOM     43  H   UNL     1      -0.000  -0.000   0.000  0.00  0.00    +0.210 HD
ENDBRANCH  41  42
BRANCH  41  44
ATOM     44  C   UNL     1      -0.000  -0.000   0.000  0.00  0.00    +0.177 C 
BRANCH  44  45
ATOM     45  O   UNL     1      -0.000  -0.000   0.000  0.00  0.00    -0.386 OA
ATOM     46  H   UNL     1      -0.000  -0.000   0.000  0.00  0.00    +0.210 HD
ENDBRANCH  44  45
BRANCH  44  47
ATOM     47  C   UNL     1      -0.000  -0.000   0.000  0.00  0.00    +0.171 C 
BRANCH  47  48
ATOM     48  O   UNL     1      -0.000  -0.000   0.000  0.00  0.00    -0.387 OA
ATOM     49  H   UNL     1      -0.000  -0.000   0.000  0.00  0.00    +0.210 HD
ENDBRANCH  47  48
BRANCH  47  50
ATOM     50  C   UNL     1      -0.000  -0.000   0.000  0.00  0.00    +0.189 C 
BRANCH  50  51
ATOM     51  O   UNL     1      -0.000  -0.000   0.000  0.00  0.00    -0.392 OA
ATOM     52  H   UNL     1      -0.000  -0.000   0.000  0.00  0.00    +0.210 HD
ENDBRANCH  50  51
ENDBRANCH  47  50
ENDBRANCH  44  47
ENDBRANCH  41  44
ENDBRANCH  38  41
ENDBRANCH  36  38
ENDBRANCH  33  34
ENDBRANCH  32  33
ENDBRANCH  31  32
ENDBRANCH   2  31
BRANCH   2  53
ATOM     53  C   UNL     1      -0.000  -0.000   0.000  0.00  0.00    +0.109 C 
BRANCH  53  54
ATOM     54  C   UNL     1      -0.000  -0.000   0.000  0.00  0.00    +0.038 C 
BRANCH  54  55
ATOM     55  C   UNL     1      -0.000  -0.000   0.000  0.00  0.00    +0.106 C 
BRANCH  55  56
ATOM     56  N   UNL     1      -0.000  -0.000   0.000  0.00  0.00    -0.313 N 
ATOM     57  H   UNL     1      -0.000  -0.000   0.000  0.00  0.00    +0.149 HD
ATOM     58  C   UNL     1      -0.000  -0.000   0.000  0.00  0.00    +0.244 C 
ATOM     59  O   UNL     1      -0.000  -0.000   0.000  0.00  0.00    -0.273 OA
BRANCH  58  60
ATOM     60  C   UNL     1      -0.000  -0.000   0.000  0.00  0.00    +0.231 C 
BRANCH  60  61
ATOM     61  O   UNL     1      -0.000  -0.000   0.000  0.00  0.00    -0.380 OA
ATOM     62  H   UNL     1      -0.000  -0.000   0.000  0.00  0.00    +0.211 HD
ENDBRANCH  60  61
BRANCH  60  63
ATOM     63  C   UNL     1      -0.000  -0.000   0.000  0.00  0.00    +0.183 C 
BRANCH  63  64
ATOM     64  O   UNL     1      -0.000  -0.000   0.000  0.00  0.00    -0.386 OA
ATOM     65  H   UNL     1      -0.000  -0.000   0.000  0.00  0.00    +0.210 HD
ENDBRANCH  63  64
BRANCH  63  66
ATOM     66  C   UNL     1      -0.000  -0.000   0.000  0.00  0.00    +0.177 C 
BRANCH  66  67
ATOM     67  O   UNL     1      -0.000  -0.000   0.000  0.00  0.00    -0.386 OA
ATOM     68  H   UNL     1      -0.000  -0.000   0.000  0.00  0.00    +0.210 HD
ENDBRANCH  66  67
BRANCH  66  69
ATOM     69  C   UNL     1      -0.000  -0.000   0.000  0.00  0.00    +0.171 C 
BRANCH  69  70
ATOM     70  O   UNL     1      -0.000  -0.000   0.000  0.00  0.00    -0.387 OA
ATOM     71  H   UNL     1      -0.000  -0.000   0.000  0.00  0.00    +0.210 HD
ENDBRANCH  69  70
BRANCH  69  72
ATOM     72  C   UNL     1      -0.000  -0.000   0.000  0.00  0.00    +0.189 C 
BRANCH  72  73
ATOM     73  O   UNL     1      -0.000  -0.000   0.000  0.00  0.00    -0.392 OA
ATOM     74  H   UNL     1      -0.000  -0.000   0.000  0.00  0.00    +0.210 HD
ENDBRANCH  72  73
ENDBRANCH  69  72
ENDBRANCH  66  69
ENDBRANCH  63  66
ENDBRANCH  60  63
ENDBRANCH  58  60
ENDBRANCH  55  56
ENDBRANCH  54  55
ENDBRANCH  53  54
ENDBRANCH   2  53
TORSDOF 34
