REMARK  Name = 
REMARK  16 active torsions:
REMARK  status: ('A' for Active; 'I' for Inactive)
REMARK    1  A    between atoms: N_1  and  C_2
REMARK    2  A    between atoms: C_2  and  O_4
REMARK    3  A    between atoms: C_2  and  O_5
REMARK    4  A    between atoms: O_5  and  C_6
REMARK    5  A    between atoms: C_15  and  C_16
REMARK    6  A    between atoms: C_20  and  C_21
REMARK    7  A    between atoms: C_20  and  C_44
REMARK    8  A    between atoms: C_21  and  C_22
REMARK    9  A    between atoms: C_22  and  O_24
REMARK   10  A    between atoms: C_22  and  C_25
REMARK   11  A    between atoms: C_25  and  C_27
REMARK   12  A    between atoms: C_25  and  N_34
REMARK   13  A    between atoms: C_27  and  C_28
REMARK   14  A    between atoms: C_35  and  O_37
REMARK   15  A    between atoms: O_37  and  C_38
REMARK   16  A    between atoms: C_44  and  C_45
REMARK                            x       y       z     vdW  Elec       q    Type
REMARK                         _______ _______ _______ _____ _____    ______ ____
ROOT
ATOM      1  C   UNL     1       4.351  -3.451  -0.042  0.00  0.00    +0.081 C 
ATOM      2  C   UNL     1       2.966  -2.817  -0.047  0.00  0.00    +0.159 C 
ATOM      3  O   UNL     1       2.764  -1.622  -0.238  0.00  0.00    -0.295 OA
ATOM      4  C   UNL     1       1.859  -3.868   0.179  0.00  0.00    +0.085 C 
ATOM      5  N   UNL     1       2.662  -5.120   0.032  0.00  0.00    -0.303 NA
ATOM      6  H   UNL     1       2.271  -5.875   0.590  0.00  0.00    +0.123 HD
ATOM      7  C   UNL     1       4.017  -4.821   0.517  0.00  0.00    +0.093 C 
ENDROOT
BRANCH   1   9
ATOM      8  C   UNL     1       6.335  -3.100   1.817  0.00  0.00    +0.135 C 
ATOM      9  C   UNL     1       5.381  -2.554   0.684  0.00  0.00    +0.060 C 
ATOM     10  C   UNL     1       6.360  -1.973  -0.315  0.00  0.00    -0.038 A 
ATOM     11  C   UNL     1       7.678  -2.101   0.105  0.00  0.00    -0.041 A 
ATOM     12  C   UNL     1       8.735  -1.719  -0.706  0.00  0.00    +0.004 A 
ATOM     13  C   UNL     1       8.454  -1.176  -1.954  0.00  0.00    +0.000 A 
ATOM     14  C   UNL     1       7.127  -0.983  -2.361  0.00  0.00    +0.000 A 
ATOM     15  C   UNL     1       6.072  -1.368  -1.533  0.00  0.00    +0.004 A 
ATOM     16  C   UNL     1       7.779  -2.644   1.485  0.00  0.00    +0.067 C 
BRANCH   8  17
ATOM     17  O   UNL     1       6.267  -4.510   2.049  0.00  0.00    -0.335 OA
BRANCH  17  18
ATOM     18  C   UNL     1       7.049  -4.968   3.144  0.00  0.00    +0.323 C 
BRANCH  18  19
ATOM     19  N   UNL     1       6.621  -4.388   4.380  0.00  0.00    -0.283 NA
ATOM     20  H   UNL     1       5.625  -4.534   4.488  0.00  0.00    +0.123 HD
ATOM     21  H   UNL     1       7.104  -4.855   5.142  0.00  0.00    +0.123 HD
ENDBRANCH  18  19
BRANCH  18  22
ATOM     22  O   UNL     1       6.910  -6.358   3.259  0.00  0.00    -0.355 OA
ATOM     23  H   UNL     1       6.236  -6.498   3.936  0.00  0.00    +0.214 HD
ENDBRANCH  18  22
ENDBRANCH  17  18
ENDBRANCH   8  17
ENDBRANCH   1   9
BRANCH   4  24
ATOM     24  C   UNL     1       1.320  -3.786   1.637  0.00  0.00    +0.063 C 
BRANCH  24  25
ATOM     25  C   UNL     1       0.521  -2.541   2.062  0.00  0.00    +0.137 C 
BRANCH  25  26
ATOM     26  O   UNL     1      -0.560  -2.322   1.156  0.00  0.00    -0.390 OA
ATOM     27  H   UNL     1      -1.206  -3.047   1.259  0.00  0.00    +0.210 HD
ENDBRANCH  25  26
BRANCH  25  28
ATOM     28  C   UNL     1      -0.061  -2.648   3.515  0.00  0.00    +0.109 C 
BRANCH  28  29
ATOM     29  N   UNL     1      -0.852  -1.446   3.796  0.00  0.00    -0.275 N 
ATOM     30  H   UNL     1      -0.396  -0.543   3.820  0.00  0.00    +0.152 HD
ATOM     31  C   UNL     1      -2.191  -1.380   3.570  0.00  0.00    +0.401 C 
ATOM     32  O   UNL     1      -2.924  -2.337   3.360  0.00  0.00    -0.226 OA
BRANCH  31  33
ATOM     33  O   UNL     1      -2.583  -0.081   3.586  0.00  0.00    -0.445 OA
BRANCH  33  34
ATOM     34  C   UNL     1      -3.989   0.155   3.371  0.00  0.00    +0.206 C 
ATOM     35  C   UNL     1      -4.288   1.621   3.671  0.00  0.00    +0.204 C 
ATOM     36  O   UNL     1      -4.218   2.351   2.432  0.00  0.00    -0.376 OA
ATOM     37  C   UNL     1      -3.961   1.417   1.378  0.00  0.00    +0.163 C 
ATOM     38  C   UNL     1      -4.352   0.053   1.905  0.00  0.00    +0.075 C 
ENDBRANCH  33  34
ENDBRANCH  31  33
ENDBRANCH  28  29
BRANCH  28  39
ATOM     39  C   UNL     1       1.015  -2.876   4.602  0.00  0.00    +0.060 C 
BRANCH  39  40
ATOM     40  C   UNL     1       0.448  -2.983   6.005  0.00  0.00    -0.046 A 
ATOM     41  C   UNL     1       0.766  -2.023   6.976  0.00  0.00    +0.004 A 
ATOM     42  C   UNL     1       0.176  -2.070   8.242  0.00  0.00    +0.000 A 
ATOM     43  C   UNL     1      -0.728  -3.083   8.555  0.00  0.00    +0.000 A 
ATOM     44  C   UNL     1      -1.019  -4.067   7.614  0.00  0.00    +0.000 A 
ATOM     45  C   UNL     1      -0.428  -4.024   6.349  0.00  0.00    +0.004 A 
ENDBRANCH  39  40
ENDBRANCH  28  39
ENDBRANCH  25  28
ENDBRANCH  24  25
ENDBRANCH   4  24
BRANCH   4  46
ATOM     46  C   UNL     1       0.797  -3.739  -0.955  0.00  0.00    +0.065 C 
BRANCH  46  47
ATOM     47  C   UNL     1      -0.397  -4.685  -0.997  0.00  0.00    -0.045 A 
ATOM     48  C   UNL     1      -0.296  -6.051  -0.709  0.00  0.00    +0.004 A 
ATOM     49  C   UNL     1      -1.383  -6.913  -0.861  0.00  0.00    +0.000 A 
ATOM     50  C   UNL     1      -2.596  -6.426  -1.340  0.00  0.00    +0.000 A 
ATOM     51  C   UNL     1      -2.723  -5.073  -1.628  0.00  0.00    +0.000 A 
ATOM     52  C   UNL     1      -1.637  -4.207  -1.464  0.00  0.00    +0.004 A 
ENDBRANCH  46  47
ENDBRANCH   4  46
TORSDOF 16
