REMARK  Name = 
REMARK  5 active torsions:
REMARK  status: ('A' for Active; 'I' for Inactive)
REMARK    1  A    between atoms: N_8  and  C_9
REMARK    2  A    between atoms: N_12  and  C_13
REMARK    3  A    between atoms: C_13  and  C_14
REMARK    4  A    between atoms: C_14  and  C_15
REMARK    5  A    between atoms: C_15  and  N_16
REMARK                            x       y       z     vdW  Elec       q    Type
REMARK                         _______ _______ _______ _____ _____    ______ ____
ROOT
ATOM      1  C   UNL     1       8.007   0.256   0.065  0.00  0.00    +0.095 C 
ATOM      2  C   UNL     1       8.114   1.651  -0.585  0.00  0.00    +0.040 C 
ATOM      3  C   UNL     1       7.998   1.660  -2.122  0.00  0.00    +0.086 C 
ATOM      4  N   UNL     1       8.727   0.598  -2.831  0.00  0.00    -0.302 NA
ATOM      5  C   UNL     1       8.472  -0.698  -2.196  0.00  0.00    +0.086 C 
ATOM      6  C   UNL     1       8.916  -0.695  -0.739  0.00  0.00    +0.040 C 
ENDROOT
BRANCH   1  12
ATOM      7 CL   UNL     1       0.998   0.053  -1.073  0.00  0.00    -0.083 Cl
ATOM      8  C   UNL     1       2.682   0.001  -0.721  0.00  0.00    +0.043 A 
ATOM      9  C   UNL     1       3.468   1.154  -0.904  0.00  0.00    +0.022 A 
ATOM     10  C   UNL     1       4.846   1.149  -0.620  0.00  0.00    +0.029 A 
ATOM     11  C   UNL     1       5.403  -0.016  -0.137  0.00  0.00    +0.070 A 
ATOM     12  N   UNL     1       6.707  -0.374   0.274  0.00  0.00    -0.289 N 
ATOM     13  C   UNL     1       6.632  -1.683   0.843  0.00  0.00    +0.328 A 
ATOM     14  N   UNL     1       5.333  -2.142   0.644  0.00  0.00    -0.306 N 
ATOM     15  H   UNL     1       5.026  -3.060   0.921  0.00  0.00    +0.170 HD
ATOM     16  O   UNL     1       7.518  -2.330   1.377  0.00  0.00    -0.247 OA
ATOM     17  C   UNL     1       4.581  -1.134   0.070  0.00  0.00    +0.068 A 
ATOM     18  C   UNL     1       3.238  -1.175  -0.233  0.00  0.00    +0.047 A 
ENDBRANCH   1  12
BRANCH   4  19
ATOM     19  C   UNL     1      10.161   0.888  -3.015  0.00  0.00    +0.086 C 
BRANCH  19  20
ATOM     20  C   UNL     1      10.885  -0.164  -3.874  0.00  0.00    +0.037 C 
BRANCH  20  21
ATOM     21  C   UNL     1      10.269  -0.244  -5.268  0.00  0.00    +0.128 C 
BRANCH  21  22
ATOM     22  N   UNL     1      10.899  -1.235  -6.101  0.00  0.00    -0.292 N 
ATOM     23  C   UNL     1      10.389  -2.508  -6.397  0.00  0.00    +0.070 A 
ATOM     24  C   UNL     1      11.225  -3.075  -7.360  0.00  0.00    +0.067 A 
ATOM     25  C   UNL     1      10.983  -4.310  -7.917  0.00  0.00    +0.028 A 
ATOM     26  C   UNL     1       9.853  -4.996  -7.456  0.00  0.00    +0.002 A 
ATOM     27  C   UNL     1       9.015  -4.441  -6.469  0.00  0.00    +0.002 A 
ATOM     28  N   UNL     1      12.250  -2.177  -7.636  0.00  0.00    -0.306 N 
ATOM     29  H   UNL     1      13.000  -2.288  -8.299  0.00  0.00    +0.170 HD
ATOM     30  C   UNL     1       9.278  -3.173  -5.924  0.00  0.00    +0.028 A 
ATOM     31  C   UNL     1      12.059  -1.020  -6.867  0.00  0.00    +0.328 A 
ATOM     32  O   UNL     1      12.766  -0.025  -6.895  0.00  0.00    -0.247 OA
ENDBRANCH  21  22
ENDBRANCH  20  21
ENDBRANCH  19  20
ENDBRANCH   4  19
TORSDOF 5
