REMARK  Name = 
REMARK  11 active torsions:
REMARK  status: ('A' for Active; 'I' for Inactive)
REMARK    1  A    between atoms: O_1  and  C_2
REMARK    2  A    between atoms: C_2  and  C_3
REMARK    3  A    between atoms: C_2  and  C_19
REMARK    4  A    between atoms: C_3  and  O_4
REMARK    5  A    between atoms: O_4  and  C_5
REMARK    6  A    between atoms: C_14  and  C_16
REMARK    7  A    between atoms: C_16  and  O_17
REMARK    8  A    between atoms: C_19  and  O_20
REMARK    9  A    between atoms: O_20  and  C_21
REMARK   10  A    between atoms: C_30  and  C_32
REMARK   11  A    between atoms: C_32  and  O_33
REMARK                            x       y       z     vdW  Elec       q    Type
REMARK                         _______ _______ _______ _____ _____    ______ ____
ROOT
ATOM      1  C   UNL     1       2.419  -0.100  -0.067  0.00  0.00    +0.189 C 
ENDROOT
BRANCH   1   2
ATOM      2  O   UNL     1       0.979  -0.130  -0.036  0.00  0.00    -0.385 OA
ATOM      3  H   UNL     1       0.699  -0.965   0.372  0.00  0.00    +0.210 HD
ENDBRANCH   1   2
BRANCH   1   4
ATOM      4  C   UNL     1       2.866   1.097  -0.917  0.00  0.00    +0.263 C 
BRANCH   4   5
ATOM      5  O   UNL     1       2.545   2.298  -0.212  0.00  0.00    -0.488 OA
BRANCH   5   6
ATOM      6  C   UNL     1       2.789   3.493  -0.827  0.00  0.00    +0.135 A 
ATOM      7  C   UNL     1       2.836   4.640  -0.015  0.00  0.00    +0.105 A 
ATOM      8  C   UNL     1       2.748   4.577   1.467  0.00  0.00    +0.197 A 
ATOM      9  C   UNL     1       2.839   5.857   2.186  0.00  0.00    +0.105 A 
ATOM     10  C   UNL     1       2.991   6.992   1.496  0.00  0.00    +0.215 A 
ATOM     11  O   UNL     1       3.066   7.070   0.118  0.00  0.00    -0.448 OA
ATOM     12  O   UNL     1       2.647   3.548   2.120  0.00  0.00    -0.287 OA
ATOM     13  C   UNL     1       3.013   5.899  -0.600  0.00  0.00    +0.143 A 
ATOM     14  C   UNL     1       3.159   6.028  -1.982  0.00  0.00    +0.047 A 
ATOM     15  C   UNL     1       3.135   4.894  -2.786  0.00  0.00    +0.007 A 
ATOM     16  C   UNL     1       2.947   3.634  -2.213  0.00  0.00    +0.046 A 
BRANCH  10  17
ATOM     17  C   UNL     1       3.104   8.257   2.269  0.00  0.00    +0.373 C 
ATOM     18  O   UNL     1       3.099   8.336   3.484  0.00  0.00    -0.242 OA
BRANCH  17  19
ATOM     19  O   UNL     1       3.227   9.331   1.456  0.00  0.00    -0.475 OA
ATOM     20  H   UNL     1       3.210   9.087   0.510  0.00  0.00    +0.296 HD
ENDBRANCH  17  19
ENDBRANCH  10  17
ENDBRANCH   5   6
ENDBRANCH   4   5
ENDBRANCH   1   4
BRANCH   1  21
ATOM     21  C   UNL     1       2.949  -1.421  -0.645  0.00  0.00    +0.263 C 
BRANCH  21  22
ATOM     22  O   UNL     1       2.532  -1.516  -2.006  0.00  0.00    -0.488 OA
BRANCH  22  23
ATOM     23  C   UNL     1       2.806  -2.642  -2.721  0.00  0.00    +0.135 A 
ATOM     24  C   UNL     1       2.775  -2.541  -4.124  0.00  0.00    +0.105 A 
ATOM     25  C   UNL     1       2.645  -1.241  -4.831  0.00  0.00    +0.197 A 
ATOM     26  C   UNL     1       2.636  -1.289  -6.302  0.00  0.00    +0.105 A 
ATOM     27  C   UNL     1       2.754  -2.468  -6.922  0.00  0.00    +0.215 A 
ATOM     28  O   UNL     1       2.882  -3.685  -6.280  0.00  0.00    -0.448 OA
ATOM     29  O   UNL     1       2.599  -0.150  -4.279  0.00  0.00    -0.287 OA
ATOM     30  C   UNL     1       2.922  -3.691  -4.907  0.00  0.00    +0.143 A 
ATOM     31  C   UNL     1       3.127  -4.934  -4.308  0.00  0.00    +0.047 A 
ATOM     32  C   UNL     1       3.200  -5.030  -2.922  0.00  0.00    +0.007 A 
ATOM     33  C   UNL     1       3.035  -3.891  -2.131  0.00  0.00    +0.046 A 
BRANCH  27  34
ATOM     34  C   UNL     1       2.768  -2.466  -8.410  0.00  0.00    +0.373 C 
ATOM     35  O   UNL     1       2.715  -1.466  -9.104  0.00  0.00    -0.242 OA
BRANCH  34  36
ATOM     36  O   UNL     1       2.853  -3.716  -8.915  0.00  0.00    -0.475 OA
ATOM     37  H   UNL     1       2.881  -4.403  -8.220  0.00  0.00    +0.296 HD
ENDBRANCH  34  36
ENDBRANCH  27  34
ENDBRANCH  22  23
ENDBRANCH  21  22
ENDBRANCH   1  21
TORSDOF 11
