REMARK  Name = 
REMARK  3 active torsions:
REMARK  status: ('A' for Active; 'I' for Inactive)
REMARK    1  A    between atoms: O_1  and  C_2
REMARK    2  A    between atoms: C_2  and  C_4
REMARK    3  A    between atoms: C_5  and  C_6
REMARK                            x       y       z     vdW  Elec       q    Type
REMARK                         _______ _______ _______ _____ _____    ______ ____
ROOT
ATOM      1  C   UNL     1       3.067   1.092   0.607  0.00  0.00    +0.093 C 
ATOM      2  C   UNL     1       4.402   1.167   0.725  0.00  0.00    +0.036 C 
ENDROOT
BRANCH   2   3
ATOM      3  C   UNL     1       5.080   2.307   1.229  0.00  0.00    +0.082 A 
ATOM      4  N   UNL     1       4.403   3.431   1.626  0.00  0.00    -0.237 NA
ATOM      5  C   UNL     1       5.337   4.268   2.017  0.00  0.00    +0.197 A 
ATOM      6  N   UNL     1       6.585   3.726   1.888  0.00  0.00    -0.350 N 
ATOM      7  H   UNL     1       7.456   4.182   2.122  0.00  0.00    +0.166 HD
ATOM      8  C   UNL     1       6.436   2.462   1.382  0.00  0.00    +0.111 A 
ENDBRANCH   2   3
BRANCH   1   9
ATOM      9  C   UNL     1       2.446  -0.125   0.063  0.00  0.00    +0.330 C 
ATOM     10  O   UNL     1       3.059  -1.109  -0.312  0.00  0.00    -0.246 OA
BRANCH   9  11
ATOM     11  O   UNL     1       1.102  -0.031   0.023  0.00  0.00    -0.478 OA
ATOM     12  H   UNL     1       0.737   0.811   0.353  0.00  0.00    +0.295 HD
ENDBRANCH   9  11
ENDBRANCH   1   9
TORSDOF 3
