REMARK  Name = 
REMARK  6 active torsions:
REMARK  status: ('A' for Active; 'I' for Inactive)
REMARK    1  A    between atoms: C_15  and  C_20
REMARK    2  A    between atoms: N_18  and  C_19
REMARK    3  A    between atoms: N_22  and  CA_23
REMARK    4  A    between atoms: CA_23  and  CB_25
REMARK    5  A    between atoms: CA_23  and  C_26
REMARK    6  A    between atoms: C_26  and  O_27
REMARK                            x       y       z     vdW  Elec       q    Type
REMARK                         _______ _______ _______ _____ _____    ______ ____
ROOT
ATOM      1  C   UNK A   0       2.548  -1.062   0.071  0.00  0.00    +0.091 C 
ATOM      2  N   UNK A   0       3.072  -1.130   1.457  0.00  0.00    -0.297 NA
ATOM      3  C   UNK A   0       4.268  -0.310   1.677  0.00  0.00    +0.105 C 
ATOM      4  C   UNK A   0       1.959  -0.797   2.387  0.00  0.00    +0.101 C 
ATOM      5  C   UNK A   0       0.805   0.103   1.821  0.00  0.00    +0.112 C 
ATOM      6  C   UNK A   0       1.265   0.965   0.656  0.00  0.00    -0.007 C 
ATOM      7  C   UNK A   0       2.055   0.380  -0.272  0.00  0.00    -0.025 C 
ATOM      8  C   UNK A   0       2.091   0.834  -1.679  0.00  0.00    -0.011 A 
ATOM      9  C   UNK A   0       2.235  -0.240  -2.569  0.00  0.00    +0.010 A 
ATOM     10  C   UNK A   0       1.860  -0.145  -3.896  0.00  0.00    +0.047 A 
ATOM     11  C   UNK A   0       1.510   1.078  -4.466  0.00  0.00    +0.026 A 
ATOM     12  C   UNK A   0       1.546   2.201  -3.618  0.00  0.00    +0.003 A 
ATOM     13  N   UNK A   0       1.868  -1.441  -4.372  0.00  0.00    -0.360 N 
ATOM     14  H   UNK A   0       1.517  -1.720  -5.278  0.00  0.00    +0.165 HD
ATOM     15  C   UNK A   0       2.359  -2.306  -3.418  0.00  0.00    +0.087 A 
ATOM     16  C   UNK A   0       2.705  -1.551  -2.327  0.00  0.00    -0.020 A 
ATOM     17  C   UNK A   0       1.796   2.082  -2.238  0.00  0.00    +0.009 A 
ATOM     18  C   UNK A   0       3.339  -1.845  -1.008  0.00  0.00    +0.061 C 
ENDROOT
BRANCH   5  19
ATOM     19  C   UNK A   0      -0.395  -0.775   1.308  0.00  0.00    +0.221 C 
ATOM     20  N   ALA A   1      -1.395  -0.082   0.651  0.00  0.00    -0.310 N 
ATOM     21  H   ALA A   1      -1.230   0.898   0.471  0.00  0.00    +0.149 HD
ATOM     22  O   UNK A   0      -0.462  -1.991   1.476  0.00  0.00    -0.275 OA
BRANCH  20  23
ATOM     23  CA  ALA A   1      -2.419  -0.702  -0.211  0.00  0.00    +0.095 C 
ATOM     24  CB  ALA A   1      -1.840  -1.160  -1.547  0.00  0.00    +0.030 C 
BRANCH  23  25
ATOM     25  C   ALA A   1      -3.229  -1.825   0.458  0.00  0.00    +0.177 C 
BRANCH  25  26
ATOM     26  O   ALA A   1      -3.791  -1.361   1.683  0.00  0.00    -0.393 OA
ATOM     27  H   ALA A   1      -3.020  -1.158   2.246  0.00  0.00    +0.209 HD
ENDBRANCH  25  26
ENDBRANCH  23  25
ENDBRANCH  20  23
ENDBRANCH   5  19
TORSDOF 4
