REMARK  Name = 
REMARK  6 active torsions:
REMARK  status: ('A' for Active; 'I' for Inactive)
REMARK    1  A    between atoms: N_1  and  C_2
REMARK    2  A    between atoms: C_4  and  O_5
REMARK    3  A    between atoms: C_7  and  C_9
REMARK    4  A    between atoms: C_9  and  O_10
REMARK    5  A    between atoms: C_11  and  O_13
REMARK    6  A    between atoms: C_14  and  O_16
REMARK                            x       y       z     vdW  Elec       q    Type
REMARK                         _______ _______ _______ _____ _____    ______ ____
ROOT
ATOM      1  C   UNL     1       2.372  -0.028   0.133  0.00  0.00    +0.139 C 
ATOM      2  C   UNL     1       2.816   1.042  -0.890  0.00  0.00    +0.167 C 
ATOM      3  C   UNL     1       2.593   0.617  -2.352  0.00  0.00    +0.176 C 
ATOM      4  C   UNL     1       3.090  -0.815  -2.622  0.00  0.00    +0.178 C 
ATOM      5  O   UNL     1       2.570  -1.733  -1.637  0.00  0.00    -0.342 OA
ATOM      6  C   UNL     1       2.928  -1.412  -0.296  0.00  0.00    +0.267 C 
ENDROOT
BRANCH   1   7
ATOM      7  N   UNL     1       0.900  -0.044   0.332  0.00  0.00    -0.321 NA
ATOM      8  H   UNL     1       0.449  -0.596  -0.394  0.00  0.00    +0.119 HD
ATOM      9  H   UNL     1       0.694  -0.505   1.220  0.00  0.00    +0.119 HD
ENDBRANCH   1   7
BRANCH   2  10
ATOM     10  O   UNL     1       4.210   1.316  -0.685  0.00  0.00    -0.387 OA
ATOM     11  H   UNL     1       4.414   2.145  -1.156  0.00  0.00    +0.210 HD
ENDBRANCH   2  10
BRANCH   3  12
ATOM     12  O   UNL     1       1.205   0.714  -2.691  0.00  0.00    -0.387 OA
ATOM     13  H   UNL     1       0.765  -0.096  -2.379  0.00  0.00    +0.210 HD
ENDBRANCH   3  12
BRANCH   6  14
ATOM     14  O   UNL     1       2.406  -2.439   0.538  0.00  0.00    -0.366 OA
ATOM     15  H   UNL     1       1.442  -2.376   0.449  0.00  0.00    +0.213 HD
ENDBRANCH   6  14
BRANCH   4  16
ATOM     16  C   UNL     1       4.618  -0.912  -2.766  0.00  0.00    +0.190 C 
BRANCH  16  17
ATOM     17  O   UNL     1       4.990  -2.230  -3.165  0.00  0.00    -0.392 OA
ATOM     18  H   UNL     1       4.578  -2.843  -2.527  0.00  0.00    +0.210 HD
ENDBRANCH  16  17
ENDBRANCH   4  16
TORSDOF 6
