REMARK  Name = 
REMARK  43 active torsions:
REMARK  status: ('A' for Active; 'I' for Inactive)
REMARK    1  A    between atoms: C_3  and  O_4
REMARK    2  A    between atoms: O_4  and  C_5
REMARK    3  A    between atoms: C_7  and  C_8
REMARK    4  A    between atoms: C_8  and  C_9
REMARK    5  A    between atoms: C_12  and  O_13
REMARK    6  A    between atoms: O_13  and  C_14
REMARK    7  A    between atoms: C_15  and  O_16
REMARK    8  A    between atoms: O_16  and  C_17
REMARK    9  A    between atoms: C_18  and  O_19
REMARK   10  A    between atoms: O_19  and  C_20
REMARK   11  A    between atoms: N_25  and  C_26
REMARK   12  A    between atoms: N_25  and  C_27
REMARK   13  A    between atoms: C_27  and  C_28
REMARK   14  A    between atoms: C_28  and  C_29
REMARK   15  A    between atoms: C_29  and  O_30
REMARK   16  A    between atoms: O_30  and  C_31
REMARK   17  A    between atoms: C_31  and  C_33
REMARK   18  A    between atoms: C_33  and  C_34
REMARK   19  A    between atoms: C_34  and  C_35
REMARK   20  A    between atoms: C_35  and  O_37
REMARK   21  A    between atoms: O_37  and  C_38
REMARK   22  A    between atoms: C_38  and  C_39
REMARK   23  A    between atoms: C_39  and  C_40
REMARK   24  A    between atoms: C_40  and  N_41
REMARK   25  A    between atoms: N_41  and  C_42
REMARK   26  A    between atoms: C_47  and  C_49
REMARK   27  A    between atoms: C_49  and  C_50
REMARK   28  A    between atoms: C_52  and  O_53
REMARK   29  A    between atoms: O_53  and  C_54
REMARK   30  A    between atoms: C_55  and  O_56
REMARK   31  A    between atoms: O_56  and  C_57
REMARK   32  A    between atoms: C_58  and  O_59
REMARK   33  A    between atoms: O_59  and  C_60
REMARK   34  A    between atoms: C_62  and  O_63
REMARK   35  A    between atoms: O_63  and  C_64
REMARK   36  A    between atoms: C_65  and  O_66
REMARK   37  A    between atoms: O_66  and  C_67
REMARK   38  A    between atoms: C_68  and  O_69
REMARK   39  A    between atoms: O_69  and  C_70
REMARK   40  A    between atoms: C_73  and  O_74
REMARK   41  A    between atoms: O_74  and  C_75
REMARK   42  A    between atoms: C_76  and  O_77
REMARK   43  A    between atoms: O_77  and  C_78
REMARK                            x       y       z     vdW  Elec       q    Type
REMARK                         _______ _______ _______ _____ _____    ______ ____
ROOT
ATOM      1 CL   UNL     1      -0.509   2.366   2.152  0.00  0.00    +0.000 Cl
ENDROOT
TORSDOF 0
REMARK  Name = 
REMARK  43 active torsions:
REMARK  status: ('A' for Active; 'I' for Inactive)
REMARK    1  A    between atoms: C_3  and  O_4
REMARK    2  A    between atoms: O_4  and  C_5
REMARK    3  A    between atoms: C_7  and  C_8
REMARK    4  A    between atoms: C_8  and  C_9
REMARK    5  A    between atoms: C_12  and  O_13
REMARK    6  A    between atoms: O_13  and  C_14
REMARK    7  A    between atoms: C_15  and  O_16
REMARK    8  A    between atoms: O_16  and  C_17
REMARK    9  A    between atoms: C_18  and  O_19
REMARK   10  A    between atoms: O_19  and  C_20
REMARK   11  A    between atoms: N_25  and  C_26
REMARK   12  A    between atoms: N_25  and  C_27
REMARK   13  A    between atoms: C_27  and  C_28
REMARK   14  A    between atoms: C_28  and  C_29
REMARK   15  A    between atoms: C_29  and  O_30
REMARK   16  A    between atoms: O_30  and  C_31
REMARK   17  A    between atoms: C_31  and  C_33
REMARK   18  A    between atoms: C_33  and  C_34
REMARK   19  A    between atoms: C_34  and  C_35
REMARK   20  A    between atoms: C_35  and  O_37
REMARK   21  A    between atoms: O_37  and  C_38
REMARK   22  A    between atoms: C_38  and  C_39
REMARK   23  A    between atoms: C_39  and  C_40
REMARK   24  A    between atoms: C_40  and  N_41
REMARK   25  A    between atoms: N_41  and  C_42
REMARK   26  A    between atoms: C_47  and  C_49
REMARK   27  A    between atoms: C_49  and  C_50
REMARK   28  A    between atoms: C_52  and  O_53
REMARK   29  A    between atoms: O_53  and  C_54
REMARK   30  A    between atoms: C_55  and  O_56
REMARK   31  A    between atoms: O_56  and  C_57
REMARK   32  A    between atoms: C_58  and  O_59
REMARK   33  A    between atoms: O_59  and  C_60
REMARK   34  A    between atoms: C_62  and  O_63
REMARK   35  A    between atoms: O_63  and  C_64
REMARK   36  A    between atoms: C_65  and  O_66
REMARK   37  A    between atoms: O_66  and  C_67
REMARK   38  A    between atoms: C_68  and  O_69
REMARK   39  A    between atoms: O_69  and  C_70
REMARK   40  A    between atoms: C_73  and  O_74
REMARK   41  A    between atoms: O_74  and  C_75
REMARK   42  A    between atoms: C_76  and  O_77
REMARK   43  A    between atoms: O_77  and  C_78
REMARK                            x       y       z     vdW  Elec       q    Type
REMARK                         _______ _______ _______ _____ _____    ______ ____
ROOT
ATOM      1 CL   UNL     1       2.430  -2.368  -2.210  0.00  0.00    +0.000 Cl
ENDROOT
TORSDOF 0
REMARK  Name = 
REMARK  43 active torsions:
REMARK  status: ('A' for Active; 'I' for Inactive)
REMARK    1  A    between atoms: C_3  and  O_4
REMARK    2  A    between atoms: O_4  and  C_5
REMARK    3  A    between atoms: C_7  and  C_8
REMARK    4  A    between atoms: C_8  and  C_9
REMARK    5  A    between atoms: C_12  and  O_13
REMARK    6  A    between atoms: O_13  and  C_14
REMARK    7  A    between atoms: C_15  and  O_16
REMARK    8  A    between atoms: O_16  and  C_17
REMARK    9  A    between atoms: C_18  and  O_19
REMARK   10  A    between atoms: O_19  and  C_20
REMARK   11  A    between atoms: N_25  and  C_26
REMARK   12  A    between atoms: N_25  and  C_27
REMARK   13  A    between atoms: C_27  and  C_28
REMARK   14  A    between atoms: C_28  and  C_29
REMARK   15  A    between atoms: C_29  and  O_30
REMARK   16  A    between atoms: O_30  and  C_31
REMARK   17  A    between atoms: C_31  and  C_33
REMARK   18  A    between atoms: C_33  and  C_34
REMARK   19  A    between atoms: C_34  and  C_35
REMARK   20  A    between atoms: C_35  and  O_37
REMARK   21  A    between atoms: O_37  and  C_38
REMARK   22  A    between atoms: C_38  and  C_39
REMARK   23  A    between atoms: C_39  and  C_40
REMARK   24  A    between atoms: C_40  and  N_41
REMARK   25  A    between atoms: N_41  and  C_42
REMARK   26  A    between atoms: C_47  and  C_49
REMARK   27  A    between atoms: C_49  and  C_50
REMARK   28  A    between atoms: C_52  and  O_53
REMARK   29  A    between atoms: O_53  and  C_54
REMARK   30  A    between atoms: C_55  and  O_56
REMARK   31  A    between atoms: O_56  and  C_57
REMARK   32  A    between atoms: C_58  and  O_59
REMARK   33  A    between atoms: O_59  and  C_60
REMARK   34  A    between atoms: C_62  and  O_63
REMARK   35  A    between atoms: O_63  and  C_64
REMARK   36  A    between atoms: C_65  and  O_66
REMARK   37  A    between atoms: O_66  and  C_67
REMARK   38  A    between atoms: C_68  and  O_69
REMARK   39  A    between atoms: O_69  and  C_70
REMARK   40  A    between atoms: C_73  and  O_74
REMARK   41  A    between atoms: O_74  and  C_75
REMARK   42  A    between atoms: C_76  and  O_77
REMARK   43  A    between atoms: O_77  and  C_78
REMARK                            x       y       z     vdW  Elec       q    Type
REMARK                         _______ _______ _______ _____ _____    ______ ____
ROOT
ATOM      1  C   UNL     1       4.069  12.851 -22.994  0.00  0.00    +0.132 C 
ENDROOT
BRANCH   1   2
ATOM      2  C   UNL     1       5.400  13.556 -23.050  0.00  0.00    +0.308 C 
ATOM      3  O   UNL     1       5.549  14.764 -22.915  0.00  0.00    -0.251 OA
BRANCH   2   4
ATOM      4  O   UNL     1       6.421  12.670 -23.199  0.00  0.00    -0.464 OA
BRANCH   4   5
ATOM      5  C   UNL     1       7.734  13.239 -23.279  0.00  0.00    +0.237 C 
BRANCH   5   6
ATOM      6  C   UNL     1       8.491  12.943 -22.002  0.00  0.00    +0.092 C 
BRANCH   6   7
ATOM      7  C   UNL     1       8.752  11.446 -21.821  0.00  0.00    +0.137 C 
BRANCH   7   9
ATOM      8  C   UNL     1       9.643   9.536 -20.363  0.00  0.00    +0.105 C 
ATOM      9  N   UNL     1       9.548  11.139 -20.539  0.00  0.00    +0.247 N 
ATOM     10  C   UNL     1       8.926  11.794 -19.353  0.00  0.00    +0.193 C 
ATOM     11  C   UNL     1      10.987  11.716 -20.624  0.00  0.00    +0.138 C 
ATOM     12  C   UNL     1      11.737  11.484 -19.312  0.00  0.00    +0.087 C 
ATOM     13  C   UNL     1      11.770  10.028 -18.985  0.00  0.00    -0.027 A 
ATOM     14  C   UNL     1      12.701   9.589 -18.032  0.00  0.00    +0.054 A 
ATOM     15  C   UNL     1      12.713   8.261 -17.632  0.00  0.00    +0.165 A 
ATOM     16  C   UNL     1      11.897   7.379 -18.333  0.00  0.00    +0.204 A 
ATOM     17  C   UNL     1      11.269   7.783 -19.515  0.00  0.00    +0.174 A 
ATOM     18  C   UNL     1      10.904   9.114 -19.612  0.00  0.00    +0.049 A 
BRANCH  17  19
ATOM     19  O   UNL     1      10.857   6.904 -20.481  0.00  0.00    -0.491 OA
ATOM     20  C   UNL     1      11.850   5.901 -20.803  0.00  0.00    +0.277 C 
ENDBRANCH  17  19
BRANCH  16  21
ATOM     21  O   UNL     1      11.474   6.195 -17.767  0.00  0.00    -0.488 OA
ATOM     22  C   UNL     1      10.064   6.315 -17.485  0.00  0.00    +0.277 C 
ENDBRANCH  16  21
BRANCH  15  23
ATOM     23  O   UNL     1      13.489   8.019 -16.540  0.00  0.00    -0.491 OA
ATOM     24  C   UNL     1      13.896   6.673 -16.322  0.00  0.00    +0.277 C 
ENDBRANCH  15  23
BRANCH   8  25
ATOM     25  C   UNL     1       8.208   8.809 -19.946  0.00  0.00    +0.095 C 
BRANCH  25  30
ATOM     26  C   UNL     1       6.692  10.302 -16.733  0.00  0.00    +0.165 A 
ATOM     27  C   UNL     1       6.516   9.193 -15.909  0.00  0.00    +0.204 A 
ATOM     28  C   UNL     1       6.620   7.923 -16.491  0.00  0.00    +0.165 A 
ATOM     29  C   UNL     1       7.161   7.788 -17.797  0.00  0.00    +0.053 A 
ATOM     30  C   UNL     1       7.498   8.917 -18.578  0.00  0.00    -0.035 A 
ATOM     31  C   UNL     1       6.952  10.099 -18.090  0.00  0.00    +0.053 A 
BRANCH  26  33
ATOM     32  C   UNL     1       6.895  12.724 -16.859  0.00  0.00    +0.277 C 
ATOM     33  O   UNL     1       6.625  11.532 -16.149  0.00  0.00    -0.491 OA
ENDBRANCH  26  33
BRANCH  28  34
ATOM     34  O   UNL     1       6.261   6.746 -15.880  0.00  0.00    -0.491 OA
ATOM     35  C   UNL     1       5.129   6.836 -14.998  0.00  0.00    +0.277 C 
ENDBRANCH  28  34
BRANCH  27  36
ATOM     36  O   UNL     1       6.289   9.265 -14.559  0.00  0.00    -0.488 OA
ATOM     37  C   UNL     1       5.561  10.390 -14.070  0.00  0.00    +0.277 C 
ENDBRANCH  27  36
ENDBRANCH  25  30
ENDBRANCH   8  25
ENDBRANCH   7   9
ENDBRANCH   6   7
ENDBRANCH   5   6
ENDBRANCH   4   5
ENDBRANCH   2   4
ENDBRANCH   1   2
BRANCH   1  38
ATOM     38  C   UNL     1       3.594  12.727 -21.555  0.00  0.00    +0.132 C 
BRANCH  38  39
ATOM     39  C   UNL     1       3.499  14.058 -20.841  0.00  0.00    +0.308 C 
ATOM     40  O   UNL     1       3.993  14.251 -19.738  0.00  0.00    -0.251 OA
BRANCH  39  41
ATOM     41  O   UNL     1       2.848  14.992 -21.585  0.00  0.00    -0.464 OA
BRANCH  41  42
ATOM     42  C   UNL     1       2.797  16.340 -21.057  0.00  0.00    +0.237 C 
BRANCH  42  43
ATOM     43  C   UNL     1       3.840  17.190 -21.785  0.00  0.00    +0.092 C 
BRANCH  43  44
ATOM     44  C   UNL     1       3.913  18.641 -21.288  0.00  0.00    +0.137 C 
BRANCH  44  45
ATOM     45  N   UNL     1       4.988  19.505 -22.075  0.00  0.00    +0.247 N 
ATOM     46  C   UNL     1       4.524  19.551 -23.532  0.00  0.00    +0.193 C 
ATOM     47  C   UNL     1       6.441  18.913 -21.848  0.00  0.00    +0.105 C 
ATOM     48  C   UNL     1       6.857  18.995 -20.377  0.00  0.00    +0.049 A 
ATOM     49  C   UNL     1       7.802  18.103 -19.800  0.00  0.00    +0.174 A 
ATOM     50  C   UNL     1       8.142  18.200 -18.432  0.00  0.00    +0.204 A 
ATOM     51  C   UNL     1       7.585  19.230 -17.649  0.00  0.00    +0.165 A 
ATOM     52  C   UNL     1       6.703  20.143 -18.233  0.00  0.00    +0.054 A 
ATOM     53  C   UNL     1       6.335  20.044 -19.583  0.00  0.00    -0.027 A 
ATOM     54  C   UNL     1       5.369  21.091 -20.115  0.00  0.00    +0.087 C 
ATOM     55  C   UNL     1       4.999  20.965 -21.590  0.00  0.00    +0.138 C 
BRANCH  49  56
ATOM     56  O   UNL     1       8.599  17.299 -20.575  0.00  0.00    -0.491 OA
ATOM     57  C   UNL     1       7.950  16.313 -21.354  0.00  0.00    +0.277 C 
ENDBRANCH  49  56
BRANCH  50  58
ATOM     58  O   UNL     1       9.081  17.425 -17.788  0.00  0.00    -0.488 OA
ATOM     59  C   UNL     1       9.221  16.075 -18.195  0.00  0.00    +0.277 C 
ENDBRANCH  50  58
BRANCH  51  60
ATOM     60  O   UNL     1       7.958  19.269 -16.324  0.00  0.00    -0.491 OA
ATOM     61  C   UNL     1       7.374  20.269 -15.509  0.00  0.00    +0.277 C 
ENDBRANCH  51  60
BRANCH  47  62
ATOM     62  C   UNL     1       7.596  19.460 -22.742  0.00  0.00    +0.095 C 
BRANCH  62  63
ATOM     63  C   UNL     1       7.422  19.283 -24.230  0.00  0.00    -0.035 A 
ATOM     64  C   UNL     1       7.142  18.047 -24.846  0.00  0.00    +0.053 A 
ATOM     65  C   UNL     1       6.729  17.987 -26.189  0.00  0.00    +0.165 A 
ATOM     66  C   UNL     1       6.622  19.182 -26.928  0.00  0.00    +0.204 A 
ATOM     67  C   UNL     1       6.970  20.409 -26.321  0.00  0.00    +0.165 A 
ATOM     68  C   UNL     1       7.438  20.433 -25.013  0.00  0.00    +0.053 A 
BRANCH  67  69
ATOM     69  O   UNL     1       6.809  21.564 -27.051  0.00  0.00    -0.491 OA
ATOM     70  C   UNL     1       6.549  22.741 -26.287  0.00  0.00    +0.277 C 
ENDBRANCH  67  69
BRANCH  66  71
ATOM     71  O   UNL     1       6.086  19.300 -28.189  0.00  0.00    -0.488 OA
ATOM     72  C   UNL     1       6.180  18.190 -29.072  0.00  0.00    +0.277 C 
ENDBRANCH  66  71
BRANCH  65  73
ATOM     73  O   UNL     1       6.354  16.822 -26.793  0.00  0.00    -0.491 OA
ATOM     74  C   UNL     1       6.293  15.628 -26.047  0.00  0.00    +0.277 C 
ENDBRANCH  65  73
ENDBRANCH  62  63
ENDBRANCH  47  62
ENDBRANCH  44  45
ENDBRANCH  43  44
ENDBRANCH  42  43
ENDBRANCH  41  42
ENDBRANCH  39  41
ENDBRANCH  38  39
ENDBRANCH   1  38
TORSDOF 29
