REMARK  Name = 
REMARK  8 active torsions:
REMARK  status: ('A' for Active; 'I' for Inactive)
REMARK    1  A    between atoms: C_1  and  C_2
REMARK    2  A    between atoms: C_2  and  C_4
REMARK    3  A    between atoms: C_2  and  CA_8
REMARK    4  A    between atoms: C_4  and  C_5
REMARK    5  A    between atoms: C_5  and  O_6
REMARK    6  A    between atoms: CA_8  and  N_10
REMARK    7  A    between atoms: CA_8  and  C_11
REMARK    8  A    between atoms: C_11  and  O_12
REMARK                            x       y       z     vdW  Elec       q    Type
REMARK                         _______ _______ _______ _____ _____    ______ ____
ROOT
ATOM      1  CA  UNL     1       3.116  -0.151   1.353  0.00  0.00    +0.164 C 
ENDROOT
BRANCH   1   2
ATOM      2  N   UNL     1       2.676   0.899   2.319  0.00  0.00    -0.318 NA
ATOM      3  H1  UNL     1       3.232   0.788   3.175  0.00  0.00    +0.119 HD
ATOM      4  H2  UNL     1       2.967   1.811   1.963  0.00  0.00    +0.119 HD
ENDBRANCH   1   2
BRANCH   1   6
ATOM      5  C   UNL     1       0.894  -0.092   0.068  0.00  0.00    +0.010 C 
ATOM      6  C   UNL     1       2.428  -0.023  -0.029  0.00  0.00    +0.024 C 
BRANCH   6   7
ATOM      7  C   UNL     1       2.874   1.275  -0.731  0.00  0.00    +0.125 C 
BRANCH   7   8
ATOM      8  C   UNL     1       2.399   1.392  -2.161  0.00  0.00    +0.305 C 
ATOM      9  O   UNL     1       2.178   0.446  -2.904  0.00  0.00    -0.251 OA
BRANCH   8  10
ATOM     10  O   UNL     1       2.286   2.672  -2.573  0.00  0.00    -0.481 OA
ATOM     11  H   UNL     1       2.513   3.342  -1.901  0.00  0.00    +0.295 HD
ENDBRANCH   8  10
ENDBRANCH   7   8
ENDBRANCH   6   7
ENDBRANCH   1   6
BRANCH   1  12
ATOM     12  C   UNL     1       2.841  -1.528   1.987  0.00  0.00    +0.322 C 
ATOM     13  OXT UNL     1       3.449  -2.553   1.729  0.00  0.00    -0.249 OA
BRANCH  12  14
ATOM     14  O   UNL     1       1.825  -1.462   2.886  0.00  0.00    -0.480 OA
ATOM     15  H   UNL     1       1.524  -0.522   2.913  0.00  0.00    +0.295 HD
ENDBRANCH  12  14
ENDBRANCH   1  12
TORSDOF 7
