REMARK  Name = 
REMARK  21 active torsions:
REMARK  status: ('A' for Active; 'I' for Inactive)
REMARK    1  A    between atoms: C_1  and  C_2
REMARK    2  A    between atoms: C_2  and  C_3
REMARK    3  A    between atoms: C_3  and  C_4
REMARK    4  A    between atoms: C_4  and  C_5
REMARK    5  A    between atoms: C_5  and  C_6
REMARK    6  A    between atoms: C_6  and  C_7
REMARK    7  A    between atoms: C_7  and  C_8
REMARK    8  A    between atoms: C_8  and  C_9
REMARK    9  A    between atoms: C_9  and  C_10
REMARK   10  A    between atoms: C_10  and  C_11
REMARK   11  A    between atoms: C_11  and  C_12
REMARK   12  A    between atoms: C_12  and  C_13
REMARK   13  A    between atoms: C_13  and  C_14
REMARK   14  A    between atoms: C_14  and  O_16
REMARK   15  A    between atoms: O_16  and  C_17
REMARK   16  A    between atoms: C_19  and  C_21
REMARK   17  A    between atoms: C_21  and  C_22
REMARK   18  A    between atoms: N_24  and  O_25
REMARK   19  A    between atoms: C_28  and  C_30
REMARK   20  A    between atoms: C_30  and  O_31
REMARK   21  A    between atoms: C_32  and  O_34
REMARK                            x       y       z     vdW  Elec       q    Type
REMARK                         _______ _______ _______ _____ _____    ______ ____
ROOT
ATOM      1  C   UNL     1      16.668  -4.907  -5.964  0.00  0.00    +0.213 C 
ATOM      2  C   UNL     1      17.283  -5.075  -4.559  0.00  0.00    +0.186 C 
ATOM      3  C   UNL     1      16.816  -3.979  -3.584  0.00  0.00    +0.175 C 
ATOM      4  O   UNL     1      17.001  -2.658  -4.135  0.00  0.00    -0.371 OA
ATOM      5  C   UNL     1      16.406  -2.458  -5.417  0.00  0.00    +0.168 C 
ATOM      6  C   UNL     1      16.926  -3.461  -6.453  0.00  0.00    +0.067 C 
ENDROOT
BRANCH   2   7
ATOM      7  O   UNL     1      18.713  -5.003  -4.707  0.00  0.00    -0.385 OA
ATOM      8  H   UNL     1      19.107  -5.046  -3.818  0.00  0.00    +0.210 HD
ENDBRANCH   2   7
BRANCH   6   9
ATOM      9  C   UNL     1      16.298  -3.153  -7.819  0.00  0.00    +0.107 C 
BRANCH   9  10
ATOM     10  C   UNL     1      16.834  -4.023  -8.932  0.00  0.00    +0.236 C 
ATOM     11  N   UNL     1      18.183  -3.926  -9.148  0.00  0.00    -0.197 N 
ATOM     12  H   UNL     1      18.813  -3.274  -8.694  0.00  0.00    +0.182 HD
ATOM     13  O   UNL     1      16.110  -4.748  -9.612  0.00  0.00    -0.274 OA
BRANCH  11  14
ATOM     14  O   UNL     1      18.704  -4.681 -10.221  0.00  0.00    -0.295 OA
ATOM     15  H   UNL     1      17.904  -5.134 -10.569  0.00  0.00    +0.241 HD
ENDBRANCH  11  14
ENDBRANCH   9  10
ENDBRANCH   6   9
BRANCH   3  16
ATOM     16  C   UNL     1      15.376  -4.143  -3.087  0.00  0.00    +0.190 C 
BRANCH  16  17
ATOM     17  O   UNL     1      15.118  -3.228  -2.022  0.00  0.00    -0.392 OA
ATOM     18  H   UNL     1      15.486  -2.370  -2.308  0.00  0.00    +0.210 HD
ENDBRANCH  16  17
ENDBRANCH   3  16
BRANCH   1  19
ATOM     19  O   UNL     1      15.245  -5.153  -5.979  0.00  0.00    -0.458 OA
BRANCH  19  20
ATOM     20  C   UNL     1      14.828  -6.434  -5.763  0.00  0.00    +0.307 C 
ATOM     21  O   UNL     1      15.568  -7.384  -5.556  0.00  0.00    -0.251 OA
BRANCH  20  22
ATOM     22  C   UNL     1      13.319  -6.523  -5.793  0.00  0.00    +0.120 C 
BRANCH  22  23
ATOM     23  C   UNL     1      12.696  -5.509  -4.842  0.00  0.00    +0.011 C 
BRANCH  23  24
ATOM     24  C   UNL     1      11.174  -5.546  -4.815  0.00  0.00    +0.001 C 
BRANCH  24  25
ATOM     25  C   UNL     1      10.657  -4.474  -3.853  0.00  0.00    +0.000 C 
BRANCH  25  26
ATOM     26  C   UNL     1       9.136  -4.449  -3.813  0.00  0.00    +0.000 C 
BRANCH  26  27
ATOM     27  C   UNL     1       8.638  -3.372  -2.854  0.00  0.00    +0.000 C 
BRANCH  27  28
ATOM     28  C   UNL     1       7.114  -3.350  -2.816  0.00  0.00    -0.000 C 
BRANCH  28  29
ATOM     29  C   UNL     1       6.603  -2.277  -1.860  0.00  0.00    -0.000 C 
BRANCH  29  30
ATOM     30  C   UNL     1       5.078  -2.267  -1.828  0.00  0.00    -0.000 C 
BRANCH  30  31
ATOM     31  C   UNL     1       4.553  -1.197  -0.874  0.00  0.00    -0.000 C 
BRANCH  31  32
ATOM     32  C   UNL     1       3.026  -1.193  -0.850  0.00  0.00    -0.000 C 
BRANCH  32  34
ATOM     33  C   UNL     1       0.973  -0.122   0.125  0.00  0.00    +0.004 C 
ATOM     34  C   UNL     1       2.492  -0.125   0.101  0.00  0.00    -0.003 C 
ENDBRANCH  32  34
ENDBRANCH  31  32
ENDBRANCH  30  31
ENDBRANCH  29  30
ENDBRANCH  28  29
ENDBRANCH  27  28
ENDBRANCH  26  27
ENDBRANCH  25  26
ENDBRANCH  24  25
ENDBRANCH  23  24
ENDBRANCH  22  23
ENDBRANCH  20  22
ENDBRANCH  19  20
ENDBRANCH   1  19
TORSDOF 20
