REMARK  Name = 
REMARK  10 active torsions:
REMARK  status: ('A' for Active; 'I' for Inactive)
REMARK    1  A    between atoms: O_1  and  C_2
REMARK    2  A    between atoms: C_2  and  C_4
REMARK    3  A    between atoms: C_4  and  C_5
REMARK    4  A    between atoms: C_5  and  C_6
REMARK    5  A    between atoms: C_6  and  C_7
REMARK    6  A    between atoms: C_7  and  O_8
REMARK    7  A    between atoms: O_8  and  N_9
REMARK    8  A    between atoms: C_10  and  C_11
REMARK    9  A    between atoms: C_10  and  C_17
REMARK   10  A    between atoms: C_19  and  C_23
REMARK                            x       y       z     vdW  Elec       q    Type
REMARK                         _______ _______ _______ _____ _____    ______ ____
ROOT
ATOM      1  N   UNL     1       8.972  -3.282   0.075  0.00  0.00    -0.084 NA
ATOM      2  C   UNL     1       9.557  -4.436   0.271  0.00  0.00    +0.118 C 
ENDROOT
BRANCH   2   3
ATOM      3  C   UNL     1       8.850  -5.771   0.335  0.00  0.00    +0.005 A 
ATOM      4  C   UNL     1       7.590  -5.882   0.934  0.00  0.00    +0.010 A 
ATOM      5  C   UNL     1       6.878  -7.081   0.924  0.00  0.00    +0.001 A 
ATOM      6  C   UNL     1       7.463  -8.223   0.392  0.00  0.00    +0.012 A 
ATOM      7  C   UNL     1       8.761  -8.170  -0.137  0.00  0.00    +0.055 A 
ATOM      8  C   UNL     1       9.428  -6.930  -0.205  0.00  0.00    +0.022 A 
BRANCH   7   9
ATOM      9  C   UNL     1       9.426  -9.443  -0.597  0.00  0.00    +0.417 C 
ATOM     10  F   UNL     1       8.776 -10.027  -1.640  0.00  0.00    -0.166 F 
ATOM     11  F   UNL     1       9.473 -10.383   0.388  0.00  0.00    -0.166 F 
ATOM     12  F   UNL     1      10.713  -9.269  -1.003  0.00  0.00    -0.166 F 
ENDBRANCH   7   9
ENDBRANCH   2   3
BRANCH   2  13
ATOM     13  C   UNL     1      11.054  -4.390   0.405  0.00  0.00    +0.022 A 
ATOM     14  C   UNL     1      11.776  -3.380  -0.242  0.00  0.00    +0.013 A 
ATOM     15  C   UNL     1      13.167  -3.353  -0.156  0.00  0.00    +0.020 A 
ATOM     16  C   UNL     1      13.797  -4.340   0.581  0.00  0.00    +0.111 A 
ATOM     17  N   UNL     1      13.136  -5.314   1.244  0.00  0.00    -0.263 NA
ATOM     18  C   UNL     1      11.781  -5.306   1.155  0.00  0.00    +0.120 A 
ENDBRANCH   2  13
BRANCH   1  19
ATOM     19  O   UNL     1       7.593  -3.366  -0.141  0.00  0.00    -0.393 OA
BRANCH  19  20
ATOM     20  C   UNL     1       7.032  -2.053  -0.160  0.00  0.00    +0.263 C 
BRANCH  20  21
ATOM     21  C   UNL     1       5.605  -2.106   0.389  0.00  0.00    +0.044 C 
BRANCH  21  22
ATOM     22  C   UNL     1       5.574  -2.440   1.886  0.00  0.00    +0.014 C 
BRANCH  22  23
ATOM     23  C   UNL     1       4.151  -2.528   2.431  0.00  0.00    +0.120 C 
BRANCH  23  24
ATOM     24  C   UNL     1       4.143  -2.946   3.889  0.00  0.00    +0.305 C 
ATOM     25  O   UNL     1       5.129  -3.215   4.550  0.00  0.00    -0.251 OA
BRANCH  24  26
ATOM     26  O   UNL     1       2.892  -3.006   4.399  0.00  0.00    -0.481 OA
ATOM     27  H   UNL     1       2.194  -2.768   3.763  0.00  0.00    +0.295 HD
ENDBRANCH  24  26
ENDBRANCH  23  24
ENDBRANCH  22  23
ENDBRANCH  21  22
ENDBRANCH  20  21
ENDBRANCH  19  20
ENDBRANCH   1  19
TORSDOF 10
