REMARK  Name = 
REMARK  30 active torsions:
REMARK  status: ('A' for Active; 'I' for Inactive)
REMARK    1  A    between atoms: C_1  and  C_2
REMARK    2  A    between atoms: C_2  and  C_4
REMARK    3  A    between atoms: C_4  and  S_6
REMARK    4  A    between atoms: S_6  and  C_7
REMARK    5  A    between atoms: C_7  and  C_8
REMARK    6  A    between atoms: C_8  and  N_9
REMARK    7  A    between atoms: C_10  and  C_12
REMARK    8  A    between atoms: C_12  and  C_13
REMARK    9  A    between atoms: C_13  and  N_14
REMARK   10  A    between atoms: C_15  and  C_17
REMARK   11  A    between atoms: C_17  and  O_19
REMARK   12  A    between atoms: C_17  and  C_20
REMARK   13  A    between atoms: C_20  and  C_21
REMARK   14  A    between atoms: C_20  and  C_22
REMARK   15  A    between atoms: C_20  and  C_23
REMARK   16  A    between atoms: C_23  and  O_24
REMARK   17  A    between atoms: O_24  and  P_25
REMARK   18  A    between atoms: P_25  and  O_26
REMARK   19  A    between atoms: P_25  and  O_28
REMARK   20  A    between atoms: O_28  and  P_29
REMARK   21  A    between atoms: P_29  and  O_30
REMARK   22  A    between atoms: P_29  and  O_32
REMARK   23  A    between atoms: O_32  and  C_33
REMARK   24  A    between atoms: C_33  and  C_34
REMARK   25  A    between atoms: C_37  and  N_49
REMARK   26  A    between atoms: C_39  and  O_41
REMARK   27  A    between atoms: C_42  and  O_44
REMARK   28  A    between atoms: O_44  and  P_45
REMARK   29  A    between atoms: P_45  and  O_46
REMARK   30  A    between atoms: P_45  and  O_47
REMARK                            x       y       z     vdW  Elec       q    Type
REMARK                         _______ _______ _______ _____ _____    ______ ____
ROOT
ATOM      1  P   UNL     1      13.837   8.827 -23.847  0.00  0.00    +0.483 P 
ATOM      2  O   UNL     1      12.373   8.537 -23.879  0.00  0.00    -0.227 OA
ENDROOT
BRANCH   1   3
ATOM      3  O   UNL     1      14.526   8.550 -25.257  0.00  0.00    -0.302 OA
ATOM      4  H   UNL     1      15.490   8.685 -25.229  0.00  0.00    +0.222 HD
ENDBRANCH   1   3
BRANCH   1   5
ATOM      5  O   UNL     1      14.768   8.003 -22.833  0.00  0.00    -0.186 OA
BRANCH   5   6
ATOM      6  P   UNL     1      14.769   6.324 -22.418  0.00  0.00    +0.483 P 
ATOM      7  O   UNL     1      16.123   6.143 -23.101  0.00  0.00    -0.227 OA
BRANCH   6   8
ATOM      8  O   UNL     1      14.770   4.645 -22.003  0.00  0.00    -0.302 OA
ATOM      9  H   UNL     1      14.891   4.101 -22.807  0.00  0.00    +0.222 HD
ENDBRANCH   6   8
BRANCH   6  10
ATOM     10  O   UNL     1      14.973   6.727 -20.842  0.00  0.00    -0.286 OA
BRANCH  10  11
ATOM     11  C   UNL     1      13.933   6.414 -19.917  0.00  0.00    +0.181 C 
BRANCH  11  12
ATOM     12  C   UNL     1      12.580   7.133 -20.130  0.00  0.00    +0.024 C 
ATOM     13  C   UNL     1      12.834   8.656 -20.150  0.00  0.00    +0.016 C 
ATOM     14  C   UNL     1      11.949   6.707 -21.465  0.00  0.00    +0.016 C 
BRANCH  12  15
ATOM     15  C   UNL     1      11.578   6.790 -18.978  0.00  0.00    +0.208 C 
BRANCH  15  18
ATOM     16  N   UNL     1      10.983   4.712 -17.758  0.00  0.00    -0.313 N 
ATOM     17  H   UNL     1      10.958   5.321 -16.950  0.00  0.00    +0.149 HD
ATOM     18  C   UNL     1      11.082   5.317 -18.992  0.00  0.00    +0.242 C 
ATOM     19  O   UNL     1      10.785   4.726 -20.024  0.00  0.00    -0.273 OA
BRANCH  16  20
ATOM     20  C   UNL     1      10.606   3.315 -17.566  0.00  0.00    +0.113 C 
BRANCH  20  21
ATOM     21  C   UNL     1      10.955   2.329 -18.682  0.00  0.00    +0.114 C 
BRANCH  21  24
ATOM     22  N   UNL     1      13.308   3.023 -18.432  0.00  0.00    -0.314 N 
ATOM     23  H   UNL     1      12.938   3.702 -17.781  0.00  0.00    +0.149 HD
ATOM     24  C   UNL     1      12.403   2.274 -19.148  0.00  0.00    +0.215 C 
ATOM     25  O   UNL     1      12.711   1.542 -20.085  0.00  0.00    -0.276 OA
BRANCH  22  26
ATOM     26  C   UNL     1      14.738   3.137 -18.687  0.00  0.00    +0.115 C 
BRANCH  26  27
ATOM     27  C   UNL     1      15.278   2.492 -19.957  0.00  0.00    +0.096 C 
BRANCH  27  28
ATOM     28  S   UNL     1      16.983   3.047 -20.217  0.00  0.00    -0.082 S 
BRANCH  28  29
ATOM     29  C   UNL     1      17.305   2.247 -21.746  0.00  0.00    +0.215 C 
ATOM     30  O   UNL     1      16.454   2.133 -22.612  0.00  0.00    -0.280 OA
BRANCH  29  32
ATOM     31  C   UNL     1      18.911   0.925 -23.190  0.00  0.00    +0.047 C 
ATOM     32  C   UNL     1      18.695   1.693 -21.920  0.00  0.00    -0.004 C 
ATOM     33  C   UNL     1      19.692   1.848 -21.030  0.00  0.00    +0.016 C 
ENDBRANCH  29  32
ENDBRANCH  28  29
ENDBRANCH  27  28
ENDBRANCH  26  27
ENDBRANCH  22  26
ENDBRANCH  21  24
ENDBRANCH  20  21
ENDBRANCH  16  20
ENDBRANCH  15  18
BRANCH  15  34
ATOM     34  O   UNL     1      12.135   7.150 -17.714  0.00  0.00    -0.382 OA
ATOM     35  H   UNL     1      11.396   7.398 -17.134  0.00  0.00    +0.210 HD
ENDBRANCH  15  34
ENDBRANCH  12  15
ENDBRANCH  11  12
ENDBRANCH  10  11
ENDBRANCH   6  10
ENDBRANCH   5   6
ENDBRANCH   1   5
BRANCH   1  36
ATOM     36  O   UNL     1      14.146  10.406 -23.602  0.00  0.00    -0.284 OA
BRANCH  36  37
ATOM     37  C   UNL     1      13.787  11.338 -24.644  0.00  0.00    +0.206 C 
BRANCH  37  38
ATOM     38  C   UNL     1      13.504  12.791 -24.140  0.00  0.00    +0.179 C 
ATOM     39  C   UNL     1      13.588  13.841 -25.269  0.00  0.00    +0.194 C 
ATOM     40  C   UNL     1      12.165  13.968 -25.803  0.00  0.00    +0.196 C 
ATOM     41  C   UNL     1      11.302  13.217 -24.782  0.00  0.00    +0.253 C 
ATOM     42  O   UNL     1      12.144  12.931 -23.641  0.00  0.00    -0.346 OA
BRANCH  41  43
ATOM     43  N   UNL     1      10.108  13.955 -24.394  0.00  0.00    -0.286 N 
ATOM     44  C   UNL     1       9.123  14.337 -25.274  0.00  0.00    +0.167 A 
ATOM     45  N   UNL     1       9.090  14.135 -26.605  0.00  0.00    -0.216 NA
ATOM     46  C   UNL     1       7.947  14.630 -27.133  0.00  0.00    +0.225 A 
ATOM     47  N   UNL     1       6.944  15.280 -26.504  0.00  0.00    -0.219 NA
ATOM     48  C   UNL     1       7.043  15.487 -25.171  0.00  0.00    +0.147 A 
ATOM     49  N   UNL     1       6.014  16.180 -24.547  0.00  0.00    -0.341 N 
ATOM     50  H   UNL     1       5.944  16.010 -23.550  0.00  0.00    +0.144 HD
ATOM     51  H   UNL     1       5.158  16.168 -25.087  0.00  0.00    +0.144 HD
ATOM     52  C   UNL     1       8.172  14.982 -24.497  0.00  0.00    +0.147 A 
ATOM     53  N   UNL     1       8.557  14.987 -23.168  0.00  0.00    -0.231 NA
ATOM     54  C   UNL     1       9.713  14.347 -23.150  0.00  0.00    +0.203 A 
ENDBRANCH  41  43
BRANCH  40  55
ATOM     55  O   UNL     1      12.058  13.395 -27.107  0.00  0.00    -0.385 OA
ATOM     56  H   UNL     1      11.180  13.663 -27.454  0.00  0.00    +0.210 HD
ENDBRANCH  40  55
BRANCH  39  57
ATOM     57  O   UNL     1      13.918  15.142 -24.760  0.00  0.00    -0.278 OA
BRANCH  57  58
ATOM     58  P   UNL     1      15.418  15.407 -24.282  0.00  0.00    +0.473 P 
ATOM     59  O   UNL     1      16.414  14.445 -24.827  0.00  0.00    -0.228 OA
BRANCH  58  60
ATOM     60  O   UNL     1      15.640  16.938 -24.639  0.00  0.00    -0.303 OA
ATOM     61  H   UNL     1      14.851  17.506 -24.544  0.00  0.00    +0.222 HD
ENDBRANCH  58  60
BRANCH  58  62
ATOM     62  O   UNL     1      15.252  15.419 -22.693  0.00  0.00    -0.303 OA
ATOM     63  H   UNL     1      14.425  15.835 -22.394  0.00  0.00    +0.222 HD
ENDBRANCH  58  62
ENDBRANCH  57  58
ENDBRANCH  39  57
ENDBRANCH  37  38
ENDBRANCH  36  37
ENDBRANCH   1  36
TORSDOF 27
