REMARK  Name = 
REMARK  9 active torsions:
REMARK  status: ('A' for Active; 'I' for Inactive)
REMARK    1  A    between atoms: C_2  and  O_3
REMARK    2  A    between atoms: C_2  and  C_4
REMARK    3  A    between atoms: C_2  and  C_6
REMARK    4  A    between atoms: C_4  and  O_5
REMARK    5  A    between atoms: C_6  and  N_7
REMARK    6  A    between atoms: N_7  and  C_8
REMARK    7  A    between atoms: C_12  and  C_14
REMARK    8  A    between atoms: C_15  and  C_21
REMARK    9  A    between atoms: N_23  and  C_24
REMARK                            x       y       z     vdW  Elec       q    Type
REMARK                         _______ _______ _______ _____ _____    ______ ____
ROOT
ATOM      1  C   UNL     1       7.624   2.154   4.034  0.00  0.00    +0.057 C 
ATOM      2  C   UNL     1       8.685   3.049   4.548  0.00  0.00    +0.252 C 
ATOM      3  O   UNL     1       8.688   4.266   4.500  0.00  0.00    -0.270 OA
ATOM      4  N   UNL     1       9.623   2.277   5.115  0.00  0.00    -0.248 N 
ATOM      5  H   UNL     1      10.381   2.650   5.660  0.00  0.00    +0.158 HD
ATOM      6  C   UNL     1       9.133   1.035   5.286  0.00  0.00    +0.252 C 
ATOM      7  O   UNL     1       9.567   0.230   6.088  0.00  0.00    -0.270 OA
ATOM      8  C   UNL     1       7.917   0.899   4.436  0.00  0.00    +0.059 C 
ENDROOT
BRANCH   8   9
ATOM      9  C   UNL     1       7.257  -0.341   4.153  0.00  0.00    +0.013 A 
ATOM     10  C   UNL     1       7.780  -1.687   4.150  0.00  0.00    +0.010 A 
ATOM     11  C   UNL     1       6.762  -2.526   3.669  0.00  0.00    +0.050 A 
ATOM     12  C   UNL     1       6.927  -3.916   3.509  0.00  0.00    +0.029 A 
ATOM     13  C   UNL     1       8.148  -4.482   3.870  0.00  0.00    +0.040 A 
ATOM     14  C   UNL     1       9.168  -3.677   4.348  0.00  0.00    +0.124 A 
ATOM     15  F   UNL     1      10.335  -4.240   4.696  0.00  0.00    -0.205 F 
ATOM     16  N   UNL     1       5.678  -1.723   3.395  0.00  0.00    -0.349 N 
ATOM     17  C   UNL     1       4.471  -2.152   2.725  0.00  0.00    +0.149 C 
ATOM     18  C   UNL     1       9.016  -2.294   4.474  0.00  0.00    +0.049 A 
ATOM     19  C   UNL     1       5.930  -0.436   3.782  0.00  0.00    +0.095 A 
ENDBRANCH   8   9
BRANCH   1  22
ATOM     20  C   UNL     1       4.446   3.969   3.071  0.00  0.00    +0.028 A 
ATOM     21  C   UNL     1       5.435   3.314   3.824  0.00  0.00    +0.031 A 
ATOM     22  C   UNL     1       6.535   2.688   3.212  0.00  0.00    -0.010 A 
ATOM     23  C   UNL     1       6.625   2.675   1.818  0.00  0.00    +0.009 A 
ATOM     24  C   UNL     1       5.629   3.280   1.055  0.00  0.00    +0.002 A 
ATOM     25  C   UNL     1       4.546   3.908   1.677  0.00  0.00    +0.023 A 
BRANCH  20  26
ATOM     26  N   UNL     1       3.382   4.577   3.755  0.00  0.00    -0.341 N 
ATOM     27  H   UNL     1       3.736   5.103   4.559  0.00  0.00    +0.146 HD
BRANCH  26  28
ATOM     28  C   UNL     1       2.420   5.391   3.002  0.00  0.00    +0.135 C 
BRANCH  28  29
ATOM     29  C   UNL     1       1.396   6.061   3.934  0.00  0.00    +0.157 C 
BRANCH  29  30
ATOM     30  O   UNL     1       2.063   6.960   4.835  0.00  0.00    -0.388 OA
ATOM     31  H   UNL     1       1.360   7.520   5.213  0.00  0.00    +0.210 HD
ENDBRANCH  29  30
BRANCH  29  32
ATOM     32  C   UNL     1       0.580   5.052   4.742  0.00  0.00    +0.188 C 
BRANCH  32  33
ATOM     33  O   UNL     1      -0.401   5.754   5.513  0.00  0.00    -0.392 OA
ATOM     34  H   UNL     1       0.032   6.000   6.350  0.00  0.00    +0.210 HD
ENDBRANCH  32  33
ENDBRANCH  29  32
ENDBRANCH  28  29
ENDBRANCH  26  28
ENDBRANCH  20  26
ENDBRANCH   1  22
TORSDOF 8
