REMARK  Name = 
REMARK  16 active torsions:
REMARK  status: ('A' for Active; 'I' for Inactive)
REMARK    1  A    between atoms: C_1  and  C_2
REMARK    2  A    between atoms: C_2  and  C_3
REMARK    3  A    between atoms: C_2  and  C_4
REMARK    4  A    between atoms: C_8  and  C_9
REMARK    5  A    between atoms: C_16  and  C_17
REMARK    6  A    between atoms: C_18  and  C_19
REMARK    7  A    between atoms: C_19  and  O_21
REMARK    8  A    between atoms: C_19  and  C_22
REMARK    9  A    between atoms: C_22  and  C_23
REMARK   10  A    between atoms: C_23  and  O_25
REMARK   11  A    between atoms: C_23  and  C_26
REMARK   12  A    between atoms: C_26  and  C_27
REMARK   13  A    between atoms: C_27  and  O_29
REMARK   14  A    between atoms: N_30  and  C_31
REMARK   15  A    between atoms: N_30  and  S_32
REMARK   16  A    between atoms: S_32  and  C_33
REMARK                            x       y       z     vdW  Elec       q    Type
REMARK                         _______ _______ _______ _____ _____    ______ ____
ROOT
ATOM      1  C   UNL     1       2.859   1.400  -0.508  0.00  0.00    +0.057 A 
ATOM      2  C   UNL     1       3.899   1.396  -1.453  0.00  0.00    +0.022 A 
ATOM      3  C   UNL     1       4.221   2.650  -2.011  0.00  0.00    +0.083 A 
ATOM      4  N   UNL     1       3.652   3.796  -1.558  0.00  0.00    -0.212 NA
ATOM      5  C   UNL     1       2.722   3.685  -0.618  0.00  0.00    +0.238 A 
ATOM      6  N   UNL     1       2.338   4.866   0.039  0.00  0.00    -0.178 N 
ATOM      7  C   UNL     1       2.667   4.924   1.469  0.00  0.00    +0.160 C 
ATOM      8  N   UNL     1       2.282   2.547  -0.081  0.00  0.00    -0.217 NA
ENDROOT
BRANCH   3   9
ATOM      9  C   UNL     1       5.206   2.903  -3.110  0.00  0.00    +0.001 A 
ATOM     10  C   UNL     1       5.388   2.030  -4.201  0.00  0.00    +0.013 A 
ATOM     11  C   UNL     1       6.292   2.322  -5.238  0.00  0.00    +0.039 A 
ATOM     12  C   UNL     1       7.008   3.508  -5.211  0.00  0.00    +0.123 A 
ATOM     13  F   UNL     1       7.859   3.791  -6.203  0.00  0.00    -0.205 F 
ATOM     14  C   UNL     1       6.838   4.409  -4.173  0.00  0.00    +0.039 A 
ATOM     15  C   UNL     1       5.945   4.109  -3.139  0.00  0.00    +0.013 A 
ENDBRANCH   3   9
BRANCH   6  16
ATOM     16  S   UNL     1       0.859   5.482  -0.439  0.00  0.00    +0.045 S 
ATOM     17  O   UNL     1       0.841   5.627  -1.883  0.00  0.00    -0.155 OA
ATOM     18  O   UNL     1       0.566   6.622   0.408  0.00  0.00    -0.155 OA
ATOM     19  C   UNL     1      -0.328   4.212  -0.027  0.00  0.00    +0.219 C 
ENDBRANCH   6  16
BRANCH   1  21
ATOM     20  C   UNL     1       3.125  -0.112   1.476  0.00  0.00    +0.014 C 
ATOM     21  C   UNL     1       2.347   0.140   0.183  0.00  0.00    +0.032 C 
ATOM     22  C   UNL     1       0.846   0.225   0.518  0.00  0.00    +0.014 C 
ENDBRANCH   1  21
BRANCH   2  23
ATOM     23  C   UNL     1       4.669   0.174  -1.753  0.00  0.00    +0.010 C 
ATOM     24  C   UNL     1       5.737  -0.195  -1.021  0.00  0.00    +0.005 C 
BRANCH  24  25
ATOM     25  C   UNL     1       6.645  -1.349  -1.350  0.00  0.00    +0.140 C 
BRANCH  25  26
ATOM     26  O   UNL     1       7.966  -0.816  -1.465  0.00  0.00    -0.388 OA
ATOM     27  H   UNL     1       7.910  -0.026  -2.035  0.00  0.00    +0.210 HD
ENDBRANCH  25  26
BRANCH  25  28
ATOM     28  C   UNL     1       6.657  -2.455  -0.278  0.00  0.00    +0.067 C 
BRANCH  28  29
ATOM     29  C   UNL     1       7.642  -3.594  -0.626  0.00  0.00    +0.128 C 
BRANCH  29  30
ATOM     30  O   UNL     1       8.988  -3.103  -0.633  0.00  0.00    -0.391 OA
ATOM     31  H   UNL     1       8.966  -2.206  -1.032  0.00  0.00    +0.210 HD
ENDBRANCH  29  30
BRANCH  29  32
ATOM     32  C   UNL     1       7.632  -4.739   0.387  0.00  0.00    +0.151 C 
BRANCH  32  33
ATOM     33  C   UNL     1       6.301  -5.434   0.458  0.00  0.00    +0.307 C 
ATOM     34  O   UNL     1       5.503  -5.508  -0.464  0.00  0.00    -0.251 OA
BRANCH  33  35
ATOM     35  O   UNL     1       6.067  -6.004   1.663  0.00  0.00    -0.481 OA
ATOM     36  H   UNL     1       6.795  -5.893   2.304  0.00  0.00    +0.295 HD
ENDBRANCH  33  35
ENDBRANCH  32  33
ENDBRANCH  29  32
ENDBRANCH  28  29
ENDBRANCH  25  28
ENDBRANCH  24  25
ENDBRANCH   2  23
TORSDOF 12
