REMARK  Name = 
REMARK  2 active torsions:
REMARK  status: ('A' for Active; 'I' for Inactive)
REMARK    1  A    between atoms: O_1  and  C_2
REMARK    2  A    between atoms: C_9  and  N_12
REMARK                            x       y       z     vdW  Elec       q    Type
REMARK                         _______ _______ _______ _____ _____    ______ ____
ROOT
ATOM      1  C   UNL     1       2.385   0.011   0.074  0.00  0.00    +0.143 A 
ATOM      2  C   UNL     1       3.011  -1.231   0.082  0.00  0.00    +0.054 A 
ATOM      3  C   UNL     1       4.397  -1.282   0.076  0.00  0.00    +0.088 A 
ATOM      4  C   UNL     1       5.117  -0.077   0.071  0.00  0.00    +0.282 A 
ATOM      5  C   UNL     1       4.486   1.198   0.058  0.00  0.00    +0.081 A 
ATOM      6  C   UNL     1       5.132   2.459   0.030  0.00  0.00    +0.018 A 
ATOM      7  C   UNL     1       4.391   3.636   0.001  0.00  0.00    +0.021 A 
ATOM      8  C   UNL     1       3.016   3.535   0.000  0.00  0.00    +0.111 A 
ATOM      9  N   UNL     1       2.353   2.359   0.031  0.00  0.00    -0.251 NA
ATOM     10  C   UNL     1       3.078   1.221   0.056  0.00  0.00    +0.119 A 
ENDROOT
BRANCH   4  11
ATOM     11  N   UNL     1       6.565  -0.181   0.064  0.00  0.00    +0.080 N 
ATOM     12  O   UNL     1       7.078  -0.815  -0.867  0.00  0.00    +0.041 OA
ATOM     13  O   UNL     1       7.178   0.352   0.998  0.00  0.00    -0.576 OA
ENDBRANCH   4  11
BRANCH   1  14
ATOM     14  O   UNL     1       1.009   0.031   0.078  0.00  0.00    -0.505 OA
ATOM     15  H   UNL     1       0.784   0.986   0.069  0.00  0.00    +0.292 HD
ENDBRANCH   1  14
TORSDOF 2
