REMARK  Name = 
REMARK  8 active torsions:
REMARK  status: ('A' for Active; 'I' for Inactive)
REMARK    1  A    between atoms: O_1  and  C_2
REMARK    2  A    between atoms: C_2  and  C_3
REMARK    3  A    between atoms: C_6  and  O_8
REMARK    4  A    between atoms: O_8  and  C_9
REMARK    5  A    between atoms: C_14  and  N_15
REMARK    6  A    between atoms: C_18  and  O_20
REMARK    7  A    between atoms: C_21  and  O_23
REMARK    8  A    between atoms: C_24  and  O_26
REMARK                            x       y       z     vdW  Elec       q    Type
REMARK                         _______ _______ _______ _____ _____    ______ ____
ROOT
ATOM      1  C   UNL     1       3.060  -0.561  -1.483  0.00  0.00    +0.179 C 
ATOM      2  C   UNL     1       1.822  -0.854  -2.347  0.00  0.00    +0.177 C 
ATOM      3  C   UNL     1       1.037  -2.037  -1.755  0.00  0.00    +0.180 C 
ATOM      4  C   UNL     1       1.938  -3.261  -1.462  0.00  0.00    +0.214 C 
ATOM      5  C   UNL     1       3.086  -2.750  -0.557  0.00  0.00    +0.340 C 
ATOM      6  O   UNL     1       3.819  -1.757  -1.276  0.00  0.00    -0.331 OA
ENDROOT
BRANCH   2   7
ATOM      7  O   UNL     1       1.023   0.333  -2.408  0.00  0.00    -0.386 OA
ATOM      8  H   UNL     1       0.154   0.145  -2.010  0.00  0.00    +0.210 HD
ENDBRANCH   2   7
BRANCH   3   9
ATOM      9  O   UNL     1      -0.049  -2.392  -2.617  0.00  0.00    -0.386 OA
ATOM     10  H   UNL     1      -0.267  -3.328  -2.427  0.00  0.00    +0.210 HD
ENDBRANCH   3   9
BRANCH   4  11
ATOM     11  O   UNL     1       1.113  -4.268  -0.863  0.00  0.00    -0.383 OA
ATOM     12  H   UNL     1       0.666  -3.898  -0.081  0.00  0.00    +0.210 HD
ENDBRANCH   4  11
BRANCH   1  13
ATOM     13  C   UNL     1       3.952   0.497  -2.151  0.00  0.00    +0.190 C 
BRANCH  13  14
ATOM     14  O   UNL     1       5.013   0.860  -1.265  0.00  0.00    -0.392 OA
ATOM     15  H   UNL     1       5.641   1.389  -1.786  0.00  0.00    +0.210 HD
ENDBRANCH  13  14
ENDBRANCH   1  13
BRANCH   5  16
ATOM     16  O   UNL     1       3.970  -3.782  -0.088  0.00  0.00    -0.454 OA
BRANCH  16  17
ATOM     17  C   UNL     1       4.926  -3.372   0.827  0.00  0.00    +0.201 A 
ATOM     18  C   UNL     1       6.125  -4.089   0.992  0.00  0.00    +0.314 A 
ATOM     19  C   UNL     1       7.117  -3.625   1.895  0.00  0.00    +0.088 A 
ATOM     20  C   UNL     1       6.911  -2.470   2.650  0.00  0.00    +0.007 A 
ATOM     21  C   UNL     1       5.715  -1.787   2.531  0.00  0.00    +0.004 A 
ATOM     22  C   UNL     1       4.735  -2.236   1.639  0.00  0.00    +0.053 A 
BRANCH  18  23
ATOM     23  N   UNL     1       6.424  -5.334   0.265  0.00  0.00    +0.083 N 
ATOM     24  O   UNL     1       7.533  -5.858   0.467  0.00  0.00    +0.042 OA
ATOM     25  O   UNL     1       5.572  -5.819  -0.489  0.00  0.00    -0.576 OA
ENDBRANCH  18  23
ENDBRANCH  16  17
ENDBRANCH   5  16
TORSDOF 8
