REMARK  Name = 
REMARK  8 active torsions:
REMARK  status: ('A' for Active; 'I' for Inactive)
REMARK    1  A    between atoms: C_1  and  C_2
REMARK    2  A    between atoms: C_2  and  C_3
REMARK    3  A    between atoms: C_3  and  O_4
REMARK    4  A    between atoms: C_21  and  O_22
REMARK    5  A    between atoms: C_23  and  C_24
REMARK    6  A    between atoms: C_24  and  N_25
REMARK    7  A    between atoms: N_25  and  C_26
REMARK    8  A    between atoms: N_25  and  C_27
REMARK                            x       y       z     vdW  Elec       q    Type
REMARK                         _______ _______ _______ _____ _____    ______ ____
ROOT
ATOM      1  C   UNL     1       4.718   0.553   3.283  0.00  0.00    +0.188 C 
ATOM      2  C   UNL     1       5.883   1.151   4.126  0.00  0.00    +0.008 A 
ATOM      3  C   UNL     1       6.070   1.337   5.624  0.00  0.00    +0.035 A 
ATOM      4  C   UNL     1       6.780   2.409   6.095  0.00  0.00    +0.071 A 
ATOM      5  C   UNL     1       7.302   3.012   7.402  0.00  0.00    +0.093 A 
ATOM      6  C   UNL     1       7.597   4.339   7.120  0.00  0.00    +0.000 A 
ATOM      7  C   UNL     1       8.052   5.225   8.071  0.00  0.00    +0.018 A 
ATOM      8  C   UNL     1       8.310   4.748   9.351  0.00  0.00    +0.009 A 
ATOM      9  C   UNL     1       8.665   5.663  10.394  0.00  0.00    +0.017 A 
ATOM     10  C   UNL     1       9.158   5.143  11.601  0.00  0.00    +0.122 A 
ATOM     11  C   UNL     1       9.262   3.771  11.763  0.00  0.00    +0.048 A 
ATOM     12  C   UNL     1       8.778   2.899  10.758  0.00  0.00    +0.032 A 
ATOM     13  C   UNL     1       8.233   3.341   9.535  0.00  0.00    +0.072 A 
ATOM     14  C   UNL     1       7.430   4.655   5.691  0.00  0.00    +0.162 C 
ATOM     15  N   UNL     1       7.689   2.470   8.583  0.00  0.00    -0.245 NA
ATOM     16  N   UNL     1       7.144   3.349   5.135  0.00  0.00    -0.302 N 
ATOM     17  C   UNL     1       7.257   3.115   3.805  0.00  0.00    +0.259 A 
ATOM     18  O   UNL     1       7.663   3.954   3.008  0.00  0.00    -0.267 OA
ATOM     19  C   UNL     1       6.809   1.775   3.359  0.00  0.00    +0.061 A 
ATOM     20  C   UNL     1       7.115   1.459   1.940  0.00  0.00    +0.273 C 
ATOM     21  O   UNL     1       5.990   1.014   1.202  0.00  0.00    -0.457 OA
ATOM     22  C   UNL     1       5.223   0.108   1.848  0.00  0.00    +0.344 C 
ATOM     23  O   UNL     1       4.827  -0.888   1.248  0.00  0.00    -0.247 OA
ENDROOT
BRANCH   1  25
ATOM     24  C   UNL     1       2.877  -0.361   4.915  0.00  0.00    +0.007 C 
ATOM     25  C   UNL     1       3.742  -0.572   3.689  0.00  0.00    +0.048 C 
ENDBRANCH   1  25
BRANCH   1  26
ATOM     26  O   UNL     1       3.865   1.710   3.020  0.00  0.00    -0.373 OA
ATOM     27  H   UNL     1       3.265   1.480   2.277  0.00  0.00    +0.211 HD
ENDBRANCH   1  26
BRANCH  10  28
ATOM     28  O   UNL     1       9.539   6.002  12.590  0.00  0.00    -0.506 OA
ATOM     29  H   UNL     1       9.766   5.504  13.392  0.00  0.00    +0.292 HD
ENDBRANCH  10  28
BRANCH   9  30
ATOM     30  C   UNL     1       8.419   7.167  10.281  0.00  0.00    +0.123 C 
BRANCH  30  31
ATOM     31  N   UNL     1       7.028   7.503   9.883  0.00  0.00    -0.304 NA
ATOM     32  C   UNL     1       6.864   8.945   9.700  0.00  0.00    +0.104 C 
ATOM     33  C   UNL     1       6.052   7.021  10.864  0.00  0.00    +0.104 C 
ENDBRANCH  30  31
ENDBRANCH   9  30
TORSDOF 5
