REMARK  Name = 
REMARK  3 active torsions:
REMARK  status: ('A' for Active; 'I' for Inactive)
REMARK    1  A    between atoms: C_7  and  C_8
REMARK    2  A    between atoms: N_13  and  C_14
REMARK    3  A    between atoms: C_14  and  C_15
REMARK                            x       y       z     vdW  Elec       q    Type
REMARK                         _______ _______ _______ _____ _____    ______ ____
ROOT
ATOM      1  C   UNL     1       2.227  -2.249  -0.078  0.00  0.00    +0.078 C 
ATOM      2  C   UNL     1       1.057  -2.245   0.876  0.00  0.00    +0.023 A 
ATOM      3  C   UNL     1       0.457  -1.004   1.183  0.00  0.00    +0.032 A 
ATOM      4  C   UNL     1      -0.647  -0.925   2.030  0.00  0.00    +0.042 A 
ATOM      5  C   UNL     1      -1.228  -2.079   2.526  0.00  0.00    +0.022 A 
ATOM      6  C   UNL     1      -0.645  -3.312   2.245  0.00  0.00    +0.025 A 
ATOM      7 CL   UNL     1      -1.291   0.609   2.463  0.00  0.00    -0.084 Cl
ATOM      8  C   UNL     1       0.528  -3.419   1.465  0.00  0.00    +0.044 A 
ATOM      9  N   UNL     1       1.131  -4.724   1.359  0.00  0.00    -0.287 N 
ATOM     10  C   UNL     1       1.665  -5.214   0.161  0.00  0.00    +0.077 C 
ATOM     11  S   UNL     1       2.374  -6.731  -0.033  0.00  0.00    -0.038 S 
ATOM     12  C   UNL     1       1.536  -4.310  -1.050  0.00  0.00    +0.201 C 
ATOM     13  N   UNL     1       2.467  -3.209  -0.903  0.00  0.00    -0.276 NA
ENDROOT
BRANCH   1  16
ATOM     14  F   UNL     1       3.273  -1.348  -2.563  0.00  0.00    -0.205 F 
ATOM     15  C   UNL     1       3.579  -0.651  -1.459  0.00  0.00    +0.133 A 
ATOM     16  C   UNL     1       3.133  -1.048  -0.187  0.00  0.00    +0.036 A 
ATOM     17  C   UNL     1       3.493  -0.271   0.922  0.00  0.00    +0.013 A 
ATOM     18  C   UNL     1       4.214   0.916   0.738  0.00  0.00    +0.001 A 
ATOM     19  C   UNL     1       4.608   1.322  -0.536  0.00  0.00    +0.003 A 
ATOM     20  C   UNL     1       4.311   0.522  -1.635  0.00  0.00    +0.039 A 
ENDBRANCH   1  16
BRANCH   9  21
ATOM     21  C   UNL     1       1.205  -5.519   2.626  0.00  0.00    +0.224 C 
BRANCH  21  22
ATOM     22  C   UNL     1       0.097  -6.548   2.865  0.00  0.00    +0.406 C 
ATOM     23  F   UNL     1      -0.563  -6.250   4.015  0.00  0.00    -0.169 F 
ATOM     24  F   UNL     1       0.590  -7.797   3.004  0.00  0.00    -0.169 F 
ATOM     25  F   UNL     1      -0.828  -6.569   1.881  0.00  0.00    -0.169 F 
ENDBRANCH  21  22
ENDBRANCH   9  21
TORSDOF 3
