REMARK  Name = 
REMARK  11 active torsions:
REMARK  status: ('A' for Active; 'I' for Inactive)
REMARK    1  A    between atoms: C_1  and  O_2
REMARK    2  A    between atoms: O_2  and  C_3
REMARK    3  A    between atoms: C_9  and  C_10
REMARK    4  A    between atoms: C_10  and  C_11
REMARK    5  A    between atoms: C_11  and  N_12
REMARK    6  A    between atoms: N_12  and  C_13
REMARK    7  A    between atoms: N_12  and  C_16
REMARK    8  A    between atoms: C_13  and  C_14
REMARK    9  A    between atoms: C_13  and  C_15
REMARK   10  A    between atoms: C_16  and  C_17
REMARK   11  A    between atoms: C_16  and  C_18
REMARK                            x       y       z     vdW  Elec       q    Type
REMARK                         _______ _______ _______ _____ _____    ______ ____
ROOT
ATOM      1  C   UNL     1       1.809   0.341  -4.374  0.00  0.00    +0.121 A 
ATOM      2  C   UNL     1       2.652  -0.752  -4.569  0.00  0.00    +0.047 A 
ATOM      3  C   UNL     1       4.034  -0.646  -4.375  0.00  0.00    +0.030 A 
ATOM      4  C   UNL     1       4.538   0.595  -3.975  0.00  0.00    +0.047 A 
ATOM      5  N   UNL     1       5.830   0.983  -3.700  0.00  0.00    -0.360 N 
ATOM      6  H   UNL     1       6.632   0.373  -3.756  0.00  0.00    +0.165 HD
ATOM      7  C   UNL     1       5.869   2.311  -3.374  0.00  0.00    +0.087 A 
ATOM      8  C   UNL     1       4.583   2.812  -3.435  0.00  0.00    -0.021 A 
ATOM      9  C   UNL     1       3.730   1.718  -3.802  0.00  0.00    +0.006 A 
ATOM     10  C   UNL     1       2.340   1.585  -4.026  0.00  0.00    +0.056 A 
ENDROOT
BRANCH   1  12
ATOM     11  C   UNL     1      -0.399   0.857  -3.739  0.00  0.00    +0.277 C 
ATOM     12  O   UNL     1       0.475   0.112  -4.588  0.00  0.00    -0.495 OA
ENDBRANCH   1  12
BRANCH   8  13
ATOM     13  C   UNL     1       4.173   4.247  -3.235  0.00  0.00    +0.052 C 
BRANCH  13  14
ATOM     14  C   UNL     1       3.184   4.443  -2.071  0.00  0.00    +0.089 C 
BRANCH  14  15
ATOM     15  N   UNL     1       2.741   5.810  -1.665  0.00  0.00    -0.297 NA
BRANCH  15  16
ATOM     16  C   UNL     1       1.960   5.736  -0.379  0.00  0.00    +0.051 C 
ATOM     17  C   UNL     1       2.784   5.268   0.837  0.00  0.00    +0.024 C 
ATOM     18  C   UNL     1       0.656   4.921  -0.458  0.00  0.00    +0.024 C 
ENDBRANCH  15  16
BRANCH  15  19
ATOM     19  C   UNL     1       2.003   6.575  -2.726  0.00  0.00    +0.051 C 
ATOM     20  C   UNL     1       2.804   6.850  -4.011  0.00  0.00    +0.024 C 
ATOM     21  C   UNL     1       1.523   7.962  -2.238  0.00  0.00    +0.024 C 
ENDBRANCH  15  19
ENDBRANCH  14  15
ENDBRANCH  13  14
ENDBRANCH   8  13
TORSDOF 6
