REMARK  Name = 
REMARK  13 active torsions:
REMARK  status: ('A' for Active; 'I' for Inactive)
REMARK    1  A    between atoms: O_1  and  C_2
REMARK    2  A    between atoms: C_4  and  C_6
REMARK    3  A    between atoms: C_6  and  O_7
REMARK    4  A    between atoms: O_7  and  P_8
REMARK    5  A    between atoms: P_8  and  O_9
REMARK    6  A    between atoms: P_8  and  O_11
REMARK    7  A    between atoms: O_11  and  P_12
REMARK    8  A    between atoms: P_12  and  O_13
REMARK    9  A    between atoms: P_12  and  O_14
REMARK   10  A    between atoms: C_17  and  N_22
REMARK   11  A    between atoms: C_19  and  O_21
REMARK   12  A    between atoms: N_31  and  C_32
REMARK   13  A    between atoms: C_32  and  C_33
REMARK                            x       y       z     vdW  Elec       q    Type
REMARK                         _______ _______ _______ _____ _____    ______ ____
ROOT
ATOM      1  C   UNL     1      -1.726   7.338   1.013  0.00  0.00    +0.178 C 
ATOM      2  C   UNL     1      -2.939   7.288   1.939  0.00  0.00    +0.195 C 
ATOM      3  C   UNL     1      -2.805   5.936   2.662  0.00  0.00    +0.253 C 
ATOM      4  O   UNL     1      -1.529   5.362   2.275  0.00  0.00    -0.346 OA
ATOM      5  C   UNL     1      -0.735   6.421   1.712  0.00  0.00    +0.178 C 
ENDROOT
BRANCH   3   6
ATOM      6  N   UNL     1      -2.851   6.052   4.113  0.00  0.00    -0.286 N 
ATOM      7  C   UNL     1      -3.885   6.582   4.848  0.00  0.00    +0.167 A 
ATOM      8  N   UNL     1      -5.060   7.056   4.413  0.00  0.00    -0.216 NA
ATOM      9  C   UNL     1      -5.791   7.525   5.453  0.00  0.00    +0.225 A 
ATOM     10  N   UNL     1      -5.464   7.588   6.768  0.00  0.00    -0.219 NA
ATOM     11  C   UNL     1      -4.244   7.131   7.153  0.00  0.00    +0.150 A 
ATOM     12  N   UNL     1      -3.787   7.245   8.464  0.00  0.00    -0.323 N 
ATOM     13  H   UNL     1      -2.961   6.668   8.609  0.00  0.00    +0.148 HD
ATOM     14  C   UNL     1      -3.421   6.569   6.159  0.00  0.00    +0.147 A 
ATOM     15  N   UNL     1      -2.173   5.982   6.232  0.00  0.00    -0.231 NA
ATOM     16  C   UNL     1      -1.872   5.665   4.992  0.00  0.00    +0.203 A 
BRANCH  12  17
ATOM     17  C   UNL     1      -4.765   7.207   9.530  0.00  0.00    +0.138 C 
BRANCH  17  18
ATOM     18  C   UNL     1      -4.038   7.229  10.861  0.00  0.00    -0.030 A 
ATOM     19  C   UNL     1      -3.592   6.036  11.454  0.00  0.00    +0.005 A 
ATOM     20  C   UNL     1      -2.880   6.068  12.657  0.00  0.00    +0.000 A 
ATOM     21  C   UNL     1      -2.597   7.284  13.275  0.00  0.00    +0.000 A 
ATOM     22  C   UNL     1      -3.019   8.475  12.687  0.00  0.00    +0.000 A 
ATOM     23  C   UNL     1      -3.730   8.450  11.484  0.00  0.00    +0.005 A 
ENDBRANCH  17  18
ENDBRANCH  12  17
ENDBRANCH   3   6
BRANCH   1  24
ATOM     24  O   UNL     1      -1.227   8.666   0.895  0.00  0.00    -0.386 OA
ATOM     25  H   UNL     1      -0.438   8.632   0.319  0.00  0.00    +0.210 HD
ENDBRANCH   1  24
BRANCH   2  26
ATOM     26  O   UNL     1      -4.150   7.348   1.175  0.00  0.00    -0.385 OA
ATOM     27  H   UNL     1      -4.879   7.476   1.812  0.00  0.00    +0.210 HD
ENDBRANCH   2  26
BRANCH   5  28
ATOM     28  C   UNL     1       0.326   5.828   0.785  0.00  0.00    +0.206 C 
BRANCH  28  29
ATOM     29  O   UNL     1       1.154   6.825   0.194  0.00  0.00    -0.284 OA
BRANCH  29  30
ATOM     30  P   UNL     1       2.284   6.232  -0.853  0.00  0.00    +0.483 P 
ATOM     31  O   UNL     1       3.041   7.403  -1.466  0.00  0.00    -0.227 OA
BRANCH  30  32
ATOM     32  O   UNL     1       3.454   6.236   0.421  0.00  0.00    -0.302 OA
ATOM     33  H   UNL     1       3.895   7.106   0.308  0.00  0.00    +0.222 HD
ENDBRANCH  30  32
BRANCH  30  34
ATOM     34  O   UNL     1       1.113   6.227  -2.127  0.00  0.00    -0.186 OA
BRANCH  34  35
ATOM     35  P   UNL     1       1.605   5.116  -3.358  0.00  0.00    +0.481 P 
ATOM     36  O   UNL     1       2.045   4.121  -4.460  0.00  0.00    -0.227 OA
BRANCH  35  37
ATOM     37  O   UNL     1       0.880   6.137  -4.406  0.00  0.00    -0.302 OA
ATOM     38  H   UNL     1      -0.078   5.961  -4.411  0.00  0.00    +0.222 HD
ENDBRANCH  35  37
BRANCH  35  39
ATOM     39  O   UNL     1       0.232   4.298  -2.991  0.00  0.00    -0.302 OA
ATOM     40  H   UNL     1       0.403   3.338  -2.951  0.00  0.00    +0.222 HD
ENDBRANCH  35  39
ENDBRANCH  34  35
ENDBRANCH  30  34
ENDBRANCH  29  30
ENDBRANCH  28  29
ENDBRANCH   5  28
TORSDOF 13
