REMARK  Name = 
REMARK  8 active torsions:
REMARK  status: ('A' for Active; 'I' for Inactive)
REMARK    1  A    between atoms: C_1  and  C_2
REMARK    2  A    between atoms: C_2  and  N_3
REMARK    3  A    between atoms: C_2  and  C_8
REMARK    4  A    between atoms: N_3  and  C_4
REMARK    5  A    between atoms: C_4  and  C_5
REMARK    6  A    between atoms: C_4  and  C_6
REMARK    7  A    between atoms: C_4  and  C_7
REMARK    8  A    between atoms: C_8  and  C_10
REMARK                            x       y       z     vdW  Elec       q    Type
REMARK                         _______ _______ _______ _____ _____    ______ ____
ROOT
ATOM      1  C   UNL     1       3.138  -1.440  -0.139  0.00  0.00    +0.180 C 
ATOM      2  O   UNL     1       2.460  -2.455  -0.320  0.00  0.00    -0.290 OA
ENDROOT
BRANCH   1   3
ATOM      3  C   UNL     1       4.631  -1.605  -0.124  0.00  0.00    +0.020 A 
ATOM      4  C   UNL     1       5.140  -2.902  -0.328  0.00  0.00    +0.011 A 
ATOM      5  C   UNL     1       6.512  -3.153  -0.278  0.00  0.00    +0.002 A 
ATOM      6  C   UNL     1       7.393  -2.110  -0.013  0.00  0.00    +0.020 A 
ATOM      7  C   UNL     1       6.897  -0.819   0.170  0.00  0.00    +0.042 A 
ATOM      8 CL   UNL     1       7.988   0.467   0.515  0.00  0.00    -0.084 Cl
ATOM      9  C   UNL     1       5.527  -0.550   0.100  0.00  0.00    +0.031 A 
ENDBRANCH   1   3
BRANCH   1  11
ATOM     10  C   UNL     1       1.024  -0.148  -0.386  0.00  0.00    +0.032 C 
ATOM     11  C   UNL     1       2.497  -0.036   0.024  0.00  0.00    +0.123 C 
BRANCH  11  12
ATOM     12  N   UNL     1       2.657   0.431   1.421  0.00  0.00    -0.302 NA
ATOM     13  H   UNL     1       3.608   0.251   1.738  0.00  0.00    +0.123 HD
BRANCH  12  14
ATOM     14  C   UNL     1       2.303   1.830   1.755  0.00  0.00    +0.011 C 
ATOM     15  C   UNL     1       2.862   2.857   0.756  0.00  0.00    +0.027 C 
ATOM     16  C   UNL     1       2.932   2.128   3.137  0.00  0.00    +0.027 C 
ATOM     17  C   UNL     1       0.785   2.015   1.917  0.00  0.00    +0.027 C 
ENDBRANCH  12  14
ENDBRANCH  11  12
ENDBRANCH   1  11
TORSDOF 4
