REMARK  Name = 
REMARK  6 active torsions:
REMARK  status: ('A' for Active; 'I' for Inactive)
REMARK    1  A    between atoms: O_1  and  C_2
REMARK    2  A    between atoms: C_2  and  C_4
REMARK    3  A    between atoms: C_4  and  C_5
REMARK    4  A    between atoms: C_5  and  C_6
REMARK    5  A    between atoms: C_10  and  O_11
REMARK    6  A    between atoms: C_19  and  O_20
REMARK                            x       y       z     vdW  Elec       q    Type
REMARK                         _______ _______ _______ _____ _____    ______ ____
ROOT
ATOM      1  C   UNL     1       5.217  -1.400  -1.849  0.00  0.00    +0.057 C 
ATOM      2  C   UNL     1       4.843  -2.870  -1.786  0.00  0.00    +0.003 A 
ATOM      3  C   UNL     1       3.568  -3.309  -2.185  0.00  0.00    +0.011 A 
ATOM      4  C   UNL     1       3.189  -4.644  -2.017  0.00  0.00    +0.046 A 
ATOM      5  C   UNL     1       4.090  -5.546  -1.463  0.00  0.00    +0.120 A 
ATOM      6  C   UNL     1       5.367  -5.140  -1.098  0.00  0.00    +0.092 A 
ATOM      7  C   UNL     1       5.742  -3.803  -1.259  0.00  0.00    +0.136 A 
ATOM      8  O   UNL     1       7.012  -3.479  -0.847  0.00  0.00    -0.455 OA
ATOM      9  C   UNL     1       7.494  -2.225  -1.135  0.00  0.00    +0.136 A 
ATOM     10  C   UNL     1       8.839  -1.997  -0.832  0.00  0.00    +0.092 A 
ATOM     11  C   UNL     1       9.396  -0.745  -1.062  0.00  0.00    +0.120 A 
ATOM     12  C   UNL     1       8.652   0.264  -1.657  0.00  0.00    +0.046 A 
ATOM     13  C   UNL     1       7.326   0.016  -2.008  0.00  0.00    +0.011 A 
ATOM     14  C   UNL     1       6.710  -1.206  -1.684  0.00  0.00    +0.003 A 
ENDROOT
BRANCH   5  15
ATOM     15  O   UNL     1       3.748  -6.849  -1.248  0.00  0.00    -0.507 OA
ATOM     16  H   UNL     1       2.810  -6.967  -1.469  0.00  0.00    +0.292 HD
ENDBRANCH   5  15
BRANCH  11  17
ATOM     17  O   UNL     1      10.688  -0.538  -0.681  0.00  0.00    -0.507 OA
ATOM     18  H   UNL     1      10.926   0.386  -0.861  0.00  0.00    +0.292 HD
ENDBRANCH  11  17
BRANCH   1  19
ATOM     19  C   UNL     1       4.422  -0.642  -0.748  0.00  0.00    +0.024 C 
BRANCH  19  20
ATOM     20  C   UNL     1       4.568   0.878  -0.774  0.00  0.00    +0.121 C 
BRANCH  20  21
ATOM     21  C   UNL     1       3.763   1.514   0.325  0.00  0.00    +0.305 C 
ATOM     22  O   UNL     1       2.604   1.870   0.199  0.00  0.00    -0.251 OA
BRANCH  21  23
ATOM     23  O   UNL     1       4.449   1.642   1.484  0.00  0.00    -0.481 OA
ATOM     24  H   UNL     1       5.360   1.291   1.455  0.00  0.00    +0.295 HD
ENDBRANCH  21  23
ENDBRANCH  20  21
ENDBRANCH  19  20
ENDBRANCH   1  19
TORSDOF 6
