REMARK  Name = 
REMARK  7 active torsions:
REMARK  status: ('A' for Active; 'I' for Inactive)
REMARK    1  A    between atoms: C_1  and  O_2
REMARK    2  A    between atoms: O_2  and  C_3
REMARK    3  A    between atoms: C_3  and  C_4
REMARK    4  A    between atoms: C_4  and  O_5
REMARK    5  A    between atoms: O_5  and  C_6
REMARK    6  A    between atoms: N_10  and  S_11
REMARK    7  A    between atoms: S_11  and  C_14
REMARK                            x       y       z     vdW  Elec       q    Type
REMARK                         _______ _______ _______ _____ _____    ______ ____
ROOT
ATOM      1  C   UNL     1       6.309  -1.046  -2.828  0.00  0.00    +0.157 A 
ATOM      2  C   UNL     1       6.936  -2.273  -2.932  0.00  0.00    +0.161 A 
ATOM      3  N   UNL     1       8.269  -2.437  -3.104  0.00  0.00    -0.218 NA
ATOM      4  C   UNL     1       8.976  -1.306  -3.130  0.00  0.00    +0.235 A 
ATOM      5  N   UNL     1      10.326  -1.415  -3.382  0.00  0.00    -0.184 N 
ATOM      6  H   UNL     1      10.653  -1.603  -4.316  0.00  0.00    +0.177 HD
ATOM      7  N   UNL     1       8.494  -0.065  -3.091  0.00  0.00    -0.218 NA
ATOM      8  C   UNL     1       7.161   0.036  -2.918  0.00  0.00    +0.161 A 
ENDROOT
BRANCH   5   9
ATOM      9  S   UNL     1      11.360  -1.429  -2.101  0.00  0.00    +0.075 S 
ATOM     10  O   UNL     1      11.005  -0.396  -1.151  0.00  0.00    -0.150 OA
ATOM     11  O   UNL     1      12.697  -1.491  -2.656  0.00  0.00    -0.150 OA
BRANCH   9  12
ATOM     12  C   UNL     1      11.041  -2.999  -1.325  0.00  0.00    +0.109 A 
ATOM     13  C   UNL     1      10.067  -3.094  -0.327  0.00  0.00    +0.029 A 
ATOM     14  C   UNL     1       9.828  -4.326   0.280  0.00  0.00    +0.002 A 
ATOM     15  C   UNL     1      10.574  -5.446  -0.092  0.00  0.00    +0.000 A 
ATOM     16  C   UNL     1      11.567  -5.338  -1.068  0.00  0.00    +0.002 A 
ATOM     17  C   UNL     1      11.808  -4.112  -1.685  0.00  0.00    +0.029 A 
ENDBRANCH   9  12
ENDBRANCH   5   9
BRANCH   1  18
ATOM     18  O   UNL     1       4.958  -1.025  -2.660  0.00  0.00    -0.487 OA
BRANCH  18  19
ATOM     19  C   UNL     1       4.364   0.276  -2.661  0.00  0.00    +0.257 C 
BRANCH  19  20
ATOM     20  C   UNL     1       2.849   0.165  -2.532  0.00  0.00    +0.200 C 
BRANCH  20  22
ATOM     21  C   UNL     1       0.887   1.474  -2.447  0.00  0.00    +0.194 C 
ATOM     22  O   UNL     1       2.303   1.483  -2.557  0.00  0.00    -0.380 OA
ENDBRANCH  20  22
ENDBRANCH  19  20
ENDBRANCH  18  19
ENDBRANCH   1  18
TORSDOF 6
