REMARK  Name = 
REMARK  5 active torsions:
REMARK  status: ('A' for Active; 'I' for Inactive)
REMARK    1  A    between atoms: C_1  and  C_2
REMARK    2  A    between atoms: C_2  and  N_3
REMARK    3  A    between atoms: N_7  and  S_8
REMARK    4  A    between atoms: S_8  and  C_11
REMARK    5  A    between atoms: C_14  and  N_15
REMARK                            x       y       z     vdW  Elec       q    Type
REMARK                         _______ _______ _______ _____ _____    ______ ____
ROOT
ATOM      1  S   UNL     1       5.157   3.359  -5.328  0.00  0.00    +0.073 S 
ATOM      2  O   UNL     1       6.305   2.556  -4.970  0.00  0.00    -0.150 OA
ATOM      3  O   UNL     1       5.332   4.642  -5.981  0.00  0.00    -0.150 OA
ENDROOT
BRANCH   1   9
ATOM      4  N   UNL     1       3.140   1.173  -1.003  0.00  0.00    -0.299 N 
ATOM      5  C   UNL     1       3.375   0.664  -2.286  0.00  0.00    +0.350 A 
ATOM      6  O   UNL     1       3.206  -0.527  -2.546  0.00  0.00    -0.244 OA
ATOM      7  N   UNL     1       3.781   1.538  -3.262  0.00  0.00    -0.177 NA
ATOM      8  C   UNL     1       3.936   2.770  -2.960  0.00  0.00    +0.145 A 
ATOM      9  N   UNL     1       4.295   3.704  -3.938  0.00  0.00    -0.199 N 
ATOM     10  H   UNL     1       4.203   4.703  -3.796  0.00  0.00    +0.175 HD
ATOM     11  C   UNL     1       3.760   3.363  -1.629  0.00  0.00    +0.063 A 
ATOM     12  C   UNL     1       3.368   2.497  -0.693  0.00  0.00    +0.094 A 
BRANCH   4  14
ATOM     13  C   UNL     1       3.814  -0.503   0.690  0.00  0.00    +0.027 C 
ATOM     14  C   UNL     1       2.672   0.255   0.031  0.00  0.00    +0.123 C 
ENDBRANCH   4  14
ENDBRANCH   1   9
BRANCH   1  15
ATOM     15  C   UNL     1       4.042   2.399  -6.313  0.00  0.00    +0.109 A 
ATOM     16  C   UNL     1       4.089   1.005  -6.251  0.00  0.00    +0.030 A 
ATOM     17  C   UNL     1       3.207   0.248  -7.026  0.00  0.00    +0.024 A 
ATOM     18  C   UNL     1       2.270   0.871  -7.853  0.00  0.00    +0.025 A 
ATOM     19  C   UNL     1       2.306   2.263  -7.983  0.00  0.00    +0.024 A 
ATOM     20  C   UNL     1       3.175   3.033  -7.204  0.00  0.00    +0.030 A 
BRANCH  18  21
ATOM     21  N   UNL     1       1.469   0.103  -8.708  0.00  0.00    -0.358 N 
ATOM     22  H   UNL     1       1.277  -0.828  -8.349  0.00  0.00    +0.142 HD
ATOM     23  H   UNL     1       0.625   0.576  -9.011  0.00  0.00    +0.142 HD
ENDBRANCH  18  21
ENDBRANCH   1  15
TORSDOF 4
