REMARK  Name = 
REMARK  6 active torsions:
REMARK  status: ('A' for Active; 'I' for Inactive)
REMARK    1  A    between atoms: CG1_1  and  CB_2
REMARK    2  A    between atoms: CB_2  and  CG2_3
REMARK    3  A    between atoms: CB_2  and  CA_4
REMARK    4  A    between atoms: CA_4  and  N_6
REMARK    5  A    between atoms: CA_4  and  C_10
REMARK    6  A    between atoms: C_10  and  O_11
REMARK                            x       y       z     vdW  Elec       q    Type
REMARK                         _______ _______ _______ _____ _____    ______ ____
ROOT
ATOM      1  CA  VAL A   1       2.995  -1.148  -0.387  0.00  0.00    +0.185 C 
ENDROOT
BRANCH   1   2
ATOM      2  N   VAL A   1       2.386  -1.540  -1.663  0.00  0.00    -0.286 N 
ATOM      3  H   VAL A   1       1.623  -2.200  -1.630  0.00  0.00    +0.151 HD
ATOM      4  C   UNK A   0       2.559  -0.860  -2.822  0.00  0.00    +0.298 C 
ATOM      5  O   UNK A   0       3.297   0.109  -2.939  0.00  0.00    -0.253 OA
ATOM      6  N   UNK A   0       1.861  -1.377  -3.855  0.00  0.00    -0.313 N 
ATOM      7  H   UNK A   0       2.082  -0.961  -4.752  0.00  0.00    +0.146 HD
ATOM      8  H   UNK A   0       1.730  -2.379  -3.883  0.00  0.00    +0.146 HD
ENDBRANCH   1   2
BRANCH   1  10
ATOM      9  CG1 VAL A   1       1.100   0.451   0.216  0.00  0.00    +0.009 C 
ATOM     10  CB  VAL A   1       2.619   0.272   0.109  0.00  0.00    +0.014 C 
ATOM     11  CG2 VAL A   1       3.247   0.569   1.478  0.00  0.00    +0.009 C 
ENDBRANCH   1  10
BRANCH   1  12
ATOM     12  C   VAL A   1       4.516  -1.372  -0.440  0.00  0.00    +0.326 C 
ATOM     13  OXT VAL A   1       5.094  -2.190   0.269  0.00  0.00    -0.249 OA
BRANCH  12  14
ATOM     14  O   VAL A   1       5.186  -0.587  -1.313  0.00  0.00    -0.479 OA
ATOM     15  H   VAL A   1       4.584  -0.052  -1.889  0.00  0.00    +0.295 HD
ENDBRANCH  12  14
ENDBRANCH   1  12
TORSDOF 4
