REMARK  Name = 
REMARK  9 active torsions:
REMARK  status: ('A' for Active; 'I' for Inactive)
REMARK    1  A    between atoms: N_12  and  C_13
REMARK    2  A    between atoms: C_13  and  C_14
REMARK    3  A    between atoms: C_20  and  O_21
REMARK    4  A    between atoms: O_21  and  C_22
REMARK    5  A    between atoms: C_23  and  C_25
REMARK    6  A    between atoms: C_25  and  C_26
REMARK    7  A    between atoms: C_25  and  C_27
REMARK    8  A    between atoms: C_25  and  O_28
REMARK    9  A    between atoms: C_29  and  O_30
REMARK                            x       y       z     vdW  Elec       q    Type
REMARK                         _______ _______ _______ _____ _____    ______ ____
ROOT
ATOM      1  C   UNL     1      -0.000  -0.000  -0.000  0.00  0.00    +0.068 C 
ATOM      2  C   UNL     1      -0.000  -0.000   0.000  0.00  0.00    +0.000 C 
ATOM      3  C   UNL     1      -0.000  -0.000  -0.000  0.00  0.00    +0.018 C 
ATOM      4  C   UNL     1      -0.000  -0.000  -0.000  0.00  0.00    +0.056 C 
ATOM      5  C   UNL     1      -0.000  -0.000  -0.000  0.00  0.00    +0.112 C 
ATOM      6  C   UNL     1      -0.000  -0.000   0.000  0.00  0.00    +0.217 C 
ATOM      7  O   UNL     1      -0.000  -0.000  -0.000  0.00  0.00    -0.481 OA
ATOM      8  C   UNL     1      -0.000  -0.000  -0.000  0.00  0.00    +0.166 A 
ATOM      9  C   UNL     1      -0.000  -0.000  -0.000  0.00  0.00    +0.159 A 
ATOM     10  C   UNL     1      -0.000  -0.000  -0.000  0.00  0.00    +0.049 A 
ATOM     11  C   UNL     1      -0.000  -0.000  -0.000  0.00  0.00    +0.008 A 
ATOM     12  C   UNL     1      -0.000  -0.000  -0.000  0.00  0.00    -0.038 A 
ATOM     13  C   UNL     1      -0.000  -0.000  -0.000  0.00  0.00    +0.012 A 
ATOM     14  C   UNL     1      -0.000  -0.000  -0.000  0.00  0.00    +0.040 C 
ATOM     15  C   UNL     1      -0.000  -0.000   0.000  0.00  0.00    +0.012 C 
ATOM     16  C   UNL     1      -0.000  -0.000  -0.000  0.00  0.00    +0.047 C 
ATOM     17  C   UNL     1      -0.000  -0.000  -0.000  0.00  0.00    +0.031 C 
ATOM     18  C   UNL     1      -0.000  -0.000  -0.000  0.00  0.00    +0.086 C 
ATOM     19  N   UNL     1      -0.000  -0.000  -0.000  0.00  0.00    -0.298 NA
ATOM     20  C   UNL     1      -0.000  -0.000  -0.000  0.00  0.00    +0.055 C 
ENDROOT
BRANCH   4  21
ATOM     21  C   UNL     1      -0.000  -0.000  -0.000  0.00  0.00    +0.066 C 
ATOM     22  C   UNL     1      -0.000  -0.000  -0.000  0.00  0.00    +0.041 C 
ATOM     23  C   UNL     1      -0.000  -0.000  -0.000  0.00  0.00    +0.041 C 
BRANCH  21  24
ATOM     24  O   UNL     1      -0.000  -0.000  -0.000  0.00  0.00    -0.389 OA
ATOM     25  H   UNL     1      -0.000  -0.000  -0.000  0.00  0.00    +0.210 HD
ENDBRANCH  21  24
ENDBRANCH   4  21
BRANCH   5  26
ATOM     26  O   UNL     1      -0.000  -0.000  -0.000  0.00  0.00    -0.373 OA
ATOM     27  C   UNL     1      -0.000  -0.000  -0.000  0.00  0.00    +0.194 C 
ENDBRANCH   5  26
BRANCH   9  28
ATOM     28  O   UNL     1      -0.000  -0.000  -0.000  0.00  0.00    -0.503 OA
ATOM     29  H   UNL     1       0.000   0.000   0.000  0.00  0.00    +0.292 HD
ENDBRANCH   9  28
BRANCH  19  30
ATOM     30  C   UNL     1      -0.000  -0.000   0.000  0.00  0.00    +0.088 C 
BRANCH  30  31
ATOM     31  C   UNL     1      -0.000  -0.000  -0.000  0.00  0.00    +0.003 C 
ATOM     32  C   UNL     1      -0.000  -0.000   0.000  0.00  0.00    +0.005 C 
ATOM     33  C   UNL     1      -0.000  -0.000   0.000  0.00  0.00    +0.005 C 
ENDBRANCH  30  31
ENDBRANCH  19  30
TORSDOF 6
