REMARK  Name = 
REMARK  8 active torsions:
REMARK  status: ('A' for Active; 'I' for Inactive)
REMARK    1  A    between atoms: C_1  and  C_2
REMARK    2  A    between atoms: C_2  and  C_3
REMARK    3  A    between atoms: C_3  and  C_4
REMARK    4  A    between atoms: C_4  and  C_5
REMARK    5  A    between atoms: C_7  and  N_8
REMARK    6  A    between atoms: C_10  and  C_11
REMARK    7  A    between atoms: C_11  and  C_12
REMARK    8  A    between atoms: C_12  and  C_13
REMARK                            x       y       z     vdW  Elec       q    Type
REMARK                         _______ _______ _______ _____ _____    ______ ____
ROOT
ATOM      1  C   UNL     1       5.009   2.567  -1.757  0.00  0.00    +0.000 A 
ATOM      2  C   UNL     1       5.832   2.338  -2.870  0.00  0.00    +0.000 A 
ATOM      3 SE   UNL     1       6.201   3.867  -3.791  0.00  0.00    +0.000 Se
ATOM      4  C   UNL     1       5.188   4.669  -2.528  0.00  0.00    +0.000 A 
ATOM      5  N   UNL     1       4.667   3.859  -1.593  0.00  0.00    +0.000 NA
ENDROOT
BRANCH   4   6
ATOM      6  N   UNL     1       4.970   6.064  -2.507  0.00  0.00    +0.000 N 
ATOM      7  H   UNL     1       5.391   6.666  -3.228  0.00  0.00    +0.000 HD
ATOM      8  H   UNL     1       4.400   6.491  -1.763  0.00  0.00    +0.000 HD
ENDBRANCH   4   6
BRANCH   1   9
ATOM      9  C   UNL     1       4.502   1.548  -0.761  0.00  0.00    +0.000 C 
BRANCH   9  10
ATOM     10  C   UNL     1       5.605   0.840   0.038  0.00  0.00    +0.000 C 
BRANCH  10  12
ATOM     11  C   UNL     1       7.581   1.094   1.589  0.00  0.00    +0.000 C 
ATOM     12  C   UNL     1       6.491   1.827   0.813  0.00  0.00    +0.000 C 
ENDBRANCH  10  12
ENDBRANCH   9  10
ENDBRANCH   1   9
BRANCH   2  13
ATOM     13  C   UNL     1       6.438   1.035  -3.342  0.00  0.00    +0.000 C 
BRANCH  13  14
ATOM     14  C   UNL     1       5.427  -0.043  -3.755  0.00  0.00    +0.000 C 
ATOM     15  C   UNL     1       4.511   0.415  -4.889  0.00  0.00    +0.000 C 
ENDBRANCH  13  14
ENDBRANCH   2  13
TORSDOF 6
