REMARK  Name = 
REMARK  7 active torsions:
REMARK  status: ('A' for Active; 'I' for Inactive)
REMARK    1  A    between atoms: C_2  and  C_4
REMARK    2  A    between atoms: N_7  and  C_12
REMARK    3  A    between atoms: C_15  and  C_17
REMARK    4  A    between atoms: C_17  and  O_18
REMARK    5  A    between atoms: O_18  and  P_19
REMARK    6  A    between atoms: C_23  and  O_25
REMARK    7  A    between atoms: C_26  and  O_28
REMARK                            x       y       z     vdW  Elec       q    Type
REMARK                         _______ _______ _______ _____ _____    ______ ____
ROOT
ATOM      1  C   UNL     1       5.387   1.115   4.339  0.00  0.00    +0.242 C 
ATOM      2  C   UNL     1       4.990  -0.316   4.791  0.00  0.00    +0.193 C 
ATOM      3  C   UNL     1       4.882  -0.223   6.318  0.00  0.00    +0.178 C 
ATOM      4  C   UNL     1       5.092   1.263   6.610  0.00  0.00    +0.178 C 
ATOM      5  O   UNL     1       4.811   1.930   5.376  0.00  0.00    -0.348 OA
ENDROOT
BRANCH   1  11
ATOM      6  C   UNL     1       8.853   2.248   4.273  0.00  0.00    +0.213 C 
ATOM      7  N   UNL     1       9.044   0.836   4.291  0.00  0.00    -0.380 NA
ATOM      8  H   UNL     1       9.818   0.575   3.685  0.00  0.00    +0.374 HD
ATOM      9  H   UNL     1       9.226   0.573   5.259  0.00  0.00    +0.374 HD
ATOM     10  C   UNL     1       7.729   0.261   3.904  0.00  0.00    +0.402 C 
ATOM     11  N   UNL     1       6.834   1.337   4.189  0.00  0.00    -0.258 N 
ATOM     12  C   UNL     1       7.549   2.533   4.138  0.00  0.00    +0.031 C 
ATOM     13  O   UNL     1       6.889   3.572   3.970  0.00  0.00    -0.859 OA
BRANCH   6  17
ATOM     14  N   UNL     1       9.810   4.378   4.849  0.00  0.00    -0.321 N 
ATOM     15  H   UNL     1       8.833   4.668   4.970  0.00  0.00    +0.145 HD
ATOM     16  H   UNL     1      10.551   5.037   5.017  0.00  0.00    +0.145 HD
ATOM     17  C   UNL     1      10.050   3.117   4.404  0.00  0.00    +0.300 C 
ATOM     18  O   UNL     1      11.174   2.660   4.204  0.00  0.00    -0.264 OA
ENDBRANCH   6  17
ENDBRANCH   1  11
BRANCH   2  19
ATOM     19  O   UNL     1       3.728  -0.696   4.207  0.00  0.00    -0.385 OA
ATOM     20  H   UNL     1       3.067  -0.088   4.589  0.00  0.00    +0.210 HD
ENDBRANCH   2  19
BRANCH   3  21
ATOM     21  O   UNL     1       5.886  -1.018   6.965  0.00  0.00    -0.386 OA
ATOM     22  H   UNL     1       5.710  -0.846   7.926  0.00  0.00    +0.210 HD
ENDBRANCH   3  21
BRANCH   4  23
ATOM     23  C   UNL     1       4.226   1.747   7.760  0.00  0.00    +0.198 C 
BRANCH  23  24
ATOM     24  O   UNL     1       4.554   0.956   8.887  0.00  0.00    -0.365 OA
BRANCH  24  25
ATOM     25  P   UNL     1       3.684   1.260  10.241  0.00  0.00    -0.015 P 
ATOM     26  O   UNL     1       4.011   2.711  10.560  0.00  0.00    -0.638 OA
ATOM     27  O   UNL     1       4.242   0.245  11.223  0.00  0.00    -0.577 OA
ATOM     28  O   UNL     1       2.253   1.002   9.799  0.00  0.00    -0.577 OA
ENDBRANCH  24  25
ENDBRANCH  23  24
ENDBRANCH   4  23
TORSDOF 7
