REMARK  Name = 
REMARK  4 active torsions:
REMARK  status: ('A' for Active; 'I' for Inactive)
REMARK    1  A    between atoms: O_1  and  C_2
REMARK    2  A    between atoms: C_2  and  C_3
REMARK    3  A    between atoms: C_3  and  C_5
REMARK    4  A    between atoms: C_5  and  O_6
REMARK                            x       y       z     vdW  Elec       q    Type
REMARK                         _______ _______ _______ _____ _____    ______ ____
ROOT
ATOM      1  C   UNL     1       2.863   0.734  -1.191  0.00  0.00    +0.184 C 
ATOM      2  O   UNL     1       2.128   1.112  -2.109  0.00  0.00    -0.293 OA
ENDROOT
BRANCH   1   3
ATOM      3  C   UNL     1       2.327  -0.021   0.015  0.00  0.00    +0.232 C 
BRANCH   3   4
ATOM      4  O   UNL     1       2.802   0.514   1.236  0.00  0.00    -0.387 OA
ATOM      5  H   UNL     1       2.172   0.251   1.930  0.00  0.00    +0.210 HD
ENDBRANCH   3   4
ENDBRANCH   1   3
BRANCH   1   6
ATOM      6  C   UNL     1       4.371   0.921  -1.269  0.00  0.00    +0.232 C 
BRANCH   6   7
ATOM      7  O   UNL     1       4.761   1.594  -2.460  0.00  0.00    -0.387 OA
ATOM      8  H   UNL     1       3.945   1.715  -2.987  0.00  0.00    +0.210 HD
ENDBRANCH   6   7
ENDBRANCH   1   6
TORSDOF 4
