REMARK  Name = 
REMARK  4 active torsions:
REMARK  status: ('A' for Active; 'I' for Inactive)
REMARK    1  A    between atoms: C_5  and  O_6
REMARK    2  A    between atoms: C_5  and  C_7
REMARK    3  A    between atoms: C_9  and  C_10
REMARK    4  A    between atoms: C_24  and  C_25
REMARK                            x       y       z     vdW  Elec       q    Type
REMARK                         _______ _______ _______ _____ _____    ______ ____
ROOT
ATOM      1  C   UNL     1      -0.000  -0.000   0.000  0.00  0.00    +0.002 C 
ATOM      2  C   UNL     1      -0.000  -0.000  -0.000  0.00  0.00    -0.003 C 
ATOM      3  C   UNL     1      -0.000  -0.000  -0.000  0.00  0.00    +0.008 C 
ATOM      4  C   UNL     1      -0.000  -0.000   0.000  0.00  0.00    +0.032 C 
ATOM      5  C   UNL     1      -0.000  -0.000   0.000  0.00  0.00    -0.059 C 
ATOM      6  C   UNL     1      -0.000  -0.000   0.000  0.00  0.00    -0.003 C 
ATOM      7  C   UNL     1      -0.000  -0.000   0.000  0.00  0.00    +0.016 C 
ATOM      8  C   UNL     1       0.000  -0.000   0.000  0.00  0.00    +0.051 C 
ATOM      9  C   UNL     1      -0.000  -0.000  -0.000  0.00  0.00    +0.019 A 
ATOM     10  C   UNL     1      -0.000  -0.000  -0.000  0.00  0.00    +0.160 A 
ATOM     11  N   UNL     1      -0.000  -0.000   0.000  0.00  0.00    -0.086 NA
ATOM     12  O   UNL     1      -0.000  -0.000   0.000  0.00  0.00    -0.355 OA
ATOM     13  C   UNL     1      -0.000  -0.000   0.000  0.00  0.00    +0.163 A 
ATOM     14  C   UNL     1      -0.000  -0.000   0.000  0.00  0.00    +0.049 C 
ATOM     15  C   UNL     1      -0.000  -0.000   0.000  0.00  0.00    +0.003 C 
ATOM     16  C   UNL     1      -0.000  -0.000   0.000  0.00  0.00    +0.005 C 
ATOM     17  C   UNL     1      -0.000  -0.000   0.000  0.00  0.00    +0.011 C 
ATOM     18  C   UNL     1      -0.000  -0.000   0.000  0.00  0.00    +0.011 C 
ATOM     19  C   UNL     1      -0.000  -0.000   0.000  0.00  0.00    +0.015 C 
ATOM     20  C   UNL     1      -0.000  -0.000   0.000  0.00  0.00    +0.132 C 
ATOM     21  C   UNL     1      -0.000  -0.000   0.000  0.00  0.00    +0.049 C 
ATOM     22  C   UNL     1      -0.000  -0.000   0.000  0.00  0.00    +0.008 C 
ENDROOT
BRANCH  20  23
ATOM     23  O   UNL     1      -0.000  -0.000   0.000  0.00  0.00    -0.376 OA
ATOM     24  H   UNL     1       0.000   0.000   0.000  0.00  0.00    +0.211 HD
ENDBRANCH  20  23
BRANCH  20  25
ATOM     25  C   UNL     1      -0.000  -0.000   0.000  0.00  0.00    -0.070 C 
ATOM     26  C   UNL     1      -0.000  -0.000   0.000  0.00  0.00    +0.007 C 
ENDBRANCH  20  25
TORSDOF 2
