REMARK  Name = 
REMARK  5 active torsions:
REMARK  status: ('A' for Active; 'I' for Inactive)
REMARK    1  A    between atoms: C_1  and  C_2
REMARK    2  A    between atoms: C_2  and  C_3
REMARK    3  A    between atoms: C_2  and  N_4
REMARK    4  A    between atoms: C_5  and  N_7
REMARK    5  A    between atoms: N_10  and  C_11
REMARK                            x       y       z     vdW  Elec       q    Type
REMARK                         _______ _______ _______ _____ _____    ______ ____
ROOT
ATOM      1  N   UNL     1       4.985   2.445   1.130  0.00  0.00    -0.003 NA
ATOM      2  C   UNL     1       6.212   2.827   0.955  0.00  0.00    +0.394 C 
ATOM      3  N   UNL     1       6.724   4.043   1.338  0.00  0.00    -0.243 N 
ATOM      4  H   UNL     1       7.682   4.021   1.652  0.00  0.00    +0.265 HD
ATOM      5  N   UNL     1       7.189   2.087   0.354  0.00  0.00    -0.288 N 
ATOM      6  H   UNL     1       8.159   2.325   0.478  0.00  0.00    +0.255 HD
ATOM      7  H   UNL     1       6.979   1.086   0.376  0.00  0.00    +0.255 HD
ENDROOT
BRANCH   3   8
ATOM      8  C   UNL     1       6.000   5.195   1.695  0.00  0.00    +0.100 A 
ATOM      9  C   UNL     1       4.797   5.538   1.073  0.00  0.00    +0.043 A 
ATOM     10  C   UNL     1       4.090   6.686   1.455  0.00  0.00    +0.023 A 
ATOM     11  C   UNL     1       4.573   7.480   2.491  0.00  0.00    +0.041 A 
ATOM     12 CL   UNL     1       3.683   8.863   2.997  0.00  0.00    -0.084 Cl
ATOM     13  C   UNL     1       5.771   7.157   3.125  0.00  0.00    +0.023 A 
ATOM     14  C   UNL     1       6.481   6.021   2.723  0.00  0.00    +0.043 A 
ENDBRANCH   3   8
BRANCH   1  16
ATOM     15  N   UNL     1       5.338   0.230   0.692  0.00  0.00    -0.108 NA
ATOM     16  C   UNL     1       4.530   1.232   0.706  0.00  0.00    +0.425 C 
ATOM     17  N   UNL     1       3.212   1.209   0.371  0.00  0.00    -0.286 N 
ATOM     18  H   UNL     1       2.689   1.877   0.924  0.00  0.00    +0.255 HD
ATOM     19  H   UNL     1       2.781   0.300   0.338  0.00  0.00    +0.255 HD
BRANCH  15  21
ATOM     20  C   UNL     1       6.091  -1.798  -0.373  0.00  0.00    +0.051 C 
ATOM     21  C   UNL     1       4.886  -1.082   0.230  0.00  0.00    +0.182 C 
ATOM     22  C   UNL     1       4.333  -1.872   1.412  0.00  0.00    +0.051 C 
ENDBRANCH  15  21
ENDBRANCH   1  16
TORSDOF 3
