REMARK  Name = 
REMARK  8 active torsions:
REMARK  status: ('A' for Active; 'I' for Inactive)
REMARK    1  A    between atoms: C_1  and  C_2
REMARK    2  A    between atoms: C_2  and  C_3
REMARK    3  A    between atoms: C_3  and  C_4
REMARK    4  A    between atoms: C_4  and  N_5
REMARK    5  A    between atoms: C_10  and  C_12
REMARK    6  A    between atoms: N_14  and  C_15
REMARK    7  A    between atoms: C_16  and  C_17
REMARK    8  A    between atoms: C_21  and  C_22
REMARK                            x       y       z     vdW  Elec       q    Type
REMARK                         _______ _______ _______ _____ _____    ______ ____
ROOT
ATOM      1  C   UNL     1       3.712   4.458  -0.621  0.00  0.00    +0.234 C 
ATOM      2  N   UNL     1       3.535   5.121   0.586  0.00  0.00    -0.284 N 
ATOM      3  H   UNL     1       3.711   4.529   1.385  0.00  0.00    +0.155 HD
ATOM      4  O   UNL     1       2.979   4.614  -1.597  0.00  0.00    -0.274 OA
ENDROOT
BRANCH   2   5
ATOM      5  C   UNL     1       2.620   6.204   0.727  0.00  0.00    +0.039 A 
ATOM      6  C   UNL     1       2.802   7.404  -0.011  0.00  0.00    -0.029 A 
ATOM      7  C   UNL     1       3.924   7.605  -0.996  0.00  0.00    +0.045 C 
ATOM      8  C   UNL     1       1.929   8.491   0.198  0.00  0.00    +0.005 A 
ATOM      9  C   UNL     1       0.897   8.409   1.125  0.00  0.00    +0.001 A 
ATOM     10  C   UNL     1       0.727   7.232   1.851  0.00  0.00    +0.005 A 
ATOM     11  C   UNL     1       1.578   6.128   1.674  0.00  0.00    -0.029 A 
ATOM     12  C   UNL     1       1.212   4.881   2.426  0.00  0.00    +0.045 C 
ENDBRANCH   2   5
BRANCH   1  14
ATOM     13  N   UNL     1       5.058   2.497   0.356  0.00  0.00    -0.291 NA
ATOM     14  C   UNL     1       4.979   3.577  -0.682  0.00  0.00    +0.143 C 
ATOM     15  C   UNL     1       5.202   3.042  -2.113  0.00  0.00    +0.028 C 
ATOM     16  C   UNL     1       6.503   2.255  -2.248  0.00  0.00    +0.003 C 
ATOM     17  C   UNL     1       6.745   1.288  -1.091  0.00  0.00    +0.015 C 
ATOM     18  C   UNL     1       6.427   1.925   0.268  0.00  0.00    +0.085 C 
BRANCH  13  19
ATOM     19  C   UNL     1       4.021   1.450   0.185  0.00  0.00    +0.085 C 
BRANCH  19  20
ATOM     20  C   UNL     1       4.092   0.267   1.177  0.00  0.00    +0.015 C 
BRANCH  20  22
ATOM     21  C   UNL     1       3.877  -0.503   3.572  0.00  0.00    +0.004 C 
ATOM     22  C   UNL     1       3.856   0.689   2.625  0.00  0.00    -0.002 C 
ENDBRANCH  20  22
ENDBRANCH  19  20
ENDBRANCH  13  19
ENDBRANCH   1  14
TORSDOF 5
