REMARK  Name = 
REMARK  15 active torsions:
REMARK  status: ('A' for Active; 'I' for Inactive)
REMARK    1  A    between atoms: C_1  and  C_2
REMARK    2  A    between atoms: C_2  and  C_3
REMARK    3  A    between atoms: C_3  and  C_5
REMARK    4  A    between atoms: C_3  and  N_9
REMARK    5  A    between atoms: C_5  and  C_7
REMARK    6  A    between atoms: C_5  and  O_8
REMARK    7  A    between atoms: N_12  and  C_15
REMARK    8  A    between atoms: C_18  and  N_21
REMARK    9  A    between atoms: N_24  and  C_27
REMARK   10  A    between atoms: C_30  and  O_31
REMARK   11  A    between atoms: O_31  and  C_32
REMARK   12  A    between atoms: C_32  and  C_33
REMARK   13  A    between atoms: C_36  and  C_37
REMARK   14  A    between atoms: C_36  and  C_44
REMARK   15  A    between atoms: C_37  and  N_38
REMARK                            x       y       z     vdW  Elec       q    Type
REMARK                         _______ _______ _______ _____ _____    ______ ____
ROOT
ATOM      1  C   UNL     1      -2.504  11.028   2.052  0.00  0.00    +0.030 A 
ATOM      2  C   UNL     1      -2.377  11.563   3.346  0.00  0.00    +0.027 A 
ATOM      3  C   UNL     1      -3.071  12.722   3.726  0.00  0.00    +0.047 A 
ATOM      4  C   UNL     1      -3.914  13.362   2.821  0.00  0.00    +0.121 A 
ATOM      5  C   UNL     1      -4.076  12.813   1.555  0.00  0.00    +0.047 A 
ATOM      6  C   UNL     1      -3.385  11.665   1.183  0.00  0.00    +0.027 A 
ENDROOT
BRANCH   1  10
ATOM      7  N   UNL     1       0.412   8.248   0.964  0.00  0.00    -0.327 N 
ATOM      8  C   UNL     1       0.009   8.410   2.378  0.00  0.00    +0.124 C 
ATOM      9  C   UNL     1      -1.484   8.794   2.477  0.00  0.00    +0.124 C 
ATOM     10  N   UNL     1      -1.758   9.957   1.624  0.00  0.00    -0.327 N 
ATOM     11  C   UNL     1      -1.405   9.764   0.206  0.00  0.00    +0.124 C 
ATOM     12  C   UNL     1       0.087   9.389   0.092  0.00  0.00    +0.124 C 
BRANCH   7  16
ATOM     13  C   UNL     1       2.256   4.662  -0.349  0.00  0.00    +0.053 A 
ATOM     14  C   UNL     1       1.454   5.429  -1.207  0.00  0.00    +0.028 A 
ATOM     15  C   UNL     1       0.864   6.627  -0.779  0.00  0.00    +0.025 A 
ATOM     16  C   UNL     1       1.043   7.112   0.516  0.00  0.00    +0.030 A 
ATOM     17  C   UNL     1       1.880   6.363   1.350  0.00  0.00    +0.025 A 
ATOM     18  C   UNL     1       2.474   5.163   0.933  0.00  0.00    +0.028 A 
BRANCH  13  22
ATOM     19  N   UNL     1       3.788   1.443  -0.912  0.00  0.00    -0.207 N 
ATOM     20  C   UNL     1       3.556   2.521  -0.034  0.00  0.00    +0.351 A 
ATOM     21  O   UNL     1       3.949   2.594   1.121  0.00  0.00    -0.244 OA
ATOM     22  N   UNL     1       2.800   3.427  -0.767  0.00  0.00    -0.250 N 
ATOM     23  C   UNL     1       2.660   2.858  -1.980  0.00  0.00    +0.230 A 
ATOM     24  N   UNL     1       3.221   1.705  -2.133  0.00  0.00    -0.157 NA
BRANCH  19  25
ATOM     25  C   UNL     1       4.533   0.204  -0.633  0.00  0.00    +0.140 C 
BRANCH  25  27
ATOM     26  C   UNL     1       4.599  -1.840   0.977  0.00  0.00    +0.006 C 
ATOM     27  C   UNL     1       3.862  -0.587   0.519  0.00  0.00    +0.026 C 
ENDBRANCH  25  27
BRANCH  25  28
ATOM     28  C   UNL     1       4.788  -0.621  -1.932  0.00  0.00    +0.136 C 
ATOM     29  C   UNL     1       3.541  -1.272  -2.537  0.00  0.00    +0.040 C 
BRANCH  28  30
ATOM     30  O   UNL     1       5.769  -1.639  -1.699  0.00  0.00    -0.390 OA
ATOM     31  H   UNL     1       5.808  -2.196  -2.495  0.00  0.00    +0.210 HD
ENDBRANCH  28  30
ENDBRANCH  25  28
ENDBRANCH  19  25
ENDBRANCH  13  22
ENDBRANCH   7  16
ENDBRANCH   1  10
BRANCH   4  32
ATOM     32  O   UNL     1      -4.538  14.502   3.256  0.00  0.00    -0.492 OA
BRANCH  32  33
ATOM     33  C   UNL     1      -5.339  15.133   2.253  0.00  0.00    +0.235 C 
BRANCH  33  34
ATOM     34  C   UNL     1      -6.059  16.330   2.830  0.00  0.00    +0.055 C 
ATOM     35  C   UNL     1      -7.062  15.946   3.905  0.00  0.00    +0.051 C 
ATOM     36  C   UNL     1      -8.292  16.850   3.659  0.00  0.00    +0.117 C 
ATOM     37  O   UNL     1      -7.905  17.706   2.546  0.00  0.00    -0.366 OA
ATOM     38  C   UNL     1      -6.904  17.021   1.790  0.00  0.00    +0.168 C 
BRANCH  36  39
ATOM     39  C   UNL     1      -9.517  16.016   3.269  0.00  0.00    +0.021 A 
ATOM     40  C   UNL     1     -10.105  16.097   1.991  0.00  0.00    +0.012 A 
ATOM     41  C   UNL     1     -11.168  15.263   1.635  0.00  0.00    +0.039 A 
ATOM     42  C   UNL     1     -11.679  14.367   2.565  0.00  0.00    +0.126 A 
ATOM     43  F   UNL     1     -12.686  13.558   2.214  0.00  0.00    -0.205 F 
ATOM     44  C   UNL     1     -11.154  14.293   3.845  0.00  0.00    +0.077 A 
ATOM     45  C   UNL     1     -10.078  15.109   4.182  0.00  0.00    +0.132 A 
ATOM     46  F   UNL     1      -9.551  14.990   5.409  0.00  0.00    -0.205 F 
ENDBRANCH  36  39
BRANCH  36  47
ATOM     47  C   UNL     1      -8.507  17.741   4.897  0.00  0.00    +0.185 C 
BRANCH  47  48
ATOM     48  N   UNL     1      -9.641  18.628   4.790  0.00  0.00    -0.249 N 
ATOM     49  N   UNL     1     -10.728  18.453   5.564  0.00  0.00    -0.158 NA
ATOM     50  C   UNL     1     -11.475  19.496   5.198  0.00  0.00    +0.244 A 
ATOM     51  N   UNL     1     -10.915  20.318   4.261  0.00  0.00    -0.223 NA
ATOM     52  C   UNL     1      -9.754  19.748   4.030  0.00  0.00    +0.219 A 
ENDBRANCH  47  48
ENDBRANCH  36  47
ENDBRANCH  33  34
ENDBRANCH  32  33
ENDBRANCH   4  32
TORSDOF 13
