REMARK  Name = 
REMARK  5 active torsions:
REMARK  status: ('A' for Active; 'I' for Inactive)
REMARK    1  A    between atoms: C_5  and  O_6
REMARK    2  A    between atoms: O_6  and  C_7
REMARK    3  A    between atoms: C_7  and  C_8
REMARK    4  A    between atoms: N_21  and  C_22
REMARK    5  A    between atoms: C_30  and  O_32
REMARK                            x       y       z     vdW  Elec       q    Type
REMARK                         _______ _______ _______ _____ _____    ______ ____
ROOT
ATOM      1  C   UNL     1      -0.000  -0.000  -0.000  0.00  0.00    +0.217 C 
ATOM      2  C   UNL     1      -0.000  -0.000   0.000  0.00  0.00    +0.178 C 
ATOM      3  C   UNL     1      -0.000  -0.000   0.000  0.00  0.00    +0.004 C 
ATOM      4  C   UNL     1      -0.000  -0.000  -0.000  0.00  0.00    -0.023 C 
ATOM      5  C   UNL     1      -0.000  -0.000   0.000  0.00  0.00    +0.043 C 
ATOM      6  C   UNL     1      -0.000  -0.000  -0.000  0.00  0.00    +0.068 C 
ATOM      7  C   UNL     1      -0.000  -0.000  -0.000  0.00  0.00    +0.055 C 
ATOM      8  C   UNL     1      -0.000  -0.000   0.000  0.00  0.00    -0.038 A 
ATOM      9  C   UNL     1      -0.000  -0.000   0.000  0.00  0.00    +0.012 A 
ATOM     10  C   UNL     1      -0.000  -0.000   0.000  0.00  0.00    +0.167 A 
ATOM     11  C   UNL     1      -0.000  -0.000   0.000  0.00  0.00    +0.163 A 
ATOM     12  C   UNL     1      -0.000  -0.000   0.000  0.00  0.00    +0.050 A 
ATOM     13  C   UNL     1      -0.000  -0.000   0.000  0.00  0.00    +0.008 A 
ATOM     14  N   UNL     1      -0.000  -0.000   0.000  0.00  0.00    -0.301 NA
ATOM     15  C   UNL     1      -0.000  -0.000   0.000  0.00  0.00    +0.105 C 
ATOM     16  C   UNL     1      -0.000  -0.000   0.000  0.00  0.00    +0.085 C 
ATOM     17  C   UNL     1      -0.000  -0.000   0.000  0.00  0.00    +0.031 C 
ATOM     18  C   UNL     1      -0.000  -0.000   0.000  0.00  0.00    +0.048 C 
ATOM     19  O   UNL     1      -0.000  -0.000   0.000  0.00  0.00    -0.481 OA
ENDROOT
BRANCH   2  20
ATOM     20  O   UNL     1      -0.000  -0.000  -0.000  0.00  0.00    -0.384 OA
ATOM     21  H   UNL     1       0.000   0.000   0.000  0.00  0.00    +0.210 HD
ENDBRANCH   2  20
BRANCH  11  22
ATOM     22  O   UNL     1      -0.000  -0.000   0.000  0.00  0.00    -0.484 OA
BRANCH  22  23
ATOM     23  C   UNL     1      -0.000  -0.000  -0.000  0.00  0.00    +0.264 C 
BRANCH  23  24
ATOM     24  C   UNL     1      -0.000  -0.000  -0.000  0.00  0.00    -0.010 A 
ATOM     25  C   UNL     1      -0.000  -0.000   0.000  0.00  0.00    +0.007 A 
ATOM     26  C   UNL     1      -0.000  -0.000   0.000  0.00  0.00    +0.000 A 
ATOM     27  C   UNL     1      -0.000  -0.000   0.000  0.00  0.00    +0.000 A 
ATOM     28  C   UNL     1      -0.000  -0.000   0.000  0.00  0.00    +0.000 A 
ATOM     29  C   UNL     1      -0.000  -0.000   0.000  0.00  0.00    +0.007 A 
ENDBRANCH  23  24
ENDBRANCH  22  23
ENDBRANCH  11  22
TORSDOF 4
