REMARK  Name = 
REMARK  14 active torsions:
REMARK  status: ('A' for Active; 'I' for Inactive)
REMARK    1  A    between atoms: N_1  and  C_2
REMARK    2  A    between atoms: C_2  and  C_4
REMARK    3  A    between atoms: C_2  and  C_14
REMARK    4  A    between atoms: C_4  and  C_5
REMARK    5  A    between atoms: C_14  and  O_16
REMARK    6  A    between atoms: O_16  and  P_17
REMARK    7  A    between atoms: P_17  and  O_18
REMARK    8  A    between atoms: P_17  and  O_20
REMARK    9  A    between atoms: O_20  and  C_21
REMARK   10  A    between atoms: C_21  and  C_22
REMARK   11  A    between atoms: C_25  and  N_33
REMARK   12  A    between atoms: C_27  and  O_29
REMARK   13  A    between atoms: C_30  and  O_32
REMARK   14  A    between atoms: C_37  and  N_38
REMARK                            x       y       z     vdW  Elec       q    Type
REMARK                         _______ _______ _______ _____ _____    ______ ____
ROOT
ATOM      1  O   UNL     1       5.441  -3.082   3.814  0.00  0.00    -0.274 OA
ENDROOT
BRANCH   1   2
ATOM      2  P   UNL     1       4.864  -2.059   2.543  0.00  0.00    +0.533 P 
ATOM      3  O   UNL     1       6.011  -2.526   1.640  0.00  0.00    -0.215 OA
BRANCH   2   4
ATOM      4  O   UNL     1       3.665  -3.125   2.229  0.00  0.00    -0.293 OA
ATOM      5  H   UNL     1       4.010  -3.755   1.568  0.00  0.00    +0.223 HD
ENDBRANCH   2   4
BRANCH   2   6
ATOM      6  O   UNL     1       4.288  -1.036   1.272  0.00  0.00    -0.370 OA
BRANCH   6   7
ATOM      7  C   UNL     1       4.005   0.216   1.689  0.00  0.00    +0.332 C 
ATOM      8  O   UNL     1       4.225   0.583   2.838  0.00  0.00    -0.249 OA
BRANCH   7   9
ATOM      9  C   UNL     1       3.399   1.078   0.568  0.00  0.00    +0.166 C 
BRANCH   9  10
ATOM     10  N   UNL     1       2.938   2.368   1.142  0.00  0.00    -0.318 NA
ATOM     11  H   UNL     1       3.713   2.809   1.639  0.00  0.00    +0.119 HD
ATOM     12  H   UNL     1       2.688   3.004   0.383  0.00  0.00    +0.119 HD
ENDBRANCH   9  10
BRANCH   9  13
ATOM     13  C   UNL     1       4.437   1.247  -0.557  0.00  0.00    +0.067 C 
BRANCH  13  14
ATOM     14  C   UNL     1       3.978   2.082  -1.719  0.00  0.00    -0.020 A 
ATOM     15  C   UNL     1       4.180   3.490  -1.900  0.00  0.00    +0.003 A 
ATOM     16  C   UNL     1       3.624   3.841  -3.130  0.00  0.00    +0.047 A 
ATOM     17  C   UNL     1       3.656   5.149  -3.630  0.00  0.00    +0.026 A 
ATOM     18  C   UNL     1       4.267   6.130  -2.844  0.00  0.00    +0.002 A 
ATOM     19  C   UNL     1       4.824   5.813  -1.608  0.00  0.00    +0.001 A 
ATOM     20  N   UNL     1       3.097   2.696  -3.678  0.00  0.00    -0.360 N 
ATOM     21  H   UNL     1       2.634   2.650  -4.576  0.00  0.00    +0.165 HD
ATOM     22  C   UNL     1       4.790   4.500  -1.127  0.00  0.00    +0.010 A 
ATOM     23  C   UNL     1       3.305   1.632  -2.839  0.00  0.00    +0.087 A 
ENDBRANCH  13  14
ENDBRANCH   9  13
ENDBRANCH   7   9
ENDBRANCH   6   7
ENDBRANCH   2   6
ENDBRANCH   1   2
BRANCH   1  24
ATOM     24  C   UNL     1       6.461  -2.496   4.617  0.00  0.00    +0.207 C 
BRANCH  24  25
ATOM     25  C   UNL     1       6.925  -3.481   5.694  0.00  0.00    +0.178 C 
ATOM     26  C   UNL     1       7.403  -4.821   5.139  0.00  0.00    +0.178 C 
ATOM     27  C   UNL     1       6.911  -5.862   6.146  0.00  0.00    +0.195 C 
ATOM     28  C   UNL     1       6.168  -5.044   7.210  0.00  0.00    +0.253 C 
ATOM     29  O   UNL     1       5.856  -3.772   6.612  0.00  0.00    -0.346 OA
BRANCH  28  30
ATOM     30  N   UNL     1       4.946  -5.676   7.674  0.00  0.00    -0.286 N 
ATOM     31  C   UNL     1       4.865  -6.885   8.317  0.00  0.00    +0.167 A 
ATOM     32  C   UNL     1       3.510  -7.067   8.560  0.00  0.00    +0.147 A 
ATOM     33  C   UNL     1       3.133  -8.253   9.207  0.00  0.00    +0.147 A 
ATOM     34  N   UNL     1       4.101  -9.119   9.581  0.00  0.00    -0.219 NA
ATOM     35  C   UNL     1       5.383  -8.815   9.281  0.00  0.00    +0.225 A 
ATOM     36  N   UNL     1       2.782  -5.993   8.101  0.00  0.00    -0.231 NA
ATOM     37  N   UNL     1       5.871  -7.725   8.638  0.00  0.00    -0.216 NA
ATOM     38  C   UNL     1       3.674  -5.178   7.579  0.00  0.00    +0.203 A 
BRANCH  33  39
ATOM     39  N   UNL     1       1.809  -8.576   9.483  0.00  0.00    -0.341 N 
ATOM     40  H   UNL     1       1.713  -9.247  10.233  0.00  0.00    +0.144 HD
ATOM     41  H   UNL     1       1.188  -7.775   9.478  0.00  0.00    +0.144 HD
ENDBRANCH  33  39
ENDBRANCH  28  30
BRANCH  26  42
ATOM     42  O   UNL     1       8.822  -4.821   4.992  0.00  0.00    -0.386 OA
ATOM     43  H   UNL     1       9.117  -5.716   5.260  0.00  0.00    +0.210 HD
ENDBRANCH  26  42
BRANCH  27  44
ATOM     44  O   UNL     1       8.003  -6.625   6.676  0.00  0.00    -0.385 OA
ATOM     45  H   UNL     1       7.623  -7.226   7.352  0.00  0.00    +0.210 HD
ENDBRANCH  27  44
ENDBRANCH  24  25
ENDBRANCH   1  24
TORSDOF 14
