REMARK  Name = 
REMARK  8 active torsions:
REMARK  status: ('A' for Active; 'I' for Inactive)
REMARK    1  A    between atoms: C_1  and  C_2
REMARK    2  A    between atoms: C_5  and  C_8
REMARK    3  A    between atoms: N_10  and  C_11
REMARK    4  A    between atoms: C_11  and  C_12
REMARK    5  A    between atoms: C_12  and  C_13
REMARK    6  A    between atoms: C_16  and  S_19
REMARK    7  A    between atoms: S_19  and  N_22
REMARK    8  A    between atoms: N_25  and  C_26
REMARK                            x       y       z     vdW  Elec       q    Type
REMARK                         _______ _______ _______ _____ _____    ______ ____
ROOT
ATOM      1  C   UNL     1      10.974  -2.444  -1.567  0.00  0.00    -0.046 A 
ATOM      2  C   UNL     1      11.626  -3.668  -1.791  0.00  0.00    +0.005 A 
ATOM      3  C   UNL     1      12.950  -3.704  -2.245  0.00  0.00    +0.029 A 
ATOM      4  C   UNL     1      13.648  -2.511  -2.447  0.00  0.00    +0.109 A 
ATOM      5  C   UNL     1      13.032  -1.288  -2.186  0.00  0.00    +0.029 A 
ATOM      6  C   UNL     1      11.710  -1.260  -1.732  0.00  0.00    +0.005 A 
ENDROOT
BRANCH   4   7
ATOM      7  S   UNL     1      15.276  -2.536  -3.159  0.00  0.00    +0.076 S 
ATOM      8  O   UNL     1      15.476  -1.262  -3.822  0.00  0.00    -0.150 OA
ATOM      9  O   UNL     1      15.460  -3.772  -3.887  0.00  0.00    -0.150 OA
BRANCH   7  10
ATOM     10  N   UNL     1      16.305  -2.506  -1.851  0.00  0.00    -0.169 N 
ATOM     11  H   UNL     1      16.921  -1.705  -1.841  0.00  0.00    +0.178 HD
ATOM     12  C   UNL     1      16.351  -3.497  -0.890  0.00  0.00    +0.319 C 
ATOM     13  N   UNL     1      17.318  -3.302   0.056  0.00  0.00    -0.295 N 
ATOM     14  H   UNL     1      17.843  -2.442   0.052  0.00  0.00    +0.151 HD
ATOM     15  O   UNL     1      15.583  -4.447  -0.876  0.00  0.00    -0.251 OA
BRANCH  13  16
ATOM     16  C   UNL     1      17.400  -4.187   1.213  0.00  0.00    +0.074 C 
ATOM     17  C   UNL     1      16.463  -3.715   2.334  0.00  0.00    +0.022 C 
ATOM     18  C   UNL     1      16.982  -2.465   3.042  0.00  0.00    +0.002 C 
ATOM     19  C   UNL     1      18.406  -2.659   3.551  0.00  0.00    +0.000 C 
ATOM     20  C   UNL     1      19.352  -3.093   2.436  0.00  0.00    +0.002 C 
ATOM     21  C   UNL     1      18.840  -4.335   1.710  0.00  0.00    +0.022 C 
ENDBRANCH  13  16
ENDBRANCH   7  10
ENDBRANCH   4   7
BRANCH   1  22
ATOM     22  C   UNL     1       9.523  -2.437  -1.116  0.00  0.00    +0.054 C 
BRANCH  22  23
ATOM     23  C   UNL     1       8.690  -1.255  -1.641  0.00  0.00    +0.109 C 
BRANCH  23  25
ATOM     24  C   UNL     1       6.950  -0.684   0.022  0.00  0.00    +0.264 C 
ATOM     25  N   UNL     1       7.317  -1.272  -1.173  0.00  0.00    -0.310 N 
ATOM     26  H   UNL     1       6.579  -1.682  -1.740  0.00  0.00    +0.149 HD
ATOM     27  O   UNL     1       7.747  -0.145   0.783  0.00  0.00    -0.268 OA
BRANCH  24  32
ATOM     28  C   UNL     1       1.506  -1.097   1.568  0.00  0.00    +0.067 C 
ATOM     29  C   UNL     1       2.919  -0.918   1.108  0.00  0.00    +0.056 A 
ATOM     30  N   UNL     1       3.760  -0.264   1.947  0.00  0.00    -0.256 NA
ATOM     31  C   UNL     1       5.054  -0.187   1.546  0.00  0.00    +0.144 A 
ATOM     32  C   UNL     1       5.499  -0.742   0.355  0.00  0.00    +0.143 A 
ATOM     33  N   UNL     1       4.662  -1.378  -0.514  0.00  0.00    -0.247 NA
ATOM     34  C   UNL     1       3.369  -1.448  -0.101  0.00  0.00    +0.134 A 
ENDBRANCH  24  32
ENDBRANCH  23  25
ENDBRANCH  22  23
ENDBRANCH   1  22
TORSDOF 7
