REMARK  Name = 
REMARK  3 active torsions:
REMARK  status: ('A' for Active; 'I' for Inactive)
REMARK    1  A    between atoms: C_1  and  N_2
REMARK    2  A    between atoms: N_4  and  C_5
REMARK    3  A    between atoms: C_12  and  O_13
REMARK                            x       y       z     vdW  Elec       q    Type
REMARK                         _______ _______ _______ _____ _____    ______ ____
ROOT
ATOM      1  C   UNL     1       1.000  -0.154   0.039  0.00  0.00    +0.156 C 
ATOM      2  N   UNL     1       2.449  -0.100   0.050  0.00  0.00    -0.277 N 
ATOM      3  C   UNL     1       3.277  -1.201   0.043  0.00  0.00    +0.219 A 
ATOM      4  N   UNL     1       2.904  -2.518   0.018  0.00  0.00    -0.190 NA
ATOM      5  C   UNL     1       3.960  -3.352  -0.014  0.00  0.00    +0.218 A 
ATOM      6  N   UNL     1       5.266  -2.989   0.018  0.00  0.00    -0.174 NA
ATOM      7  C   UNL     1       5.578  -1.678   0.048  0.00  0.00    +0.293 A 
ATOM      8  N   UNL     1       3.699  -4.692  -0.115  0.00  0.00    -0.327 N 
ATOM      9  H   UNL     1       4.470  -5.300   0.124  0.00  0.00    +0.145 HD
ATOM     10  H   UNL     1       2.764  -4.979   0.134  0.00  0.00    +0.145 HD
ATOM     11  C   UNL     1       4.574  -0.726   0.053  0.00  0.00    +0.313 A 
ATOM     12  N   UNL     1       4.492   0.664   0.059  0.00  0.00    -0.178 N 
ATOM     13  C   UNL     1       5.626   1.575   0.054  0.00  0.00    +0.441 C 
ATOM     14  C   UNL     1       3.196   1.013   0.052  0.00  0.00    +0.410 A 
ENDROOT
BRANCH   7  15
ATOM     15  O   UNL     1       6.908  -1.371   0.060  0.00  0.00    -0.488 OA
ATOM     16  H   UNL     1       7.322  -2.256   0.037  0.00  0.00    +0.294 HD
ENDBRANCH   7  15
TORSDOF 1
