REMARK  Name = 
REMARK  8 active torsions:
REMARK  status: ('A' for Active; 'I' for Inactive)
REMARK    1  A    between atoms: C_1  and  C_2
REMARK    2  A    between atoms: N_4  and  CA_5
REMARK    3  A    between atoms: CA_5  and  CB_7
REMARK    4  A    between atoms: CA_5  and  C_14
REMARK    5  A    between atoms: CB_7  and  CG_8
REMARK    6  A    between atoms: CG_8  and  CD_9
REMARK    7  A    between atoms: CD_9  and  NE_10
REMARK    8  A    between atoms: C_14  and  O_15
REMARK                            x       y       z     vdW  Elec       q    Type
REMARK                         _______ _______ _______ _____ _____    ______ ____
ROOT
ATOM      1  CB  ARG A   1       5.227  -1.298  -0.004  0.00  0.00    +0.037 C 
ENDROOT
BRANCH   1   2
ATOM      2  CA  ARG A   1       4.664  -0.433  -1.143  0.00  0.00    +0.182 C 
BRANCH   2   5
ATOM      3  C   UNK A   0       4.856  -1.402  -4.816  0.00  0.00    +0.109 C 
ATOM      4  C   UNK A   0       4.360  -0.727  -3.567  0.00  0.00    +0.211 C 
ATOM      5  N   ARG A   1       5.142  -0.943  -2.445  0.00  0.00    -0.303 N 
ATOM      6  H   ARG A   1       5.746  -1.759  -2.452  0.00  0.00    +0.149 HD
ATOM      7  O   UNK A   0       3.374  -0.001  -3.560  0.00  0.00    -0.276 OA
ENDBRANCH   2   5
BRANCH   2   8
ATOM      8  C   ARG A   1       5.084   1.039  -0.959  0.00  0.00    +0.325 C 
ATOM      9  OXT ARG A   1       4.614   1.787  -0.112  0.00  0.00    -0.249 OA
BRANCH   8  10
ATOM     10  O   ARG A   1       6.139   1.391  -1.733  0.00  0.00    -0.479 OA
ATOM     11  H   ARG A   1       6.347   0.659  -2.348  0.00  0.00    +0.295 HD
ENDBRANCH   8  10
ENDBRANCH   2   8
ENDBRANCH   1   2
BRANCH   1  12
ATOM     12  CG  ARG A   1       4.812  -0.880   1.415  0.00  0.00    +0.039 C 
BRANCH  12  13
ATOM     13  CD  ARG A   1       3.297  -0.830   1.616  0.00  0.00    +0.196 C 
BRANCH  13  14
ATOM     14  NE  ARG A   1       2.969  -0.394   2.956  0.00  0.00    -0.276 N 
ATOM     15  HE  ARG A   1       3.209   0.578   3.132  0.00  0.00    +0.258 HD
ATOM     16  CZ  ARG A   1       2.983  -1.158   4.065  0.00  0.00    +0.376 C 
ATOM     17  NH2 ARG A   1       3.143  -2.425   4.163  0.00  0.00    -0.130 NA
ATOM     18  HH2 ARG A   1       3.286  -2.821   3.234  0.00  0.00    +0.306 HD
ATOM     19  NH1 ARG A   1       2.760  -0.429   5.173  0.00  0.00    -0.289 N 
ATOM     20 HH11 ARG A   1       2.591  -1.053   5.956  0.00  0.00    +0.255 HD
ATOM     21 HH12 ARG A   1       1.993   0.223   5.066  0.00  0.00    +0.255 HD
ENDBRANCH  13  14
ENDBRANCH  12  13
ENDBRANCH   1  12
TORSDOF 7
