REMARK  Name = 
REMARK  15 active torsions:
REMARK  status: ('A' for Active; 'I' for Inactive)
REMARK    1  A    between atoms: O_1  and  C_2
REMARK    2  A    between atoms: C_4  and  C_6
REMARK    3  A    between atoms: C_6  and  O_7
REMARK    4  A    between atoms: O_7  and  P_8
REMARK    5  A    between atoms: P_8  and  O_9
REMARK    6  A    between atoms: P_8  and  O_11
REMARK    7  A    between atoms: O_11  and  P_12
REMARK    8  A    between atoms: P_12  and  O_13
REMARK    9  A    between atoms: P_12  and  O_15
REMARK   10  A    between atoms: O_15  and  C_16
REMARK   11  A    between atoms: C_20  and  O_22
REMARK   12  A    between atoms: C_23  and  O_25
REMARK   13  A    between atoms: C_26  and  O_28
REMARK   14  A    between atoms: C_30  and  N_35
REMARK   15  A    between atoms: C_32  and  O_34
REMARK                            x       y       z     vdW  Elec       q    Type
REMARK                         _______ _______ _______ _____ _____    ______ ____
ROOT
ATOM      1  P   UNL     1      -3.252   3.278  -5.424  0.00  0.00    +0.483 P 
ATOM      2  O   UNL     1      -4.655   3.684  -4.945  0.00  0.00    -0.227 OA
ENDROOT
BRANCH   1   3
ATOM      3  O   UNL     1      -3.978   1.862  -6.101  0.00  0.00    -0.302 OA
ATOM      4  H   UNL     1      -4.841   1.830  -5.638  0.00  0.00    +0.222 HD
ENDBRANCH   1   3
BRANCH   1   5
ATOM      5  O   UNL     1      -3.127   3.942  -6.946  0.00  0.00    -0.284 OA
BRANCH   5   6
ATOM      6  C   UNL     1      -1.855   3.770  -7.549  0.00  0.00    +0.206 C 
BRANCH   6  11
ATOM      7  C   UNL     1      -1.945   5.797  -9.149  0.00  0.00    +0.178 C 
ATOM      8  C   UNL     1      -1.152   6.093 -10.423  0.00  0.00    +0.195 C 
ATOM      9  C   UNL     1      -0.204   4.883 -10.573  0.00  0.00    +0.255 C 
ATOM     10  O   UNL     1      -0.492   3.968  -9.505  0.00  0.00    -0.346 OA
ATOM     11  C   UNL     1      -1.794   4.289  -8.986  0.00  0.00    +0.178 C 
BRANCH   9  12
ATOM     12  N   UNL     1      -0.301   4.198 -11.871  0.00  0.00    -0.271 N 
ATOM     13  C   UNL     1       0.097   4.913 -12.992  0.00  0.00    +0.331 A 
ATOM     14  O   UNL     1       0.470   6.083 -12.944  0.00  0.00    -0.246 OA
ATOM     15  N   UNL     1       0.051   4.241 -14.190  0.00  0.00    -0.275 N 
ATOM     16  H   UNL     1       0.346   4.740 -15.009  0.00  0.00    +0.173 HD
ATOM     17  C   UNL     1      -0.304   2.926 -14.357  0.00  0.00    +0.254 A 
ATOM     18  O   UNL     1      -0.277   2.365 -15.442  0.00  0.00    -0.268 OA
ATOM     19  C   UNL     1      -0.712   2.221 -13.135  0.00  0.00    +0.088 A 
ATOM     20  C   UNL     1      -0.688   2.874 -11.972  0.00  0.00    +0.098 A 
ENDBRANCH   9  12
BRANCH   7  21
ATOM     21  O   UNL     1      -3.309   6.184  -9.315  0.00  0.00    -0.386 OA
ATOM     22  H   UNL     1      -3.789   5.916  -8.508  0.00  0.00    +0.210 HD
ENDBRANCH   7  21
BRANCH   8  23
ATOM     23  O   UNL     1      -0.414   7.319 -10.275  0.00  0.00    -0.385 OA
ATOM     24  H   UNL     1       0.014   7.487 -11.139  0.00  0.00    +0.210 HD
ENDBRANCH   8  23
ENDBRANCH   6  11
ENDBRANCH   5   6
ENDBRANCH   1   5
BRANCH   1  25
ATOM     25  O   UNL     1      -2.526   4.695  -4.746  0.00  0.00    -0.186 OA
BRANCH  25  26
ATOM     26  P   UNL     1      -1.807   4.302  -3.222  0.00  0.00    +0.486 P 
ATOM     27  O   UNL     1      -1.036   3.159  -3.890  0.00  0.00    -0.227 OA
BRANCH  26  28
ATOM     28  O   UNL     1      -3.217   3.702  -2.665  0.00  0.00    -0.302 OA
ATOM     29  H   UNL     1      -3.807   4.412  -2.345  0.00  0.00    +0.222 HD
ENDBRANCH  26  28
BRANCH  26  30
ATOM     30  O   UNL     1      -1.089   3.909  -1.698  0.00  0.00    -0.254 OA
BRANCH  30  31
ATOM     31  C   UNL     1      -0.779   5.087  -0.942  0.00  0.00    +0.293 C 
ATOM     32  C   UNL     1      -2.008   6.011  -0.763  0.00  0.00    +0.202 C 
ATOM     33  C   UNL     1      -1.655   7.199   0.141  0.00  0.00    +0.178 C 
ATOM     34  C   UNL     1      -1.044   6.726   1.461  0.00  0.00    +0.171 C 
ATOM     35  C   UNL     1       0.151   5.824   1.137  0.00  0.00    +0.197 C 
ATOM     36  O   UNL     1      -0.241   4.708   0.332  0.00  0.00    -0.346 OA
BRANCH  32  37
ATOM     37  O   UNL     1      -2.424   6.525  -2.048  0.00  0.00    -0.384 OA
ATOM     38  H   UNL     1      -2.806   7.412  -1.866  0.00  0.00    +0.210 HD
ENDBRANCH  32  37
BRANCH  33  39
ATOM     39  O   UNL     1      -2.825   8.011   0.308  0.00  0.00    -0.386 OA
ATOM     40  H   UNL     1      -2.925   8.199   1.261  0.00  0.00    +0.210 HD
ENDBRANCH  33  39
BRANCH  34  41
ATOM     41  O   UNL     1      -2.041   6.035   2.217  0.00  0.00    -0.387 OA
ATOM     42  H   UNL     1      -1.593   5.444   2.852  0.00  0.00    +0.210 HD
ENDBRANCH  34  41
ENDBRANCH  30  31
ENDBRANCH  26  30
ENDBRANCH  25  26
ENDBRANCH   1  25
TORSDOF 15
