REMARK  Name = 
REMARK  9 active torsions:
REMARK  status: ('A' for Active; 'I' for Inactive)
REMARK    1  A    between atoms: O_1  and  C_2
REMARK    2  A    between atoms: C_2  and  C_3
REMARK    3  A    between atoms: C_3  and  O_5
REMARK    4  A    between atoms: C_3  and  C_6
REMARK    5  A    between atoms: C_6  and  O_8
REMARK    6  A    between atoms: C_6  and  C_9
REMARK    7  A    between atoms: C_9  and  O_11
REMARK    8  A    between atoms: C_9  and  C_12
REMARK    9  A    between atoms: C_12  and  O_13
REMARK                            x       y       z     vdW  Elec       q    Type
REMARK                         _______ _______ _______ _____ _____    ______ ____
ROOT
ATOM      1  C   UNL     1       4.535  -1.197   3.667  0.00  0.00    +0.176 C 
ENDROOT
BRANCH   1   2
ATOM      2  O   UNL     1       4.602   0.225   3.434  0.00  0.00    -0.387 OA
ATOM      3  H   UNL     1       4.645   0.636   4.320  0.00  0.00    +0.210 HD
ENDBRANCH   1   2
BRANCH   1   4
ATOM      4  C   UNL     1       5.449  -1.606   4.850  0.00  0.00    +0.171 C 
BRANCH   4   5
ATOM      5  O   UNL     1       6.754  -1.025   4.708  0.00  0.00    -0.387 OA
ATOM      6  H   UNL     1       6.958  -1.073   3.746  0.00  0.00    +0.210 HD
ENDBRANCH   4   5
BRANCH   4   7
ATOM      7  C   UNL     1       4.888  -1.159   6.200  0.00  0.00    +0.189 C 
BRANCH   7   8
ATOM      8  O   UNL     1       4.868   0.267   6.288  0.00  0.00    -0.392 OA
ATOM      9  H   UNL     1       5.811   0.520   6.372  0.00  0.00    +0.210 HD
ENDBRANCH   7   8
ENDBRANCH   4   7
ENDBRANCH   1   4
BRANCH   1  10
ATOM     10  C   UNL     1       4.922  -1.967   2.379  0.00  0.00    +0.171 C 
BRANCH  10  11
ATOM     11  O   UNL     1       6.321  -1.769   2.102  0.00  0.00    -0.387 OA
ATOM     12  H   UNL     1       6.418  -1.753   1.130  0.00  0.00    +0.210 HD
ENDBRANCH  10  11
BRANCH  10  13
ATOM     13  C   UNL     1       4.072  -1.562   1.167  0.00  0.00    +0.189 C 
BRANCH  13  14
ATOM     14  O   UNL     1       4.430  -0.268   0.694  0.00  0.00    -0.392 OA
ATOM     15  H   UNL     1       4.541   0.291   1.496  0.00  0.00    +0.210 HD
ENDBRANCH  13  14
ENDBRANCH  10  13
ENDBRANCH   1  10
TORSDOF 9
