REMARK  Name = 
REMARK  8 active torsions:
REMARK  status: ('A' for Active; 'I' for Inactive)
REMARK    1  A    between atoms: C_1  and  C_2
REMARK    2  A    between atoms: C_2  and  S_3
REMARK    3  A    between atoms: C_2  and  C_11
REMARK    4  A    between atoms: S_3  and  C_4
REMARK    5  A    between atoms: C_4  and  C_6
REMARK    6  A    between atoms: N_13  and  C_14
REMARK    7  A    between atoms: C_14  and  C_15
REMARK    8  A    between atoms: C_15  and  O_16
REMARK                            x       y       z     vdW  Elec       q    Type
REMARK                         _______ _______ _______ _____ _____    ______ ____
ROOT
ATOM      1  C   UNL     1       0.926  -0.079   0.009  0.00  0.00    +0.029 C 
ATOM      2  C   UNL     1       2.453  -0.085  -0.013  0.00  0.00    +0.137 C 
ENDROOT
BRANCH   2   3
ATOM      3  C   UNL     1       2.967  -1.479  -0.413  0.00  0.00    +0.227 C 
ATOM      4  N   UNL     1       4.347  -1.604  -0.478  0.00  0.00    -0.304 N 
ATOM      5  H   UNL     1       4.866  -0.960   0.113  0.00  0.00    +0.149 HD
ATOM      6  O   UNL     1       2.233  -2.402  -0.753  0.00  0.00    -0.275 OA
BRANCH   4   7
ATOM      7  C   UNL     1       4.949  -2.931  -0.673  0.00  0.00    +0.224 C 
BRANCH   7   8
ATOM      8  C   UNL     1       5.181  -3.294  -2.140  0.00  0.00    +0.322 C 
ATOM      9  O   UNL     1       5.687  -4.345  -2.510  0.00  0.00    -0.249 OA
BRANCH   8  10
ATOM     10  O   UNL     1       4.826  -2.315  -3.005  0.00  0.00    -0.480 OA
ATOM     11  H   UNL     1       4.413  -1.582  -2.505  0.00  0.00    +0.295 HD
ENDBRANCH   8  10
ENDBRANCH   7   8
ENDBRANCH   4   7
ENDBRANCH   2   3
BRANCH   2  12
ATOM     12  S   UNL     1       3.145   0.352   1.624  0.00  0.00    -0.070 S 
BRANCH  12  13
ATOM     13  C   UNL     1       2.548   2.010   1.788  0.00  0.00    +0.227 C 
ATOM     14  O   UNL     1       2.353   2.681   0.781  0.00  0.00    -0.279 OA
BRANCH  13  15
ATOM     15  C   UNL     1       2.342   2.511   3.147  0.00  0.00    +0.066 A 
ATOM     16  S   UNL     1       2.638   1.596   4.571  0.00  0.00    -0.093 S 
ATOM     17  C   UNL     1       2.184   2.879   5.598  0.00  0.00    +0.046 A 
ATOM     18  C   UNL     1       1.798   3.992   4.889  0.00  0.00    +0.008 A 
ATOM     19  C   UNL     1       1.884   3.779   3.482  0.00  0.00    +0.020 A 
ENDBRANCH  13  15
ENDBRANCH  12  13
ENDBRANCH   2  12
TORSDOF 7
