REMARK  Name = 
REMARK  1 active torsions:
REMARK  status: ('A' for Active; 'I' for Inactive)
REMARK    1  A    between atoms: C_1  and  C_2
REMARK                            x       y       z     vdW  Elec       q    Type
REMARK                         _______ _______ _______ _____ _____    ______ ____
ROOT
ATOM      1  C   UNL     1       0.898  -0.015  -0.031  0.00  0.00    +0.046 C 
ATOM      2  C   UNL     1       2.399  -0.036   0.057  0.00  0.00    -0.026 A 
ATOM      3  C   UNL     1       3.117  -1.243   0.120  0.00  0.00    +0.057 A 
ATOM      4  N   UNL     1       2.484  -2.498   0.085  0.00  0.00    -0.327 N 
ATOM      5  H   UNL     1       1.620  -2.533  -0.438  0.00  0.00    +0.169 HD
ATOM      6  C   UNL     1       3.267  -3.608   0.011  0.00  0.00    +0.194 A 
ATOM      7  N   UNL     1       4.543  -3.676   0.189  0.00  0.00    -0.177 NA
ATOM      8  C   UNL     1       5.218  -2.505   0.470  0.00  0.00    +0.282 A 
ATOM      9  O   UNL     1       6.394  -2.490   0.818  0.00  0.00    -0.265 OA
ATOM     10  N   UNL     1       2.561  -4.723  -0.302  0.00  0.00    -0.329 N 
ATOM     11  H   UNL     1       3.152  -5.546  -0.220  0.00  0.00    +0.145 HD
ATOM     12  H   UNL     1       1.710  -4.840   0.234  0.00  0.00    +0.145 HD
ATOM     13  C   UNL     1       4.504  -1.207   0.328  0.00  0.00    +0.065 A 
ATOM     14  C   UNL     1       5.195   0.007   0.386  0.00  0.00    +0.015 A 
ATOM     15  C   UNL     1       4.492   1.201   0.248  0.00  0.00    +0.001 A 
ATOM     16  C   UNL     1       3.104   1.179   0.097  0.00  0.00    +0.005 A 
ENDROOT
TORSDOF 0
