REMARK  Name = 
REMARK  10 active torsions:
REMARK  status: ('A' for Active; 'I' for Inactive)
REMARK    1  A    between atoms: C_1  and  O_2
REMARK    2  A    between atoms: O_2  and  C_3
REMARK    3  A    between atoms: C_3  and  C_4
REMARK    4  A    between atoms: C_4  and  C_5
REMARK    5  A    between atoms: C_5  and  O_6
REMARK    6  A    between atoms: O_6  and  C_7
REMARK    7  A    between atoms: C_8  and  C_9
REMARK    8  A    between atoms: C_10  and  C_11
REMARK    9  A    between atoms: C_11  and  S_12
REMARK   10  A    between atoms: S_12  and  C_14
REMARK                            x       y       z     vdW  Elec       q    Type
REMARK                         _______ _______ _______ _____ _____    ______ ____
ROOT
ATOM      1  C   UNL     1       6.882   3.804   1.379  0.00  0.00    +0.127 A 
ATOM      2  C   UNL     1       6.626   5.118   0.990  0.00  0.00    +0.065 A 
ATOM      3  C   UNL     1       7.390   6.127   1.533  0.00  0.00    +0.114 A 
ATOM      4  N   UNL     1       8.408   5.915   2.385  0.00  0.00    -0.258 NA
ATOM      5  C   UNL     1       8.656   4.639   2.791  0.00  0.00    +0.060 A 
ATOM      6  C   UNL     1       7.874   3.552   2.351  0.00  0.00    +0.013 A 
ATOM      7  C   UNL     1       8.091   2.158   2.872  0.00  0.00    +0.049 C 
ENDROOT
BRANCH   1   8
ATOM      8  O   UNL     1       6.220   2.714   0.848  0.00  0.00    -0.492 OA
BRANCH   8   9
ATOM      9  C   UNL     1       5.313   2.999  -0.226  0.00  0.00    +0.231 C 
BRANCH   9  10
ATOM     10  C   UNL     1       4.758   1.711  -0.830  0.00  0.00    +0.069 C 
BRANCH  10  11
ATOM     11  C   UNL     1       3.710   2.031  -1.894  0.00  0.00    +0.163 C 
BRANCH  11  13
ATOM     12  C   UNL     1       3.373   3.209  -3.917  0.00  0.00    +0.193 C 
ATOM     13  O   UNL     1       4.310   2.824  -2.919  0.00  0.00    -0.383 OA
ENDBRANCH  11  13
ENDBRANCH  10  11
ENDBRANCH   9  10
ENDBRANCH   8   9
ENDBRANCH   1   8
BRANCH   5  14
ATOM     14  C   UNL     1       9.887   4.496   3.664  0.00  0.00    +0.167 C 
BRANCH  14  15
ATOM     15  S   UNL     1       9.696   5.396   5.226  0.00  0.00    +0.095 S 
ATOM     16  O   UNL     1       8.870   4.597   6.196  0.00  0.00    -0.249 OA
BRANCH  15  17
ATOM     17  C   UNL     1      11.327   5.314   5.832  0.00  0.00    +0.198 A 
ATOM     18  N   UNL     1      11.611   4.867   7.096  0.00  0.00    -0.331 N 
ATOM     19  H   UNL     1      10.921   4.509   7.742  0.00  0.00    +0.168 HD
ATOM     20  C   UNL     1      12.939   5.098   7.346  0.00  0.00    +0.067 A 
ATOM     21  C   UNL     1      13.415   5.641   6.157  0.00  0.00    +0.090 A 
ATOM     22  C   UNL     1      14.767   6.018   6.079  0.00  0.00    +0.030 A 
ATOM     23  C   UNL     1      15.585   5.844   7.206  0.00  0.00    +0.002 A 
ATOM     24  C   UNL     1      15.073   5.298   8.385  0.00  0.00    +0.002 A 
ATOM     25  C   UNL     1      13.733   4.905   8.480  0.00  0.00    +0.028 A 
ATOM     26  N   UNL     1      12.407   5.741   5.218  0.00  0.00    -0.220 NA
ENDBRANCH  15  17
ENDBRANCH  14  15
ENDBRANCH   5  14
TORSDOF 8
