REMARK  Name = 
REMARK  19 active torsions:
REMARK  status: ('A' for Active; 'I' for Inactive)
REMARK    1  A    between atoms: C_1  and  C_2
REMARK    2  A    between atoms: C_2  and  N_3
REMARK    3  A    between atoms: N_3  and  C_4
REMARK    4  A    between atoms: N_3  and  C_6
REMARK    5  A    between atoms: N_3  and  C_29
REMARK    6  A    between atoms: C_4  and  C_5
REMARK    7  A    between atoms: C_6  and  C_7
REMARK    8  A    between atoms: C_7  and  N_8
REMARK    9  A    between atoms: C_9  and  C_11
REMARK   10  A    between atoms: N_13  and  C_14
REMARK   11  A    between atoms: C_14  and  C_15
REMARK   12  A    between atoms: C_15  and  N_16
REMARK   13  A    between atoms: N_16  and  C_17
REMARK   14  A    between atoms: N_16  and  C_19
REMARK   15  A    between atoms: N_16  and  C_21
REMARK   16  A    between atoms: C_17  and  C_18
REMARK   17  A    between atoms: C_19  and  C_20
REMARK   18  A    between atoms: C_21  and  C_22
REMARK   19  A    between atoms: C_29  and  C_30
REMARK                            x       y       z     vdW  Elec       q    Type
REMARK                         _______ _______ _______ _____ _____    ______ ____
ROOT
ATOM      1  N   UNL     1       0.333  -3.596   0.654  0.00  0.00    -0.303 N 
ATOM      2  H   UNL     1       0.960  -4.292   0.245  0.00  0.00    +0.149 HD
ATOM      3  C   UNL     1      -1.014  -3.844   0.547  0.00  0.00    +0.299 C 
ATOM      4  O   UNL     1      -1.915  -3.090   0.871  0.00  0.00    -0.265 OA
ENDROOT
BRANCH   3   5
ATOM      5  C   UNL     1      -1.387  -5.211  -0.009  0.00  0.00    +0.299 C 
ATOM      6  N   UNL     1      -2.749  -5.477   0.075  0.00  0.00    -0.303 N 
ATOM      7  H   UNL     1      -3.321  -4.658   0.311  0.00  0.00    +0.149 HD
ATOM      8  O   UNL     1      -0.535  -5.949  -0.465  0.00  0.00    -0.265 OA
BRANCH   6   9
ATOM      9  C   UNL     1      -3.281  -6.569  -0.689  0.00  0.00    +0.155 C 
BRANCH   9  10
ATOM     10  C   UNL     1      -4.619  -7.125  -0.162  0.00  0.00    +0.152 C 
BRANCH  10  11
ATOM     11  N   UNL     1      -4.952  -8.528  -0.739  0.00  0.00    +0.247 N 
BRANCH  11  12
ATOM     12  C   UNL     1      -4.918  -8.428  -2.291  0.00  0.00    +0.130 C 
ATOM     13  C   UNL     1      -5.346  -9.679  -3.036  0.00  0.00    +0.060 C 
ENDBRANCH  11  12
BRANCH  11  14
ATOM     14  C   UNL     1      -6.335  -8.998  -0.223  0.00  0.00    +0.130 C 
ATOM     15  C   UNL     1      -7.496  -8.085  -0.587  0.00  0.00    +0.060 C 
ENDBRANCH  11  14
BRANCH  11  16
ATOM     16  C   UNL     1      -3.881  -9.589  -0.271  0.00  0.00    +0.171 C 
BRANCH  16  17
ATOM     17  C   UNL     1      -3.602  -9.775   1.209  0.00  0.00    +0.015 A 
ATOM     18  C   UNL     1      -4.173 -10.827   1.952  0.00  0.00    +0.049 A 
ATOM     19 CL   UNL     1      -5.338 -11.908   1.274  0.00  0.00    -0.083 Cl
ATOM     20  C   UNL     1      -3.792 -11.067   3.277  0.00  0.00    +0.020 A 
ATOM     21  C   UNL     1      -2.837 -10.263   3.892  0.00  0.00    +0.001 A 
ATOM     22  C   UNL     1      -2.275  -9.205   3.189  0.00  0.00    +0.001 A 
ATOM     23  C   UNL     1      -2.649  -8.964   1.863  0.00  0.00    +0.010 A 
ENDBRANCH  16  17
ENDBRANCH  11  16
ENDBRANCH  10  11
ENDBRANCH   9  10
ENDBRANCH   6   9
ENDBRANCH   3   5
BRANCH   1  24
ATOM     24  C   UNL     1       0.845  -2.369   1.231  0.00  0.00    +0.155 C 
BRANCH  24  25
ATOM     25  C   UNL     1       0.856  -2.407   2.778  0.00  0.00    +0.152 C 
BRANCH  25  26
ATOM     26  N   UNL     1       1.236  -1.067   3.480  0.00  0.00    +0.247 N 
BRANCH  26  28
ATOM     27  C   UNL     1       1.912  -0.209   5.818  0.00  0.00    +0.060 C 
ATOM     28  C   UNL     1       1.378  -1.375   4.998  0.00  0.00    +0.130 C 
ENDBRANCH  26  28
BRANCH  26  29
ATOM     29  C   UNL     1       2.567  -0.504   2.914  0.00  0.00    +0.130 C 
ATOM     30  C   UNL     1       3.752  -1.450   3.091  0.00  0.00    +0.060 C 
ENDBRANCH  26  29
BRANCH  26  31
ATOM     31  C   UNL     1       0.087   0.028   3.264  0.00  0.00    +0.171 C 
BRANCH  31  32
ATOM     32  C   UNL     1      -1.310  -0.340   3.727  0.00  0.00    +0.015 A 
ATOM     33  C   UNL     1      -1.817  -0.113   5.015  0.00  0.00    +0.049 A 
ATOM     34 CL   UNL     1      -1.079   0.980   6.120  0.00  0.00    -0.083 Cl
ATOM     35  C   UNL     1      -3.006  -0.719   5.442  0.00  0.00    +0.020 A 
ATOM     36  C   UNL     1      -3.759  -1.491   4.564  0.00  0.00    +0.001 A 
ATOM     37  C   UNL     1      -3.362  -1.584   3.240  0.00  0.00    +0.001 A 
ATOM     38  C   UNL     1      -2.166  -0.990   2.827  0.00  0.00    +0.010 A 
ENDBRANCH  31  32
ENDBRANCH  26  31
ENDBRANCH  25  26
ENDBRANCH  24  25
ENDBRANCH   1  24
TORSDOF 15
