REMARK  Name = 
REMARK  9 active torsions:
REMARK  status: ('A' for Active; 'I' for Inactive)
REMARK    1  A    between atoms: N_14  and  C_15
REMARK    2  A    between atoms: N_14  and  C_16
REMARK    3  A    between atoms: C_25  and  O_26
REMARK    4  A    between atoms: O_26  and  C_27
REMARK    5  A    between atoms: N_32  and  C_33
REMARK    6  A    between atoms: C_36  and  O_37
REMARK    7  A    between atoms: C_41  and  O_42
REMARK    8  A    between atoms: O_42  and  C_43
REMARK    9  A    between atoms: C_44  and  O_45
REMARK                            x       y       z     vdW  Elec       q    Type
REMARK                         _______ _______ _______ _____ _____    ______ ____
ROOT
ATOM      1  C   UNL     1       2.899   0.362   0.356  0.00  0.00    +0.091 C 
ATOM      2  C   UNL     1       3.933   0.210   1.476  0.00  0.00    -0.023 A 
ATOM      3  C   UNL     1       5.228  -0.285   1.375  0.00  0.00    +0.055 A 
ATOM      4  C   UNL     1       6.114  -0.100   2.442  0.00  0.00    +0.170 A 
ATOM      5  C   UNL     1       5.509  -0.377   3.659  0.00  0.00    +0.162 A 
ATOM      6  C   UNL     1       4.276   0.216   3.878  0.00  0.00    +0.053 A 
ATOM      7  O   UNL     1       6.553   1.354   2.432  0.00  0.00    -0.449 OA
ATOM      8  C   UNL     1       7.923   1.561   2.491  0.00  0.00    +0.170 A 
ATOM      9  C   UNL     1       8.520   2.605   3.198  0.00  0.00    +0.159 A 
ATOM     10  C   UNL     1       9.908   2.632   3.415  0.00  0.00    +0.049 A 
ATOM     11  C   UNL     1      10.703   1.617   2.878  0.00  0.00    +0.007 A 
ATOM     12  C   UNL     1      10.119   0.664   2.045  0.00  0.00    -0.038 A 
ATOM     13  C   UNL     1      10.853  -0.568   1.575  0.00  0.00    +0.095 C 
ATOM     14  C   UNL     1      10.980  -0.689   0.035  0.00  0.00    +0.105 C 
ATOM     15  C   UNL     1      10.339  -2.024  -0.387  0.00  0.00    +0.050 A 
ATOM     16  C   UNL     1      11.111  -3.195  -0.353  0.00  0.00    -0.027 A 
ATOM     17  C   UNL     1      10.481  -4.448  -0.399  0.00  0.00    +0.054 A 
ATOM     18  C   UNL     1       9.087  -4.533  -0.334  0.00  0.00    +0.165 A 
ATOM     19  C   UNL     1       8.349  -3.359  -0.343  0.00  0.00    +0.202 A 
ATOM     20  C   UNL     1      12.606  -3.158  -0.358  0.00  0.00    +0.087 C 
ATOM     21  C   UNL     1      13.235  -1.836   0.041  0.00  0.00    +0.138 C 
ATOM     22  C   UNL     1       8.944  -2.120  -0.596  0.00  0.00    +0.182 A 
ATOM     23  O   UNL     1       8.362  -0.971  -1.078  0.00  0.00    -0.452 OA
ATOM     24  C   UNL     1       7.108  -0.883  -1.639  0.00  0.00    +0.129 A 
ATOM     25  C   UNL     1       6.276  -1.922  -2.033  0.00  0.00    +0.046 A 
ATOM     26  C   UNL     1       4.892  -1.738  -1.970  0.00  0.00    +0.007 A 
ATOM     27  C   UNL     1       4.380  -0.465  -1.706  0.00  0.00    -0.045 A 
ATOM     28  C   UNL     1       5.233   0.618  -1.849  0.00  0.00    +0.007 A 
ATOM     29  C   UNL     1       6.606   0.418  -1.715  0.00  0.00    +0.046 A 
ATOM     30  N   UNL     1      12.476  -0.596  -0.424  0.00  0.00    +0.245 N 
ATOM     31  C   UNL     1      12.450  -0.408  -1.947  0.00  0.00    +0.193 C 
ATOM     32  C   UNL     1      13.230   0.613   0.148  0.00  0.00    +0.193 C 
ATOM     33  C   UNL     1       8.750   0.719   1.780  0.00  0.00    +0.054 A 
ATOM     34  C   UNL     1       3.573   0.682   2.756  0.00  0.00    -0.038 A 
ATOM     35  C   UNL     1       2.610   1.828   2.875  0.00  0.00    +0.051 C 
ATOM     36  C   UNL     1       1.776   2.102   1.611  0.00  0.00    +0.089 C 
ATOM     37  N   UNL     1       2.406   1.772   0.314  0.00  0.00    -0.298 NA
ATOM     38  C   UNL     1       3.461   2.728  -0.026  0.00  0.00    +0.105 C 
ATOM     39  C   UNL     1       3.014  -0.292  -1.086  0.00  0.00    +0.058 C 
ENDROOT
BRANCH   5  40
ATOM     40  O   UNL     1       5.864  -1.397   4.502  0.00  0.00    -0.491 OA
ATOM     41  C   UNL     1       6.716  -2.390   3.923  0.00  0.00    +0.277 C 
ENDBRANCH   5  40
BRANCH   9  42
ATOM     42  O   UNL     1       7.766   3.632   3.698  0.00  0.00    -0.503 OA
ATOM     43  H   UNL     1       8.323   4.426   3.713  0.00  0.00    +0.292 HD
ENDBRANCH   9  42
BRANCH  18  44
ATOM     44  O   UNL     1       8.368  -5.690  -0.285  0.00  0.00    -0.491 OA
ATOM     45  C   UNL     1       9.093  -6.910  -0.170  0.00  0.00    +0.277 C 
ENDBRANCH  18  44
BRANCH  19  46
ATOM     46  O   UNL     1       7.026  -3.463  -0.000  0.00  0.00    -0.501 OA
ATOM     47  H   UNL     1       6.816  -4.419   0.024  0.00  0.00    +0.292 HD
ENDBRANCH  19  46
TORSDOF 4
