REMARK  Name = 
REMARK  4 active torsions:
REMARK  status: ('A' for Active; 'I' for Inactive)
REMARK    1  A    between atoms: C_5  and  C_8
REMARK    2  A    between atoms: N_10  and  C_11
REMARK    3  A    between atoms: C_11  and  C_12
REMARK    4  A    between atoms: C_12  and  N_13
REMARK                            x       y       z     vdW  Elec       q    Type
REMARK                         _______ _______ _______ _____ _____    ______ ____
ROOT
ATOM      1  C   UNL     1       7.091   0.058  -0.228  0.00  0.00    +0.244 C 
ATOM      2  N   UNL     1       7.765  -1.121  -0.469  0.00  0.00    -0.310 N 
ATOM      3  H   UNL     1       7.277  -1.976  -0.700  0.00  0.00    +0.149 HD
ATOM      4  O   UNL     1       7.663   1.145  -0.225  0.00  0.00    -0.270 OA
ENDROOT
BRANCH   1   9
ATOM      5 CL   UNL     1       1.178   0.052   0.892  0.00  0.00    -0.084 Cl
ATOM      6  C   UNL     1       2.865   0.033   0.561  0.00  0.00    +0.041 A 
ATOM      7  C   UNL     1       3.533  -1.184   0.436  0.00  0.00    +0.021 A 
ATOM      8  C   UNL     1       4.910  -1.208   0.175  0.00  0.00    +0.014 A 
ATOM      9  C   UNL     1       5.620  -0.008   0.030  0.00  0.00    +0.037 A 
ATOM     10  C   UNL     1       4.931   1.211   0.161  0.00  0.00    +0.014 A 
ATOM     11  C   UNL     1       3.558   1.232   0.427  0.00  0.00    +0.021 A 
ENDBRANCH   1   9
BRANCH   2  12
ATOM     12  C   UNL     1       9.182  -1.087  -0.773  0.00  0.00    +0.120 C 
BRANCH  12  13
ATOM     13  C   UNL     1       9.788  -2.489  -0.949  0.00  0.00    +0.103 C 
BRANCH  13  14
ATOM     14  N   UNL     1       9.138  -3.320  -1.987  0.00  0.00    -0.297 NA
ATOM     15  C   UNL     1       9.748  -4.675  -2.027  0.00  0.00    +0.112 C 
ATOM     16  C   UNL     1      11.174  -4.704  -2.612  0.00  0.00    +0.175 C 
ATOM     17  O   UNL     1      11.215  -4.129  -3.923  0.00  0.00    -0.377 OA
ATOM     18  C   UNL     1      10.696  -2.793  -3.919  0.00  0.00    +0.175 C 
ATOM     19  C   UNL     1       9.266  -2.749  -3.352  0.00  0.00    +0.112 C 
ENDBRANCH  13  14
ENDBRANCH  12  13
ENDBRANCH   2  12
TORSDOF 4
