REMARK  Name = 
REMARK  8 active torsions:
REMARK  status: ('A' for Active; 'I' for Inactive)
REMARK    1  A    between atoms: O_1  and  C_2
REMARK    2  A    between atoms: C_2  and  C_3
REMARK    3  A    between atoms: C_3  and  O_5
REMARK    4  A    between atoms: C_3  and  C_10
REMARK    5  A    between atoms: O_5  and  P_6
REMARK    6  A    between atoms: P_6  and  O_7
REMARK    7  A    between atoms: P_6  and  O_8
REMARK    8  A    between atoms: C_10  and  O_11
REMARK                            x       y       z     vdW  Elec       q    Type
REMARK                         _______ _______ _______ _____ _____    ______ ____
ROOT
ATOM      1  C   UNL     1       2.911  -1.082   0.797  0.00  0.00    +0.263 C 
ENDROOT
BRANCH   1   2
ATOM      2  C   UNL     1       4.428  -1.112   0.993  0.00  0.00    +0.337 C 
ATOM      3  O   UNL     1       4.950  -1.556   2.009  0.00  0.00    -0.248 OA
BRANCH   2   4
ATOM      4  O   UNL     1       5.165  -0.670  -0.046  0.00  0.00    -0.479 OA
ATOM      5  H   UNL     1       4.633  -0.565  -0.878  0.00  0.00    +0.295 HD
ENDBRANCH   2   4
ENDBRANCH   1   2
BRANCH   1   6
ATOM      6  C   UNL     1       2.416   0.146   0.026  0.00  0.00    +0.199 C 
BRANCH   6   7
ATOM      7  O   UNL     1       2.944   0.161  -1.297  0.00  0.00    -0.392 OA
ATOM      8  H   UNL     1       2.335   0.683  -1.855  0.00  0.00    +0.210 HD
ENDBRANCH   6   7
ENDBRANCH   1   6
BRANCH   1   9
ATOM      9  O   UNL     1       2.387  -2.300   0.303  0.00  0.00    -0.270 OA
BRANCH   9  10
ATOM     10  P   UNL     1       2.754  -2.797  -1.163  0.00  0.00    +0.473 P 
ATOM     11  O   UNL     1       4.032  -2.349  -1.774  0.00  0.00    -0.227 OA
BRANCH  10  12
ATOM     12  O   UNL     1       1.428  -2.502  -2.003  0.00  0.00    -0.303 OA
ATOM     13  H   UNL     1       0.695  -3.059  -1.683  0.00  0.00    +0.222 HD
ENDBRANCH  10  12
BRANCH  10  14
ATOM     14  O   UNL     1       2.673  -4.387  -1.039  0.00  0.00    -0.303 OA
ATOM     15  H   UNL     1       3.547  -4.754  -0.794  0.00  0.00    +0.222 HD
ENDBRANCH  10  14
ENDBRANCH   9  10
ENDBRANCH   1   9
TORSDOF 8
