REMARK  Name = 
REMARK  12 active torsions:
REMARK  status: ('A' for Active; 'I' for Inactive)
REMARK    1  A    between atoms: O_1  and  C_2
REMARK    2  A    between atoms: C_2  and  C_3
REMARK    3  A    between atoms: C_6  and  O_8
REMARK    4  A    between atoms: O_8  and  C_9
REMARK    5  A    between atoms: C_11  and  O_13
REMARK    6  A    between atoms: C_14  and  O_16
REMARK    7  A    between atoms: C_17  and  O_19
REMARK    8  A    between atoms: C_21  and  C_23
REMARK    9  A    between atoms: C_23  and  O_24
REMARK   10  A    between atoms: C_25  and  O_27
REMARK   11  A    between atoms: C_28  and  O_30
REMARK   12  A    between atoms: C_31  and  O_33
REMARK                            x       y       z     vdW  Elec       q    Type
REMARK                         _______ _______ _______ _____ _____    ______ ____
ROOT
ATOM      1  O   UNL     1       0.605   2.653   0.716  0.00  0.00    -0.340 OA
ENDROOT
BRANCH   1   6
ATOM      2  C   UNL     1       2.731   1.547  -0.676  0.00  0.00    +0.178 C 
ATOM      3  C   UNL     1       3.711   1.273   0.483  0.00  0.00    +0.177 C 
ATOM      4  C   UNL     1       3.251   1.947   1.786  0.00  0.00    +0.179 C 
ATOM      5  C   UNL     1       2.882   3.405   1.526  0.00  0.00    +0.201 C 
ATOM      6  C   UNL     1       1.774   3.432   0.449  0.00  0.00    +0.282 C 
ATOM      7  O   UNL     1       2.350   2.934  -0.773  0.00  0.00    -0.341 OA
BRANCH   3   8
ATOM      8  O   UNL     1       3.791  -0.141   0.709  0.00  0.00    -0.386 OA
ATOM      9  H   UNL     1       4.139  -0.254   1.615  0.00  0.00    +0.210 HD
ENDBRANCH   3   8
BRANCH   4  10
ATOM     10  O   UNL     1       4.287   1.839   2.774  0.00  0.00    -0.386 OA
ATOM     11  H   UNL     1       4.238   2.629   3.346  0.00  0.00    +0.210 HD
ENDBRANCH   4  10
BRANCH   5  12
ATOM     12  O   UNL     1       2.540   4.090   2.735  0.00  0.00    -0.384 OA
ATOM     13  H   UNL     1       2.169   3.470   3.385  0.00  0.00    +0.210 HD
ENDBRANCH   5  12
BRANCH   2  14
ATOM     14  C   UNL     1       3.318   1.123  -2.032  0.00  0.00    +0.190 C 
BRANCH  14  15
ATOM     15  O   UNL     1       4.390   1.982  -2.426  0.00  0.00    -0.392 OA
ATOM     16  H   UNL     1       3.990   2.862  -2.555  0.00  0.00    +0.210 HD
ENDBRANCH  14  15
ENDBRANCH   2  14
ENDBRANCH   1   6
BRANCH   1  17
ATOM     17  C   UNL     1      -0.155   2.923   1.898  0.00  0.00    +0.183 C 
ATOM     18  C   UNL     1      -1.286   1.870   1.996  0.00  0.00    +0.178 C 
ATOM     19  O   UNL     1      -2.296   2.068   0.985  0.00  0.00    -0.341 OA
ATOM     20  C   UNL     1      -2.884   3.370   1.031  0.00  0.00    +0.279 C 
ATOM     21  C   UNL     1      -1.832   4.469   0.824  0.00  0.00    +0.201 C 
ATOM     22  C   UNL     1      -0.751   4.345   1.910  0.00  0.00    +0.179 C 
BRANCH  20  23
ATOM     23  O   UNL     1      -3.547   3.575   2.274  0.00  0.00    -0.365 OA
ATOM     24  H   UNL     1      -4.333   4.116   2.076  0.00  0.00    +0.213 HD
ENDBRANCH  20  23
BRANCH  21  25
ATOM     25  O   UNL     1      -1.268   4.380  -0.488  0.00  0.00    -0.384 OA
ATOM     26  H   UNL     1      -0.896   3.479  -0.586  0.00  0.00    +0.210 HD
ENDBRANCH  21  25
BRANCH  22  27
ATOM     27  O   UNL     1      -1.249   4.640   3.218  0.00  0.00    -0.386 OA
ATOM     28  H   UNL     1      -2.124   4.207   3.315  0.00  0.00    +0.210 HD
ENDBRANCH  22  27
BRANCH  18  29
ATOM     29  C   UNL     1      -0.747   0.441   1.834  0.00  0.00    +0.190 C 
BRANCH  29  30
ATOM     30  O   UNL     1      -1.784  -0.500   2.103  0.00  0.00    -0.392 OA
ATOM     31  H   UNL     1      -2.538  -0.232   1.545  0.00  0.00    +0.210 HD
ENDBRANCH  29  30
ENDBRANCH  18  29
ENDBRANCH   1  17
TORSDOF 12
