REMARK  Name = 
REMARK  5 active torsions:
REMARK  status: ('A' for Active; 'I' for Inactive)
REMARK    1  A    between atoms: C_5  and  C_6
REMARK    2  A    between atoms: C_5  and  O_7
REMARK    3  A    between atoms: C_8  and  C_9
REMARK    4  A    between atoms: C_16  and  C_18
REMARK    5  A    between atoms: C_26  and  C_27
REMARK                            x       y       z     vdW  Elec       q    Type
REMARK                         _______ _______ _______ _____ _____    ______ ____
ROOT
ATOM      1  C   UNL     1      -0.348  -0.088  -0.118  0.00  0.00    +0.001 C 
ATOM      2  C   UNL     1      -0.348  -0.088  -0.118  0.00  0.00    -0.000 C 
ATOM      3  C   UNL     1      -0.348  -0.088  -0.118  0.00  0.00    -0.006 C 
ATOM      4  C   UNL     1       2.103  -1.454  -0.118  0.00  0.00    +0.008 C 
ATOM      5  C   UNL     1      -0.348  -0.088  -0.118  0.00  0.00    +0.035 C 
ATOM      6  C   UNL     1      -0.348  -0.088  -0.118  0.00  0.00    -0.060 C 
ATOM      7  C   UNL     1      -0.348  -0.088  -0.118  0.00  0.00    -0.007 C 
ATOM      8  C   UNL     1       3.149  -0.083  -0.121  0.00  0.00    +0.016 C 
ATOM      9  C   UNL     1       1.413   2.473   0.331  0.00  0.00    +0.019 C 
ATOM     10  C   UNL     1      -0.335   2.002  -0.131  0.00  0.00    +0.080 C 
ATOM     11  C   UNL     1      -0.348  -0.088  -0.118  0.00  0.00    +0.156 C 
ATOM     12  O   UNL     1      -0.348  -0.088  -0.118  0.00  0.00    -0.293 OA
ATOM     13  C   UNL     1      -0.348  -0.088  -0.118  0.00  0.00    +0.046 C 
ATOM     14  C   UNL     1      -0.348  -0.088  -0.118  0.00  0.00    +0.003 C 
ATOM     15  C   UNL     1      -0.348  -0.088  -0.118  0.00  0.00    +0.005 C 
ATOM     16  C   UNL     1      -0.348  -0.088  -0.118  0.00  0.00    +0.010 C 
ATOM     17  C   UNL     1      -0.348  -0.088  -0.118  0.00  0.00    -0.000 C 
ATOM     18  C   UNL     1      -0.348  -0.088  -0.118  0.00  0.00    +0.014 C 
ATOM     19  C   UNL     1      -0.348  -0.088  -0.118  0.00  0.00    +0.069 C 
ATOM     20  C   UNL     1      -0.348  -0.088  -0.118  0.00  0.00    +0.042 C 
ATOM     21  C   UNL     1      -0.348  -0.088  -0.118  0.00  0.00    +0.035 C 
ATOM     22  C   UNL     1      -0.348  -0.088  -0.118  0.00  0.00    +0.007 C 
ENDROOT
BRANCH  19  23
ATOM     23  O   UNL     1      -0.348  -0.088  -0.118  0.00  0.00    -0.388 OA
ATOM     24  H   UNL     1       0.000   0.000   0.000  0.00  0.00    +0.210 HD
ENDBRANCH  19  23
TORSDOF 1
