REMARK  Name = 
REMARK  12 active torsions:
REMARK  status: ('A' for Active; 'I' for Inactive)
REMARK    1  A    between atoms: C_1  and  C_2
REMARK    2  A    between atoms: C_2  and  N_3
REMARK    3  A    between atoms: N_3  and  C_4
REMARK    4  A    between atoms: N_3  and  C_7
REMARK    5  A    between atoms: C_4  and  C_5
REMARK    6  A    between atoms: C_5  and  O_6
REMARK    7  A    between atoms: C_7  and  C_8
REMARK    8  A    between atoms: C_8  and  C_9
REMARK    9  A    between atoms: C_9  and  C_10
REMARK   10  A    between atoms: C_10  and  C_11
REMARK   11  A    between atoms: C_10  and  N_12
REMARK   12  A    between atoms: N_12  and  C_13
REMARK                            x       y       z     vdW  Elec       q    Type
REMARK                         _______ _______ _______ _____ _____    ______ ____
ROOT
ATOM      1  N   UNL     1       8.530   3.571   2.440  0.00  0.00    -0.341 N 
ATOM      2  H   UNL     1       8.985   2.819   2.953  0.00  0.00    +0.146 HD
ENDROOT
BRANCH   1   3
ATOM      3  C   UNL     1       9.161   4.818   2.652  0.00  0.00    +0.038 A 
ATOM      4  C   UNL     1       8.538   6.003   2.240  0.00  0.00    +0.043 A 
ATOM      5  C   UNL     1       9.156   7.212   2.464  0.00  0.00    +0.113 A 
ATOM      6  N   UNL     1      10.366   7.343   3.031  0.00  0.00    -0.255 NA
ATOM      7  C   UNL     1      11.022   6.219   3.353  0.00  0.00    +0.074 A 
ATOM      8  C   UNL     1      12.290   6.384   3.882  0.00  0.00    +0.048 A 
ATOM      9  C   UNL     1      13.076   5.289   4.224  0.00  0.00    +0.043 A 
ATOM     10 CL   UNL     1      14.652   5.535   4.868  0.00  0.00    -0.083 Cl
ATOM     11  C   UNL     1      12.597   4.002   4.038  0.00  0.00    +0.021 A 
ATOM     12  C   UNL     1      11.314   3.815   3.516  0.00  0.00    +0.013 A 
ATOM     13  C   UNL     1      10.487   4.918   3.170  0.00  0.00    +0.021 A 
ENDBRANCH   1   3
BRANCH   1  14
ATOM     14  C   UNL     1       7.066   3.483   2.569  0.00  0.00    +0.067 C 
ATOM     15  C   UNL     1       6.687   3.349   4.047  0.00  0.00    +0.028 C 
BRANCH  14  16
ATOM     16  C   UNL     1       6.560   2.300   1.726  0.00  0.00    +0.023 C 
BRANCH  16  17
ATOM     17  C   UNL     1       5.028   2.296   1.626  0.00  0.00    +0.017 C 
BRANCH  17  18
ATOM     18  C   UNL     1       4.472   1.133   0.793  0.00  0.00    +0.084 C 
BRANCH  18  19
ATOM     19  N   UNL     1       4.861  -0.217   1.259  0.00  0.00    -0.300 NA
BRANCH  19  21
ATOM     20  C   UNL     1       4.789  -1.769   3.275  0.00  0.00    +0.020 C 
ATOM     21  C   UNL     1       4.405  -0.428   2.654  0.00  0.00    +0.081 C 
ENDBRANCH  19  21
BRANCH  19  22
ATOM     22  C   UNL     1       4.307  -1.263   0.358  0.00  0.00    +0.112 C 
BRANCH  22  23
ATOM     23  C   UNL     1       4.789  -1.193  -1.104  0.00  0.00    +0.171 C 
BRANCH  23  24
ATOM     24  O   UNL     1       6.211  -1.219  -1.177  0.00  0.00    -0.394 OA
ATOM     25  H   UNL     1       6.521  -0.589  -0.499  0.00  0.00    +0.209 HD
ENDBRANCH  23  24
ENDBRANCH  22  23
ENDBRANCH  19  22
ENDBRANCH  18  19
ENDBRANCH  17  18
ENDBRANCH  16  17
ENDBRANCH  14  16
ENDBRANCH   1  14
TORSDOF 10
