REMARK  Name = 
REMARK  14 active torsions:
REMARK  status: ('A' for Active; 'I' for Inactive)
REMARK    1  A    between atoms: O_1  and  C_2
REMARK    2  A    between atoms: C_2  and  C_4
REMARK    3  A    between atoms: C_2  and  C_10
REMARK    4  A    between atoms: C_4  and  O_5
REMARK    5  A    between atoms: O_5  and  P_6
REMARK    6  A    between atoms: P_6  and  O_7
REMARK    7  A    between atoms: P_6  and  O_8
REMARK    8  A    between atoms: C_10  and  O_12
REMARK    9  A    between atoms: C_10  and  C_13
REMARK   10  A    between atoms: C_13  and  O_15
REMARK   11  A    between atoms: C_13  and  C_16
REMARK   12  A    between atoms: C_16  and  O_18
REMARK   13  A    between atoms: C_16  and  C_19
REMARK   14  A    between atoms: C_19  and  O_20
REMARK                            x       y       z     vdW  Elec       q    Type
REMARK                         _______ _______ _______ _____ _____    ______ ____
ROOT
ATOM      1  C   UNL     1       3.008  -1.775   3.550  0.00  0.00    +0.177 C 
ENDROOT
BRANCH   1   2
ATOM      2  O   UNL     1       2.432  -0.901   4.536  0.00  0.00    -0.386 OA
ATOM      3  H   UNL     1       1.541  -1.271   4.712  0.00  0.00    +0.210 HD
ENDBRANCH   1   2
BRANCH   1   4
ATOM      4  C   UNL     1       2.827  -3.211   4.073  0.00  0.00    +0.172 C 
BRANCH   4   5
ATOM      5  O   UNL     1       1.410  -3.406   4.280  0.00  0.00    -0.387 OA
ATOM      6  H   UNL     1       1.317  -4.315   4.625  0.00  0.00    +0.210 HD
ENDBRANCH   4   5
BRANCH   4   7
ATOM      7  C   UNL     1       3.347  -4.265   3.102  0.00  0.00    +0.206 C 
BRANCH   7   8
ATOM      8  O   UNL     1       3.112  -5.547   3.668  0.00  0.00    -0.284 OA
BRANCH   8   9
ATOM      9  P   UNL     1       3.275  -6.775   2.666  0.00  0.00    +0.472 P 
ATOM     10  O   UNL     1       4.568  -6.886   1.923  0.00  0.00    -0.228 OA
BRANCH   9  11
ATOM     11  O   UNL     1       1.953  -6.757   1.781  0.00  0.00    -0.303 OA
ATOM     12  H   UNL     1       1.179  -7.005   2.316  0.00  0.00    +0.222 HD
ENDBRANCH   9  11
BRANCH   9  13
ATOM     13  O   UNL     1       2.999  -8.053   3.579  0.00  0.00    -0.303 OA
ATOM     14  H   UNL     1       3.841  -8.436   3.892  0.00  0.00    +0.222 HD
ENDBRANCH   9  13
ENDBRANCH   8   9
ENDBRANCH   7   8
ENDBRANCH   4   7
ENDBRANCH   1   4
BRANCH   1  15
ATOM     15  C   UNL     1       4.483  -1.393   3.290  0.00  0.00    +0.185 C 
BRANCH  15  16
ATOM     16  O   UNL     1       5.264  -1.566   4.485  0.00  0.00    -0.386 OA
ATOM     17  H   UNL     1       4.666  -1.416   5.243  0.00  0.00    +0.210 HD
ENDBRANCH  15  16
BRANCH  15  18
ATOM     18  C   UNL     1       4.695   0.015   2.696  0.00  0.00    +0.254 C 
BRANCH  18  19
ATOM     19  C   UNL     1       4.011   0.059   1.336  0.00  0.00    +0.336 C 
ATOM     20  O   UNL     1       4.402  -0.520   0.336  0.00  0.00    -0.248 OA
BRANCH  19  21
ATOM     21  O   UNL     1       2.849   0.768   1.383  0.00  0.00    -0.479 OA
ATOM     22  H   UNL     1       2.713   1.083   2.311  0.00  0.00    +0.295 HD
ENDBRANCH  19  21
ENDBRANCH  18  19
BRANCH  18  23
ATOM     23  O   UNL     1       4.167   1.080   3.501  0.00  0.00    -0.378 OA
ATOM     24  H   UNL     1       4.647   1.889   3.240  0.00  0.00    +0.211 HD
ENDBRANCH  18  23
ENDBRANCH  15  18
ENDBRANCH   1  15
TORSDOF 14
