REMARK  Name = 
REMARK  26 active torsions:
REMARK  status: ('A' for Active; 'I' for Inactive)
REMARK    1  A    between atoms: C_1  and  C_2
REMARK    2  A    between atoms: C_2  and  C_3
REMARK    3  A    between atoms: C_3  and  C_4
REMARK    4  A    between atoms: C_4  and  C_5
REMARK    5  A    between atoms: C_5  and  C_6
REMARK    6  A    between atoms: C_6  and  C_7
REMARK    7  A    between atoms: C_7  and  C_8
REMARK    8  A    between atoms: C_8  and  C_9
REMARK    9  A    between atoms: C_9  and  C_10
REMARK   10  A    between atoms: C_10  and  C_11
REMARK   11  A    between atoms: C_11  and  C_12
REMARK   12  A    between atoms: C_12  and  O_14
REMARK   13  A    between atoms: O_14  and  C_15
REMARK   14  A    between atoms: C_15  and  C_16
REMARK   15  A    between atoms: C_16  and  O_18
REMARK   16  A    between atoms: C_16  and  C_19
REMARK   17  A    between atoms: C_19  and  O_20
REMARK   18  A    between atoms: O_20  and  P_21
REMARK   19  A    between atoms: P_21  and  O_22
REMARK   20  A    between atoms: P_21  and  O_24
REMARK   21  A    between atoms: O_24  and  C_25
REMARK   22  A    between atoms: C_25  and  C_26
REMARK   23  A    between atoms: C_26  and  N_27
REMARK   24  A    between atoms: N_27  and  C_28
REMARK   25  A    between atoms: N_27  and  C_29
REMARK   26  A    between atoms: N_27  and  C_30
REMARK                            x       y       z     vdW  Elec       q    Type
REMARK                         _______ _______ _______ _____ _____    ______ ____
ROOT
ATOM      1  C   UNL     1      14.140   9.496   8.328  0.00  0.00    +0.178 C 
ENDROOT
BRANCH   1   2
ATOM      2  O   UNL     1      15.330   9.267   9.101  0.00  0.00    -0.386 OA
ATOM      3  H   UNL     1      15.379   9.974   9.770  0.00  0.00    +0.210 HD
ENDBRANCH   1   2
BRANCH   1   4
ATOM      4  C   UNL     1      13.007   8.676   8.980  0.00  0.00    +0.207 C 
BRANCH   4   5
ATOM      5  O   UNL     1      12.582   9.324  10.184  0.00  0.00    -0.284 OA
BRANCH   5   6
ATOM      6  P   UNL     1      12.272   8.570  11.568  0.00  0.00    +0.475 P 
ATOM      7  O   UNL     1      12.035   9.478  12.725  0.00  0.00    -0.227 OA
BRANCH   6   8
ATOM      8  O   UNL     1      13.518   7.593  11.782  0.00  0.00    -0.302 OA
ATOM      9  H   UNL     1      13.756   7.006  11.048  0.00  0.00    +0.222 HD
ENDBRANCH   6   8
BRANCH   6  10
ATOM     10  O   UNL     1      11.008   7.581  11.320  0.00  0.00    -0.281 OA
BRANCH  10  11
ATOM     11  C   UNL     1      10.980   6.299  11.933  0.00  0.00    +0.223 C 
BRANCH  11  12
ATOM     12  C   UNL     1       9.861   5.957  12.949  0.00  0.00    +0.161 C 
BRANCH  12  13
ATOM     13  N   UNL     1       8.396   6.174  12.524  0.00  0.00    +0.239 N 
ATOM     14  C   UNL     1       7.482   5.404  13.498  0.00  0.00    +0.192 C 
ATOM     15  C   UNL     1       8.113   5.667  11.121  0.00  0.00    +0.192 C 
ATOM     16  C   UNL     1       8.037   7.653  12.630  0.00  0.00    +0.192 C 
ENDBRANCH  12  13
ENDBRANCH  11  12
ENDBRANCH  10  11
ENDBRANCH   6  10
ENDBRANCH   5   6
ENDBRANCH   4   5
ENDBRANCH   1   4
BRANCH   1  17
ATOM     17  C   UNL     1      14.431   9.094   6.867  0.00  0.00    +0.265 C 
BRANCH  17  18
ATOM     18  O   UNL     1      15.404  10.003   6.290  0.00  0.00    -0.462 OA
BRANCH  18  19
ATOM     19  C   UNL     1      14.910  11.114   5.687  0.00  0.00    +0.307 C 
ATOM     20  O   UNL     1      13.706  11.339   5.530  0.00  0.00    -0.251 OA
BRANCH  19  21
ATOM     21  C   UNL     1      16.002  12.103   5.345  0.00  0.00    +0.120 C 
BRANCH  21  22
ATOM     22  C   UNL     1      17.028  11.581   4.343  0.00  0.00    +0.011 C 
BRANCH  22  23
ATOM     23  C   UNL     1      18.139  12.613   4.101  0.00  0.00    +0.001 C 
BRANCH  23  24
ATOM     24  C   UNL     1      19.176  12.087   3.107  0.00  0.00    +0.000 C 
BRANCH  24  25
ATOM     25  C   UNL     1      20.311  13.087   2.877  0.00  0.00    +0.000 C 
BRANCH  25  26
ATOM     26  C   UNL     1      21.325  12.535   1.873  0.00  0.00    +0.000 C 
BRANCH  26  27
ATOM     27  C   UNL     1      22.466  13.521   1.621  0.00  0.00    -0.000 C 
BRANCH  27  28
ATOM     28  C   UNL     1      23.472  12.956   0.616  0.00  0.00    -0.000 C 
BRANCH  28  29
ATOM     29  C   UNL     1      24.612  13.942   0.360  0.00  0.00    -0.000 C 
BRANCH  29  31
ATOM     30  C   UNL     1      26.752  14.366  -0.894  0.00  0.00    +0.004 C 
ATOM     31  C   UNL     1      25.621  13.382  -0.642  0.00  0.00    -0.003 C 
ENDBRANCH  29  31
ENDBRANCH  28  29
ENDBRANCH  27  28
ENDBRANCH  26  27
ENDBRANCH  25  26
ENDBRANCH  24  25
ENDBRANCH  23  24
ENDBRANCH  22  23
ENDBRANCH  21  22
ENDBRANCH  19  21
ENDBRANCH  18  19
ENDBRANCH  17  18
ENDBRANCH   1  17
TORSDOF 22
