REMARK  Name = 
REMARK  5 active torsions:
REMARK  status: ('A' for Active; 'I' for Inactive)
REMARK    1  A    between atoms: C5M_1  and  C5_2
REMARK    2  A    between atoms: N1_4  and  C1*_5
REMARK    3  A    between atoms: C3*_8  and  O3*_10
REMARK    4  A    between atoms: C4*_11  and  C5*_13
REMARK    5  A    between atoms: C5*_13  and  O5*_14
REMARK                            x       y       z     vdW  Elec       q    Type
REMARK                         _______ _______ _______ _____ _____    ______ ____
ROOT
ATOM      1  C5M   T A   1       8.198   0.604  -3.979  0.00  0.00    +0.051 C 
ATOM      2  C5    T A   1       7.092   1.516  -3.563  0.00  0.00    +0.030 A 
ATOM      3  C4    T A   1       6.272   2.126  -4.631  0.00  0.00    +0.257 A 
ATOM      4  O4    T A   1       6.419   1.834  -5.812  0.00  0.00    -0.267 OA
ATOM      5  N3    T A   1       5.310   2.992  -4.211  0.00  0.00    -0.275 N 
ATOM      6  H3    T A   1       4.686   3.334  -4.926  0.00  0.00    +0.173 HD
ATOM      7  C2    T A   1       4.850   3.094  -2.926  0.00  0.00    +0.331 A 
ATOM      8  O2    T A   1       3.732   3.563  -2.728  0.00  0.00    -0.246 OA
ATOM      9  N1    T A   1       5.701   2.610  -1.938  0.00  0.00    -0.274 N 
ATOM     10  C6    T A   1       6.767   1.788  -2.293  0.00  0.00    +0.101 A 
ENDROOT
BRANCH   9  11
ATOM     11  C1*   T A   1       5.295   2.667  -0.521  0.00  0.00    +0.226 C 
ATOM     12  O4*   T A   1       6.488   2.570   0.301  0.00  0.00    -0.348 OA
ATOM     13  C4*   T A   1       6.714   3.844   0.949  0.00  0.00    +0.175 C 
ATOM     14  C3*   T A   1       5.732   4.830   0.332  0.00  0.00    +0.150 C 
ATOM     15  C2*   T A   1       4.584   3.917  -0.011  0.00  0.00    +0.088 C 
BRANCH  14  16
ATOM     16  O3*   T A   1       5.365   5.867   1.230  0.00  0.00    -0.389 OA
ATOM     17  H3*   T A   1       4.623   5.569   1.784  0.00  0.00    +0.210 HD
ENDBRANCH  14  16
BRANCH  13  18
ATOM     18  C5*   T A   1       8.176   4.265   0.793  0.00  0.00    +0.190 C 
BRANCH  18  19
ATOM     19  O5*   T A   1       8.545   4.370  -0.581  0.00  0.00    -0.392 OA
ATOM     20  H5*   T A   1       8.333   3.511  -0.985  0.00  0.00    +0.210 HD
ENDBRANCH  18  19
ENDBRANCH  13  18
ENDBRANCH   9  11
TORSDOF 4
