REMARK  Name = 
REMARK  9 active torsions:
REMARK  status: ('A' for Active; 'I' for Inactive)
REMARK    1  A    between atoms: C_1  and  C_2
REMARK    2  A    between atoms: C_2  and  C_3
REMARK    3  A    between atoms: C_2  and  S_4
REMARK    4  A    between atoms: S_4  and  C_5
REMARK    5  A    between atoms: C_8  and  C_10
REMARK    6  A    between atoms: C_10  and  O_11
REMARK    7  A    between atoms: C_12  and  O_14
REMARK    8  A    between atoms: C_15  and  O_17
REMARK    9  A    between atoms: C_18  and  O_20
REMARK                            x       y       z     vdW  Elec       q    Type
REMARK                         _______ _______ _______ _____ _____    ______ ____
ROOT
ATOM      1  C   UNL     1       4.955   1.629  -0.399  0.00  0.00    +0.207 C 
ATOM      2  C   UNL     1       5.311   2.785  -1.356  0.00  0.00    +0.184 C 
ATOM      3  C   UNL     1       4.865   2.418  -2.780  0.00  0.00    +0.177 C 
ATOM      4  C   UNL     1       5.376   1.035  -3.196  0.00  0.00    +0.176 C 
ATOM      5  C   UNL     1       4.926   0.009  -2.154  0.00  0.00    +0.176 C 
ATOM      6  O   UNL     1       5.431   0.360  -0.856  0.00  0.00    -0.355 OA
ENDROOT
BRANCH   2   7
ATOM      7  O   UNL     1       4.634   3.984  -0.938  0.00  0.00    -0.386 OA
ATOM      8  H   UNL     1       4.252   4.406  -1.730  0.00  0.00    +0.210 HD
ENDBRANCH   2   7
BRANCH   3   9
ATOM      9  O   UNL     1       5.316   3.412  -3.711  0.00  0.00    -0.386 OA
ATOM     10  H   UNL     1       5.342   2.984  -4.586  0.00  0.00    +0.210 HD
ENDBRANCH   3   9
BRANCH   4  11
ATOM     11  O   UNL     1       4.891   0.743  -4.513  0.00  0.00    -0.386 OA
ATOM     12  H   UNL     1       3.938   0.545  -4.464  0.00  0.00    +0.210 HD
ENDBRANCH   4  11
BRANCH   1  13
ATOM     13  S   UNL     1       5.636   1.957   1.275  0.00  0.00    -0.124 S 
BRANCH  13  15
ATOM     14  C   UNL     1       5.445   0.622   3.637  0.00  0.00    +0.019 C 
ATOM     15  C   UNL     1       4.890   0.574   2.215  0.00  0.00    +0.043 C 
ATOM     16  C   UNL     1       3.365   0.659   2.245  0.00  0.00    +0.019 C 
ENDBRANCH  13  15
ENDBRANCH   1  13
BRANCH   5  17
ATOM     17  C   UNL     1       5.426  -1.402  -2.492  0.00  0.00    +0.190 C 
BRANCH  17  18
ATOM     18  O   UNL     1       4.924  -2.313  -1.527  0.00  0.00    -0.392 OA
ATOM     19  H   UNL     1       5.222  -1.986  -0.660  0.00  0.00    +0.210 HD
ENDBRANCH  17  18
ENDBRANCH   5  17
TORSDOF 7
