REMARK  Name = 
REMARK  5 active torsions:
REMARK  status: ('A' for Active; 'I' for Inactive)
REMARK    1  A    between atoms: N_3  and  CA_4
REMARK    2  A    between atoms: CA_9  and  C_11
REMARK    3  A    between atoms: C_11  and  O_12
REMARK    4  A    between atoms: C_14  and  C_15
REMARK    5  A    between atoms: C_14  and  C_16
REMARK                            x       y       z     vdW  Elec       q    Type
REMARK                         _______ _______ _______ _____ _____    ______ ____
ROOT
ATOM      1  CA  UNL     1       2.003  -1.640  -1.612  0.00  0.00    +0.223 C 
ATOM      2  C   UNL     1       2.798  -2.658  -2.479  0.00  0.00    +0.169 C 
ATOM      3  N   UNL     1       2.514  -1.819  -3.668  0.00  0.00    -0.270 N 
ATOM      4  CA  UNL     1       1.950  -2.503  -4.851  0.00  0.00    +0.201 C 
ATOM      5  C   UNL     1       1.162  -3.736  -4.345  0.00  0.00    +0.042 C 
ATOM      6  C   UNL     1      -0.279  -3.369  -3.938  0.00  0.00    +0.025 C 
ATOM      7  C   UNL     1       1.060  -4.910  -5.324  0.00  0.00    +0.025 C 
ATOM      8  S   UNL     1       2.065  -4.298  -2.836  0.00  0.00    -0.127 S 
ATOM      9  C   UNL     1       1.715  -0.945  -2.974  0.00  0.00    +0.244 C 
ATOM     10  O   UNL     1       0.988  -0.071  -3.389  0.00  0.00    -0.273 OA
ENDROOT
BRANCH   1  19
ATOM     11  C   UNL     1      -0.110  -1.432  -0.642  0.00  0.00    +0.179 C 
ATOM     12  N   UNL     1      -1.303  -1.792  -0.062  0.00  0.00    -0.321 N 
ATOM     13  C   UNL     1      -2.204  -0.778   0.482  0.00  0.00    +0.106 C 
ATOM     14  C   UNL     1      -3.499  -0.724  -0.319  0.00  0.00    +0.019 C 
ATOM     15  C   UNL     1      -4.569  -1.714   0.141  0.00  0.00    +0.002 C 
ATOM     16  C   UNL     1      -4.092  -3.092   0.595  0.00  0.00    +0.002 C 
ATOM     17  C   UNL     1      -2.934  -3.669  -0.216  0.00  0.00    +0.019 C 
ATOM     18  C   UNL     1      -1.567  -3.191   0.279  0.00  0.00    +0.106 C 
ATOM     19  N   UNL     1       0.852  -2.242  -0.929  0.00  0.00    -0.261 NA
ENDBRANCH   1  19
BRANCH   4  20
ATOM     20  C   UNL     1       3.093  -2.812  -5.832  0.00  0.00    +0.327 C 
ATOM     21  OXT UNL     1       2.949  -3.365  -6.913  0.00  0.00    -0.249 OA
BRANCH  20  22
ATOM     22  O   UNL     1       4.307  -2.369  -5.420  0.00  0.00    -0.479 OA
ATOM     23  H   UNL     1       4.213  -1.875  -4.581  0.00  0.00    +0.295 HD
ENDBRANCH  20  22
ENDBRANCH   4  20
TORSDOF 3
