REMARK  Name = 
REMARK  19 active torsions:
REMARK  status: ('A' for Active; 'I' for Inactive)
REMARK    1  A    between atoms: C_1  and  C_2
REMARK    2  A    between atoms: C_2  and  C_3
REMARK    3  A    between atoms: C_2  and  C_4
REMARK    4  A    between atoms: C_4  and  N_5
REMARK    5  A    between atoms: N_5  and  C_6
REMARK    6  A    between atoms: N_5  and  S_33
REMARK    7  A    between atoms: C_6  and  C_7
REMARK    8  A    between atoms: C_7  and  O_9
REMARK    9  A    between atoms: C_7  and  C_14
REMARK   10  A    between atoms: O_9  and  P_10
REMARK   11  A    between atoms: P_10  and  O_11
REMARK   12  A    between atoms: P_10  and  O_12
REMARK   13  A    between atoms: C_14  and  C_16
REMARK   14  A    between atoms: C_14  and  N_23
REMARK   15  A    between atoms: C_16  and  C_17
REMARK   16  A    between atoms: C_24  and  O_26
REMARK   17  A    between atoms: O_26  and  C_27
REMARK   18  A    between atoms: S_33  and  C_36
REMARK   19  A    between atoms: C_39  and  N_40
REMARK                            x       y       z     vdW  Elec       q    Type
REMARK                         _______ _______ _______ _____ _____    ______ ____
ROOT
ATOM      1  C   UNL     1       4.851  -2.709  -2.658  0.00  0.00    +0.166 C 
ENDROOT
BRANCH   1   2
ATOM      2  C   UNL     1       5.362  -2.778  -1.178  0.00  0.00    +0.111 C 
BRANCH   2   3
ATOM      3  N   UNL     1       6.355  -3.839  -0.989  0.00  0.00    -0.275 N 
ATOM      4  H   UNL     1       5.993  -4.793  -1.017  0.00  0.00    +0.152 HD
ATOM      5  C   UNL     1       7.637  -3.774  -1.436  0.00  0.00    +0.401 C 
ATOM      6  O   UNL     1       8.215  -2.752  -1.772  0.00  0.00    -0.226 OA
BRANCH   5   7
ATOM      7  O   UNL     1       8.132  -5.030  -1.566  0.00  0.00    -0.445 OA
BRANCH   7   8
ATOM      8  C   UNL     1       9.331  -5.108  -2.334  0.00  0.00    +0.206 C 
ATOM      9  C   UNL     1       9.705  -6.548  -2.657  0.00  0.00    +0.204 C 
ATOM     10  O   UNL     1      11.138  -6.591  -2.785  0.00  0.00    -0.376 OA
ATOM     11  C   UNL     1      11.654  -5.312  -2.387  0.00  0.00    +0.163 C 
ATOM     12  C   UNL     1      10.561  -4.643  -1.591  0.00  0.00    +0.075 C 
ENDBRANCH   7   8
ENDBRANCH   5   7
ENDBRANCH   2   3
BRANCH   2  13
ATOM     13  C   UNL     1       5.750  -1.390  -0.602  0.00  0.00    +0.060 C 
BRANCH  13  14
ATOM     14  C   UNL     1       5.882  -1.382   0.908  0.00  0.00    -0.046 A 
ATOM     15  C   UNL     1       4.753  -1.241   1.729  0.00  0.00    +0.004 A 
ATOM     16  C   UNL     1       4.872  -1.315   3.120  0.00  0.00    +0.000 A 
ATOM     17  C   UNL     1       6.120  -1.518   3.706  0.00  0.00    +0.000 A 
ATOM     18  C   UNL     1       7.253  -1.620   2.903  0.00  0.00    +0.000 A 
ATOM     19  C   UNL     1       7.136  -1.548   1.512  0.00  0.00    +0.004 A 
ENDBRANCH  13  14
ENDBRANCH   2  13
ENDBRANCH   1   2
BRANCH   1  20
ATOM     20  O   UNL     1       4.516  -4.008  -3.147  0.00  0.00    -0.280 OA
BRANCH  20  21
ATOM     21  P   UNL     1       3.363  -4.994  -2.316  0.00  0.00    +0.473 P 
ATOM     22  O   UNL     1       2.332  -5.877  -1.571  0.00  0.00    -0.228 OA
BRANCH  21  23
ATOM     23  O   UNL     1       3.232  -5.796  -3.741  0.00  0.00    -0.303 OA
ATOM     24  H   UNL     1       2.626  -5.313  -4.335  0.00  0.00    +0.222 HD
ENDBRANCH  21  23
BRANCH  21  25
ATOM     25  O   UNL     1       4.630  -5.854  -1.734  0.00  0.00    -0.303 OA
ATOM     26  H   UNL     1       4.271  -6.761  -1.638  0.00  0.00    +0.222 HD
ENDBRANCH  21  25
ENDBRANCH  20  21
ENDBRANCH   1  20
BRANCH   1  27
ATOM     27  C   UNL     1       5.891  -2.161  -3.665  0.00  0.00    +0.143 C 
BRANCH  27  28
ATOM     28  N   UNL     1       5.493  -2.101  -5.158  0.00  0.00    -0.174 NA
BRANCH  28  29
ATOM     29  S   UNL     1       3.964  -1.299  -5.369  0.00  0.00    +0.061 S 
ATOM     30  O   UNL     1       4.161   0.075  -4.948  0.00  0.00    -0.153 OA
ATOM     31  O   UNL     1       2.940  -2.103  -4.730  0.00  0.00    -0.153 OA
BRANCH  29  32
ATOM     32  C   UNL     1       3.546  -1.294  -7.095  0.00  0.00    +0.106 A 
ATOM     33  C   UNL     1       3.267  -0.087  -7.746  0.00  0.00    +0.030 A 
ATOM     34  C   UNL     1       2.885  -0.094  -9.093  0.00  0.00    +0.024 A 
ATOM     35  C   UNL     1       2.810  -1.293  -9.805  0.00  0.00    +0.025 A 
ATOM     36  C   UNL     1       2.924  -2.494  -9.099  0.00  0.00    +0.024 A 
ATOM     37  C   UNL     1       3.309  -2.502  -7.751  0.00  0.00    +0.030 A 
BRANCH  35  38
ATOM     38  N   UNL     1       2.405  -1.295 -11.146  0.00  0.00    -0.358 N 
ATOM     39  H   UNL     1       2.681  -0.455 -11.649  0.00  0.00    +0.142 HD
ATOM     40  H   UNL     1       2.686  -2.132 -11.649  0.00  0.00    +0.142 HD
ENDBRANCH  35  38
ENDBRANCH  29  32
ENDBRANCH  28  29
BRANCH  28  41
ATOM     41  C   UNL     1       6.652  -1.514  -5.973  0.00  0.00    +0.112 C 
BRANCH  41  43
ATOM     42  C   UNL     1       8.114  -3.545  -6.654  0.00  0.00    +0.008 C 
ATOM     43  C   UNL     1       8.015  -2.267  -5.815  0.00  0.00    -0.001 C 
ATOM     44  C   UNL     1       9.216  -1.368  -6.145  0.00  0.00    +0.008 C 
ENDBRANCH  41  43
ENDBRANCH  28  41
ENDBRANCH  27  28
ENDBRANCH   1  27
TORSDOF 17
