REMARK  Name = 
REMARK  7 active torsions:
REMARK  status: ('A' for Active; 'I' for Inactive)
REMARK    1  A    between atoms: O_1  and  C_2
REMARK    2  A    between atoms: C_5  and  N_16
REMARK    3  A    between atoms: C_8  and  C_10
REMARK    4  A    between atoms: C_10  and  O_11
REMARK    5  A    between atoms: O_11  and  P_12
REMARK    6  A    between atoms: P_12  and  O_13
REMARK    7  A    between atoms: P_12  and  O_14
REMARK                            x       y       z     vdW  Elec       q    Type
REMARK                         _______ _______ _______ _____ _____    ______ ____
ROOT
ATOM      1  C   UNL     1       2.470   0.090   0.007  0.00  0.00    +0.150 C 
ATOM      2  C   UNL     1       3.072  -1.137   0.699  0.00  0.00    +0.175 C 
ATOM      3  O   UNL     1       4.215  -0.691   1.461  0.00  0.00    -0.348 OA
ATOM      4  C   UNL     1       4.456   0.695   1.159  0.00  0.00    +0.226 C 
ATOM      5  C   UNL     1       3.093   1.247   0.751  0.00  0.00    +0.088 C 
ENDROOT
BRANCH   4   6
ATOM      6  N   UNL     1       5.514   0.818   0.139  0.00  0.00    -0.273 N 
ATOM      7  C   UNL     1       5.918   2.105  -0.203  0.00  0.00    +0.331 A 
ATOM      8  O   UNL     1       5.444   3.128   0.284  0.00  0.00    -0.246 OA
ATOM      9  N   UNL     1       6.924   2.185  -1.130  0.00  0.00    -0.274 N 
ATOM     10  H   UNL     1       7.237   3.111  -1.376  0.00  0.00    +0.173 HD
ATOM     11  C   UNL     1       7.675   1.144  -1.607  0.00  0.00    +0.268 A 
ATOM     12  O   UNL     1       8.654   1.337  -2.319  0.00  0.00    -0.267 OA
ATOM     13  C   UNL     1       7.234  -0.209  -1.181  0.00  0.00    +0.098 A 
ATOM     14 BR   UNL     1       8.134  -1.710  -1.809  0.00  0.00    -0.043 Br
ATOM     15  C   UNL     1       6.199  -0.287  -0.332  0.00  0.00    +0.113 A 
ENDBRANCH   4   6
BRANCH   1  16
ATOM     16  O   UNL     1       2.845   0.153  -1.371  0.00  0.00    -0.389 OA
ATOM     17  H   UNL     1       3.802   0.001  -1.447  0.00  0.00    +0.210 HD
ENDBRANCH   1  16
BRANCH   2  18
ATOM     18  C   UNL     1       2.103  -1.845   1.638  0.00  0.00    +0.206 C 
BRANCH  18  19
ATOM     19  O   UNL     1       1.011  -2.337   0.881  0.00  0.00    -0.284 OA
BRANCH  19  20
ATOM     20  P   UNL     1      -0.178  -3.171   1.822  0.00  0.00    +0.472 P 
ATOM     21  O   UNL     1      -1.242  -3.917   2.663  0.00  0.00    -0.228 OA
BRANCH  20  22
ATOM     22  O   UNL     1      -0.929  -3.482   0.402  0.00  0.00    -0.303 OA
ATOM     23  H   UNL     1      -1.238  -4.407   0.408  0.00  0.00    +0.222 HD
ENDBRANCH  20  22
BRANCH  20  24
ATOM     24  O   UNL     1      -0.872  -1.700   2.002  0.00  0.00    -0.303 OA
ATOM     25  H   UNL     1      -1.394  -1.546   1.193  0.00  0.00    +0.222 HD
ENDBRANCH  20  24
ENDBRANCH  19  20
ENDBRANCH  18  19
ENDBRANCH   2  18
TORSDOF 7
