REMARK  Name = 
REMARK  17 active torsions:
REMARK  status: ('A' for Active; 'I' for Inactive)
REMARK    1  A    between atoms: O_1  and  C_2
REMARK    2  A    between atoms: C_2  and  C_3
REMARK    3  A    between atoms: C_6  and  O_8
REMARK    4  A    between atoms: O_8  and  P_9
REMARK    5  A    between atoms: P_9  and  O_10
REMARK    6  A    between atoms: P_9  and  O_12
REMARK    7  A    between atoms: O_12  and  P_13
REMARK    8  A    between atoms: P_13  and  O_14
REMARK    9  A    between atoms: P_13  and  O_16
REMARK   10  A    between atoms: O_16  and  C_17
REMARK   11  A    between atoms: C_17  and  C_18
REMARK   12  A    between atoms: C_21  and  N_29
REMARK   13  A    between atoms: C_23  and  O_25
REMARK   14  A    between atoms: C_26  and  O_28
REMARK   15  A    between atoms: C_37  and  O_39
REMARK   16  A    between atoms: C_40  and  O_42
REMARK   17  A    between atoms: C_43  and  O_45
REMARK                            x       y       z     vdW  Elec       q    Type
REMARK                         _______ _______ _______ _____ _____    ______ ____
ROOT
ATOM      1  P   UNL     1      10.181  -0.558   7.331  0.00  0.00    +0.483 P 
ATOM      2  O   UNL     1       9.564   0.668   6.649  0.00  0.00    -0.227 OA
ENDROOT
BRANCH   1   3
ATOM      3  O   UNL     1      10.685   0.049   8.755  0.00  0.00    -0.302 OA
ATOM      4  H   UNL     1      10.316   0.957   8.815  0.00  0.00    +0.222 HD
ENDBRANCH   1   3
BRANCH   1   5
ATOM      5  O   UNL     1      11.700  -0.142   6.614  0.00  0.00    -0.186 OA
BRANCH   5   6
ATOM      6  P   UNL     1      12.876  -1.345   7.017  0.00  0.00    +0.486 P 
ATOM      7  O   UNL     1      12.616  -2.113   5.724  0.00  0.00    -0.227 OA
BRANCH   6   8
ATOM      8  O   UNL     1      14.052  -2.548   7.420  0.00  0.00    -0.302 OA
ATOM      9  H   UNL     1      14.125  -3.071   6.594  0.00  0.00    +0.222 HD
ENDBRANCH   6   8
BRANCH   6  10
ATOM     10  O   UNL     1      14.087  -0.249   6.789  0.00  0.00    -0.254 OA
BRANCH  10  15
ATOM     11  C   UNL     1      13.559   1.881   9.712  0.00  0.00    +0.178 C 
ATOM     12  C   UNL     1      14.758   2.838   9.642  0.00  0.00    +0.177 C 
ATOM     13  C   UNL     1      15.062   3.156   8.174  0.00  0.00    +0.179 C 
ATOM     14  C   UNL     1      15.211   1.877   7.330  0.00  0.00    +0.202 C 
ATOM     15  C   UNL     1      13.990   0.951   7.563  0.00  0.00    +0.293 C 
ATOM     16  O   UNL     1      13.824   0.673   8.963  0.00  0.00    -0.340 OA
BRANCH  12  17
ATOM     17  O   UNL     1      14.475   4.023  10.394  0.00  0.00    -0.386 OA
ATOM     18  H   UNL     1      14.019   4.667   9.824  0.00  0.00    +0.210 HD
ENDBRANCH  12  17
BRANCH  13  19
ATOM     19  O   UNL     1      16.244   3.959   8.074  0.00  0.00    -0.386 OA
ATOM     20  H   UNL     1      16.530   3.923   7.140  0.00  0.00    +0.210 HD
ENDBRANCH  13  19
BRANCH  14  21
ATOM     21  O   UNL     1      15.354   2.291   5.958  0.00  0.00    -0.384 OA
ATOM     22  H   UNL     1      14.496   2.622   5.636  0.00  0.00    +0.210 HD
ENDBRANCH  14  21
BRANCH  11  23
ATOM     23  C   UNL     1      13.222   1.553  11.175  0.00  0.00    +0.190 C 
BRANCH  23  24
ATOM     24  O   UNL     1      12.072   0.715  11.250  0.00  0.00    -0.392 OA
ATOM     25  H   UNL     1      12.297  -0.105  10.776  0.00  0.00    +0.210 HD
ENDBRANCH  23  24
ENDBRANCH  11  23
ENDBRANCH  10  15
ENDBRANCH   6  10
ENDBRANCH   5   6
ENDBRANCH   1   5
BRANCH   1  26
ATOM     26  O   UNL     1       8.662  -0.973   8.048  0.00  0.00    -0.284 OA
BRANCH  26  27
ATOM     27  C   UNL     1       7.669  -1.258   7.046  0.00  0.00    +0.206 C 
BRANCH  27  28
ATOM     28  C   UNL     1       6.317  -1.592   7.673  0.00  0.00    +0.178 C 
ATOM     29  C   UNL     1       5.261  -1.857   6.599  0.00  0.00    +0.178 C 
ATOM     30  C   UNL     1       5.256  -3.372   6.421  0.00  0.00    +0.195 C 
ATOM     31  C   UNL     1       6.165  -3.901   7.552  0.00  0.00    +0.255 C 
ATOM     32  O   UNL     1       6.410  -2.803   8.441  0.00  0.00    -0.346 OA
BRANCH  31  33
ATOM     33  N   UNL     1       5.608  -5.046   8.271  0.00  0.00    -0.271 N 
ATOM     34  C   UNL     1       5.353  -6.191   7.523  0.00  0.00    +0.331 A 
ATOM     35  O   UNL     1       5.521  -6.259   6.310  0.00  0.00    -0.246 OA
ATOM     36  N   UNL     1       4.877  -7.265   8.225  0.00  0.00    -0.275 N 
ATOM     37  H   UNL     1       4.677  -8.103   7.703  0.00  0.00    +0.173 HD
ATOM     38  C   UNL     1       4.658  -7.313   9.572  0.00  0.00    +0.254 A 
ATOM     39  O   UNL     1       4.235  -8.298  10.157  0.00  0.00    -0.268 OA
ATOM     40  C   UNL     1       4.981  -6.079  10.310  0.00  0.00    +0.088 A 
ATOM     41  C   UNL     1       5.441  -5.026   9.644  0.00  0.00    +0.098 A 
ENDBRANCH  31  33
BRANCH  30  42
ATOM     42  O   UNL     1       5.781  -3.737   5.140  0.00  0.00    -0.385 OA
ATOM     43  H   UNL     1       5.676  -4.713   5.077  0.00  0.00    +0.210 HD
ENDBRANCH  30  42
BRANCH  29  44
ATOM     44  O   UNL     1       3.973  -1.416   7.054  0.00  0.00    -0.386 OA
ATOM     45  H   UNL     1       3.825  -1.763   7.952  0.00  0.00    +0.210 HD
ENDBRANCH  29  44
ENDBRANCH  27  28
ENDBRANCH  26  27
ENDBRANCH   1  26
TORSDOF 17
