REMARK  Name = 
REMARK  9 active torsions:
REMARK  status: ('A' for Active; 'I' for Inactive)
REMARK    1  A    between atoms: N_1  and  C_2
REMARK    2  A    between atoms: N_6  and  C_7
REMARK    3  A    between atoms: C_10  and  C_12
REMARK    4  A    between atoms: C_12  and  O_13
REMARK    5  A    between atoms: O_13  and  P_14
REMARK    6  A    between atoms: P_14  and  O_15
REMARK    7  A    between atoms: P_14  and  O_16
REMARK    8  A    between atoms: C_18  and  O_20
REMARK    9  A    between atoms: C_21  and  O_23
REMARK                            x       y       z     vdW  Elec       q    Type
REMARK                         _______ _______ _______ _____ _____    ______ ____
ROOT
ATOM      1  C   UNL     1       6.250  -3.098  -0.032  0.00  0.00    +0.253 C 
ATOM      2  C   UNL     1       6.277  -4.428   0.722  0.00  0.00    +0.195 C 
ATOM      3  C   UNL     1       7.704  -4.523   1.260  0.00  0.00    +0.178 C 
ATOM      4  C   UNL     1       8.202  -3.072   1.263  0.00  0.00    +0.178 C 
ATOM      5  O   UNL     1       7.131  -2.254   0.738  0.00  0.00    -0.346 OA
ENDROOT
BRANCH   1  12
ATOM      6  C   UNL     1       7.933  -3.886  -4.545  0.00  0.00    +0.150 A 
ATOM      7  N   UNL     1       8.233  -5.194  -4.376  0.00  0.00    -0.185 NA
ATOM      8  C   UNL     1       7.973  -5.759  -3.180  0.00  0.00    +0.313 A 
ATOM      9  F   UNL     1       8.291  -7.057  -3.062  0.00  0.00    -0.161 F 
ATOM     10  N   UNL     1       7.461  -5.174  -2.068  0.00  0.00    -0.182 NA
ATOM     11  C   UNL     1       7.174  -3.883  -2.288  0.00  0.00    +0.170 A 
ATOM     12  N   UNL     1       6.652  -2.965  -1.415  0.00  0.00    -0.285 N 
ATOM     13  C   UNL     1       6.625  -1.756  -2.075  0.00  0.00    +0.203 A 
ATOM     14  N   UNL     1       7.045  -1.857  -3.317  0.00  0.00    -0.231 NA
ATOM     15  C   UNL     1       7.392  -3.178  -3.465  0.00  0.00    +0.147 A 
BRANCH   6  16
ATOM     16  N   UNL     1       8.202  -3.302  -5.773  0.00  0.00    -0.341 N 
ATOM     17  H   UNL     1       8.883  -3.808  -6.322  0.00  0.00    +0.144 HD
ATOM     18  H   UNL     1       8.283  -2.289  -5.741  0.00  0.00    +0.144 HD
ENDBRANCH   6  16
ENDBRANCH   1  12
BRANCH   2  19
ATOM     19  O   UNL     1       5.820  -5.575   0.030  0.00  0.00    -0.385 OA
ATOM     20  H   UNL     1       6.469  -5.799  -0.670  0.00  0.00    +0.210 HD
ENDBRANCH   2  19
BRANCH   3  21
ATOM     21  O   UNL     1       7.740  -5.071   2.582  0.00  0.00    -0.386 OA
ATOM     22  H   UNL     1       7.071  -4.630   3.135  0.00  0.00    +0.210 HD
ENDBRANCH   3  21
BRANCH   4  23
ATOM     23  C   UNL     1       9.454  -2.939   0.388  0.00  0.00    +0.206 C 
BRANCH  23  24
ATOM     24  O   UNL     1       9.872  -1.581   0.276  0.00  0.00    -0.284 OA
BRANCH  24  25
ATOM     25  P   UNL     1      11.207  -1.461  -0.819  0.00  0.00    +0.472 P 
ATOM     26  O   UNL     1      12.401  -1.353  -1.799  0.00  0.00    -0.228 OA
BRANCH  25  27
ATOM     27  O   UNL     1      12.057  -0.968   0.493  0.00  0.00    -0.303 OA
ATOM     28  H   UNL     1      12.434  -1.716   0.986  0.00  0.00    +0.222 HD
ENDBRANCH  25  27
BRANCH  25  29
ATOM     29  O   UNL     1      10.591   0.019  -1.132  0.00  0.00    -0.303 OA
ATOM     30  H   UNL     1      10.764   0.564  -0.343  0.00  0.00    +0.222 HD
ENDBRANCH  25  29
ENDBRANCH  24  25
ENDBRANCH  23  24
ENDBRANCH   4  23
TORSDOF 9
