REMARK  Name = 
REMARK  7 active torsions:
REMARK  status: ('A' for Active; 'I' for Inactive)
REMARK    1  A    between atoms: O_1  and  C_2
REMARK    2  A    between atoms: C_2  and  C_4
REMARK    3  A    between atoms: C_2  and  C_10
REMARK    4  A    between atoms: C_4  and  O_6
REMARK    5  A    between atoms: C_4  and  C_7
REMARK    6  A    between atoms: C_7  and  O_8
REMARK    7  A    between atoms: C_10  and  O_11
REMARK                            x       y       z     vdW  Elec       q    Type
REMARK                         _______ _______ _______ _____ _____    ______ ____
ROOT
ATOM      1  C   UNL     1       2.408  -0.079   0.072  0.00  0.00    +0.262 C 
ENDROOT
BRANCH   1   2
ATOM      2  O   UNL     1       0.971  -0.134   0.140  0.00  0.00    -0.378 OA
ATOM      3  H   UNL     1       0.678   0.732   0.489  0.00  0.00    +0.211 HD
ENDBRANCH   1   2
BRANCH   1   4
ATOM      4  C   UNL     1       2.988  -1.473  -0.125  0.00  0.00    +0.337 C 
ATOM      5  O   UNL     1       4.182  -1.714  -0.206  0.00  0.00    -0.248 OA
BRANCH   4   6
ATOM      6  O   UNL     1       2.013  -2.404  -0.271  0.00  0.00    -0.479 OA
ATOM      7  H   UNL     1       1.140  -1.959  -0.148  0.00  0.00    +0.295 HD
ENDBRANCH   4   6
ENDBRANCH   1   4
BRANCH   1   8
ATOM      8  C   UNL     1       3.003   0.614   1.292  0.00  0.00    +0.262 C 
BRANCH   8   9
ATOM      9  C   UNL     1       2.679  -0.127   2.588  0.00  0.00    +0.337 C 
ATOM     10  O   UNL     1       2.917  -1.301   2.816  0.00  0.00    -0.248 OA
BRANCH   9  11
ATOM     11  O   UNL     1       2.076   0.687   3.495  0.00  0.00    -0.479 OA
ATOM     12  H   UNL     1       1.971   1.577   3.084  0.00  0.00    +0.295 HD
ENDBRANCH   9  11
ENDBRANCH   8   9
BRANCH   8  13
ATOM     13  O   UNL     1       2.425   1.943   1.393  0.00  0.00    -0.378 OA
ATOM     14  H   UNL     1       2.957   2.523   0.812  0.00  0.00    +0.211 HD
ENDBRANCH   8  13
ENDBRANCH   1   8
TORSDOF 7
