REMARK  Name = 
REMARK  12 active torsions:
REMARK  status: ('A' for Active; 'I' for Inactive)
REMARK    1  A    between atoms: C_5  and  O_6
REMARK    2  A    between atoms: O_6  and  C_7
REMARK    3  A    between atoms: C_7  and  C_8
REMARK    4  A    between atoms: N_17  and  C_18
REMARK    5  A    between atoms: C_23  and  C_25
REMARK    6  A    between atoms: C_25  and  C_26
REMARK    7  A    between atoms: C_25  and  O_27
REMARK    8  A    between atoms: C_25  and  C_28
REMARK    9  A    between atoms: C_28  and  C_29
REMARK   10  A    between atoms: C_29  and  C_30
REMARK   11  A    between atoms: C_31  and  O_32
REMARK   12  A    between atoms: O_32  and  C_33
REMARK                            x       y       z     vdW  Elec       q    Type
REMARK                         _______ _______ _______ _____ _____    ______ ____
ROOT
ATOM      1  C   UNL     1       3.197   0.082   0.373  0.00  0.00    +0.221 C 
ATOM      2  C   UNL     1       3.780  -0.762   1.569  0.00  0.00    +0.130 C 
ATOM      3  C   UNL     1       4.270  -2.094   0.976  0.00  0.00    +0.008 C 
ATOM      4  C   UNL     1       3.354  -2.856   0.357  0.00  0.00    -0.019 C 
ATOM      5  C   UNL     1       1.965  -2.209   0.267  0.00  0.00    +0.018 C 
ATOM      6  C   UNL     1       1.566  -2.133   1.754  0.00  0.00    +0.023 C 
ATOM      7  C   UNL     1       0.902  -2.883  -0.674  0.00  0.00    +0.072 C 
ATOM      8  C   UNL     1       1.506  -3.069  -2.126  0.00  0.00    +0.055 C 
ATOM      9  C   UNL     1       2.358  -1.903  -2.606  0.00  0.00    -0.038 A 
ATOM     10  C   UNL     1       2.770  -0.965  -1.657  0.00  0.00    +0.012 A 
ATOM     11  C   UNL     1       3.689   0.026  -1.853  0.00  0.00    +0.167 A 
ATOM     12  C   UNL     1       3.970   0.345  -3.157  0.00  0.00    +0.173 A 
ATOM     13  C   UNL     1       3.560  -0.532  -4.186  0.00  0.00    +0.050 A 
ATOM     14  C   UNL     1       2.814  -1.700  -3.900  0.00  0.00    +0.008 A 
ATOM     15  N   UNL     1      -0.329  -2.041  -0.592  0.00  0.00    -0.301 NA
ATOM     16  C   UNL     1      -1.597  -2.679  -0.875  0.00  0.00    +0.105 C 
ATOM     17  C   UNL     1      -0.217  -0.754  -1.275  0.00  0.00    +0.085 C 
ATOM     18  C   UNL     1       0.861   0.035  -0.562  0.00  0.00    +0.031 C 
ATOM     19  C   UNL     1       2.583  -1.241   2.571  0.00  0.00    +0.061 C 
ATOM     20  C   UNL     1       2.144  -0.785  -0.322  0.00  0.00    +0.051 C 
ATOM     21  O   UNL     1       4.103   0.599  -0.676  0.00  0.00    -0.481 OA
ENDROOT
BRANCH   2  22
ATOM     22  O   UNL     1       4.943  -0.246   2.197  0.00  0.00    -0.368 OA
ATOM     23  C   UNL     1       4.886   1.046   2.760  0.00  0.00    +0.195 C 
ENDBRANCH   2  22
BRANCH  19  24
ATOM     24  C   UNL     1       1.769  -0.293   3.545  0.00  0.00    +0.069 C 
ATOM     25  C   UNL     1       0.768   0.648   2.859  0.00  0.00    +0.041 C 
BRANCH  24  26
ATOM     26  O   UNL     1       2.625   0.591   4.255  0.00  0.00    -0.388 OA
ATOM     27  H   UNL     1       2.898   0.185   5.093  0.00  0.00    +0.210 HD
ENDBRANCH  24  26
BRANCH  24  28
ATOM     28  C   UNL     1       0.918  -1.113   4.585  0.00  0.00    +0.034 C 
BRANCH  28  29
ATOM     29  C   UNL     1       1.693  -1.999   5.570  0.00  0.00    -0.001 C 
ATOM     30  C   UNL     1       0.745  -2.689   6.537  0.00  0.00    +0.004 C 
ENDBRANCH  28  29
ENDBRANCH  24  28
ENDBRANCH  19  24
BRANCH  12  31
ATOM     31  O   UNL     1       4.529   1.573  -3.534  0.00  0.00    -0.422 OA
BRANCH  31  32
ATOM     32  C   UNL     1       3.806   2.693  -3.104  0.00  0.00    +0.309 C 
ATOM     33  O   UNL     1       2.825   2.717  -2.366  0.00  0.00    -0.251 OA
ATOM     34  C   UNL     1       4.321   3.927  -3.786  0.00  0.00    +0.136 C 
ENDBRANCH  31  32
ENDBRANCH  12  31
TORSDOF 7
