REMARK  Name = 
REMARK  41 active torsions:
REMARK  status: ('A' for Active; 'I' for Inactive)
REMARK    1  A    between atoms: C_1  and  C_2
REMARK    2  A    between atoms: C_2  and  O_4
REMARK    3  A    between atoms: C_2  and  C_5
REMARK    4  A    between atoms: C_10  and  C_103
REMARK    5  A    between atoms: C_15  and  C_17
REMARK    6  A    between atoms: C_17  and  C_18
REMARK    7  A    between atoms: C_18  and  C_19
REMARK    8  A    between atoms: C_19  and  N_20
REMARK    9  A    between atoms: N_20  and  O_21
REMARK   10  A    between atoms: C_27  and  N_36
REMARK   11  A    between atoms: C_37  and  C_39
REMARK   12  A    between atoms: C_39  and  C_41
REMARK   13  A    between atoms: C_39  and  N_48
REMARK   14  A    between atoms: C_41  and  C_42
REMARK   15  A    between atoms: C_42  and  C_43
REMARK   16  A    between atoms: C_43  and  N_44
REMARK   17  A    between atoms: N_44  and  O_45
REMARK   18  A    between atoms: C_49  and  C_51
REMARK   19  A    between atoms: C_51  and  C_53
REMARK   20  A    between atoms: C_51  and  N_55
REMARK   21  A    between atoms: C_53  and  O_54
REMARK   22  A    between atoms: C_56  and  C_58
REMARK   23  A    between atoms: C_58  and  C_60
REMARK   24  A    between atoms: C_58  and  N_67
REMARK   25  A    between atoms: C_60  and  C_61
REMARK   26  A    between atoms: C_61  and  C_62
REMARK   27  A    between atoms: C_62  and  N_63
REMARK   28  A    between atoms: C_68  and  C_70
REMARK   29  A    between atoms: C_70  and  C_72
REMARK   30  A    between atoms: C_70  and  N_74
REMARK   31  A    between atoms: C_72  and  O_73
REMARK   32  A    between atoms: C_75  and  C_77
REMARK   33  A    between atoms: C_87  and  O_88
REMARK   34  A    between atoms: C_89  and  O_90
REMARK   35  A    between atoms: C_94  and  N_95
REMARK   36  A    between atoms: C_96  and  C_98
REMARK   37  A    between atoms: C_98  and  C_99
REMARK   38  A    between atoms: C_99  and  C_100
REMARK   39  A    between atoms: C_100  and  O_101
REMARK   40  A    between atoms: C_103  and  C_105
REMARK   41  A    between atoms: C_103  and  O_106
REMARK                            x       y       z     vdW  Elec       q    Type
REMARK                         _______ _______ _______ _____ _____    ______ ____
ROOT
ATOM      1  C   UNK A   1       2.739   6.250 -16.038  0.00  0.00    +0.184 C 
ENDROOT
BRANCH   1   4
ATOM      2  N   UNK A   1       3.573   8.080 -14.591  0.00  0.00    -0.302 N 
ATOM      3  H   UNK A   1       3.099   7.528 -13.881  0.00  0.00    +0.150 HD
ATOM      4  C   UNK A   1       3.720   7.415 -15.797  0.00  0.00    +0.236 C 
ATOM      5  O   UNK A   1       4.579   7.663 -16.629  0.00  0.00    -0.274 OA
BRANCH   2   6
ATOM      6  C   UNK A   1       4.428   9.175 -14.078  0.00  0.00    +0.159 C 
BRANCH   6   9
ATOM      7  N   UNK A   1       4.907  10.428 -16.020  0.00  0.00    -0.302 N 
ATOM      8  H   UNK A   1       3.991  10.779 -15.860  0.00  0.00    +0.150 HD
ATOM      9  C   UNK A   1       5.486   9.695 -15.026  0.00  0.00    +0.234 C 
ATOM     10  O   UNK A   1       6.686   9.440 -14.944  0.00  0.00    -0.274 OA
BRANCH   7  20
ATOM     11  C   UNK A   1       4.733  11.994 -24.266  0.00  0.00    +0.187 C 
ATOM     12  C   UNK A   1       3.954  12.351 -22.998  0.00  0.00    +0.236 C 
ATOM     13  O   UNK A   1       2.971  12.988 -23.440  0.00  0.00    -0.274 OA
ATOM     14  N   UNK A   1       4.190  11.985 -21.410  0.00  0.00    -0.314 N 
ATOM     15  H   UNK A   1       5.065  11.490 -21.244  0.00  0.00    +0.149 HD
ATOM     16  C   UNK A   1       3.045  12.058 -19.910  0.00  0.00    +0.104 C 
ATOM     17  C   UNK A   1       2.222  10.992 -19.140  0.00  0.00    +0.019 C 
ATOM     18  C   UNK A   1       2.963  10.866 -17.859  0.00  0.00    +0.004 C 
ATOM     19  C   UNK A   1       4.318  10.303 -18.246  0.00  0.00    +0.032 C 
ATOM     20  C   UNK A   1       5.458  10.635 -17.311  0.00  0.00    +0.159 C 
ATOM     21  C   UNK A   1       6.604   9.844 -18.000  0.00  0.00    +0.234 C 
ATOM     22  O   UNK A   1       6.774   8.617 -18.102  0.00  0.00    -0.274 OA
ATOM     23  N   UNK A   1       7.405  10.609 -18.791  0.00  0.00    -0.302 N 
ATOM     24  H   UNK A   1       7.351  11.516 -18.361  0.00  0.00    +0.150 HD
ATOM     25  C   UNK A   1       7.865  10.570 -20.182  0.00  0.00    +0.159 C 
ATOM     26  C   UNK A   1       8.748  11.792 -20.757  0.00  0.00    +0.234 C 
ATOM     27  O   UNK A   1       9.420  12.504 -20.003  0.00  0.00    -0.274 OA
ATOM     28  N   UNK A   1       8.875  11.913 -22.145  0.00  0.00    -0.300 N 
ATOM     29  H   UNK A   1       8.724  11.005 -22.575  0.00  0.00    +0.150 HD
ATOM     30  C   UNK A   1       8.072  12.902 -22.977  0.00  0.00    +0.187 C 
ATOM     31  C   UNK A   1       6.874  12.043 -23.323  0.00  0.00    +0.237 C 
ATOM     32  O   UNK A   1       6.711  10.890 -22.914  0.00  0.00    -0.274 OA
ATOM     33  N   UNK A   1       5.999  12.613 -24.169  0.00  0.00    -0.300 N 
ATOM     34  H   UNK A   1       6.033  13.602 -24.358  0.00  0.00    +0.150 HD
BRANCH  30  35
ATOM     35  C   UNK A   1       7.701  14.235 -22.307  0.00  0.00    +0.141 C 
ATOM     36  C   UNK A   1       6.628  15.246 -22.751  0.00  0.00    +0.040 C 
BRANCH  35  37
ATOM     37  O   UNK A   1       7.155  13.782 -21.114  0.00  0.00    -0.390 OA
ATOM     38  H   UNK A   1       7.420  14.473 -20.490  0.00  0.00    +0.210 HD
ENDBRANCH  35  37
ENDBRANCH  30  35
BRANCH  11  40
ATOM     39  C   UNK A   1       3.815  14.181 -25.670  0.00  0.00    +0.040 C 
ATOM     40  C   UNK A   1       3.966  12.626 -25.578  0.00  0.00    +0.141 C 
BRANCH  40  41
ATOM     41  O   UNK A   1       4.653  12.227 -26.775  0.00  0.00    -0.390 OA
ATOM     42  H   UNK A   1       4.132  12.580 -27.521  0.00  0.00    +0.210 HD
ENDBRANCH  40  41
ENDBRANCH  11  40
BRANCH  25  43
ATOM     43  C   UNK A   1       8.624   9.300 -20.378  0.00  0.00    +0.033 C 
BRANCH  43  44
ATOM     44  C   UNK A   1       9.927   9.370 -19.601  0.00  0.00    +0.024 C 
BRANCH  44  45
ATOM     45  C   UNK A   1      10.595   8.030 -19.623  0.00  0.00    +0.139 C 
BRANCH  45  46
ATOM     46  N   UNK A   1      11.924   8.039 -19.036  0.00  0.00    -0.186 N 
ATOM     47  C   UNK A   1      13.046   8.335 -19.761  0.00  0.00    +0.352 C 
ATOM     48  O   UNK A   1      13.124   8.366 -20.983  0.00  0.00    -0.277 OA
BRANCH  46  49
ATOM     49  O   UNK A   1      11.930   8.452 -17.688  0.00  0.00    -0.293 OA
ATOM     50  H   UNK A   1      11.552   7.675 -17.236  0.00  0.00    +0.242 HD
ENDBRANCH  46  49
ENDBRANCH  45  46
ENDBRANCH  44  45
ENDBRANCH  43  44
ENDBRANCH  25  43
ENDBRANCH   7  20
ENDBRANCH   6   9
BRANCH   6  51
ATOM     51  C   UNK A   1       3.518  10.356 -13.637  0.00  0.00    +0.033 C 
BRANCH  51  52
ATOM     52  C   UNK A   1       2.666  10.048 -12.427  0.00  0.00    +0.024 C 
BRANCH  52  53
ATOM     53  C   UNK A   1       3.517   9.755 -11.208  0.00  0.00    +0.139 C 
BRANCH  53  54
ATOM     54  N   UNK A   1       2.677   9.439 -10.076  0.00  0.00    -0.186 N 
ATOM     55  C   UNK A   1       3.252   9.392  -8.821  0.00  0.00    +0.352 C 
ATOM     56  O   UNK A   1       4.332   9.876  -8.508  0.00  0.00    -0.277 OA
BRANCH  54  57
ATOM     57  O   UNK A   1       1.887   8.285 -10.329  0.00  0.00    -0.293 OA
ATOM     58  H   UNK A   1       1.046   8.686 -10.620  0.00  0.00    +0.242 HD
ENDBRANCH  54  57
ENDBRANCH  53  54
ENDBRANCH  52  53
ENDBRANCH  51  52
ENDBRANCH   6  51
ENDBRANCH   2   6
ENDBRANCH   1   4
BRANCH   1  59
ATOM     59  N   UNK A   1       2.809   5.834 -17.470  0.00  0.00    -0.301 N 
ATOM     60  H   UNK A   1       3.726   5.946 -17.884  0.00  0.00    +0.150 HD
ATOM     61  C   UNK A   1       1.734   6.015 -18.319  0.00  0.00    +0.234 C 
ATOM     62  O   UNK A   1       0.642   6.400 -17.898  0.00  0.00    -0.274 OA
BRANCH  61  63
ATOM     63  C   UNK A   1       1.958   5.595 -19.830  0.00  0.00    +0.159 C 
BRANCH  63  64
ATOM     64  N   UNK A   1       2.534   6.557 -20.834  0.00  0.00    -0.302 N 
ATOM     65  H   UNK A   1       2.694   6.198 -21.762  0.00  0.00    +0.150 HD
ATOM     66  C   UNK A   1       2.549   7.900 -20.631  0.00  0.00    +0.236 C 
ATOM     67  O   UNK A   1       2.501   8.273 -19.457  0.00  0.00    -0.274 OA
BRANCH  66  68
ATOM     68  C   UNK A   1       2.779   8.887 -21.914  0.00  0.00    +0.184 C 
BRANCH  68  69
ATOM     69  N   UNK A   1       2.661  10.494 -21.735  0.00  0.00    -0.301 N 
ATOM     70  H   UNK A   1       3.525  10.629 -21.235  0.00  0.00    +0.150 HD
ATOM     71  C   UNK A   0       1.911  11.898 -21.897  0.00  0.00    +0.234 C 
ATOM     72  O   UNK A   0       0.860  11.790 -22.563  0.00  0.00    -0.274 OA
BRANCH  71  73
ATOM     73  C   UNK A   0       2.668  13.717 -21.390  0.00  0.00    +0.162 C 
ATOM     74  N   UNK A   0       3.727  14.403 -20.016  0.00  0.00    -0.297 N 
ATOM     75  C   UNK A   0       5.129  14.340 -19.472  0.00  0.00    +0.043 A 
ATOM     76  C   UNK A   0       5.857  15.513 -19.087  0.00  0.00    +0.001 A 
ATOM     77  C   UNK A   0       5.220  16.776 -19.142  0.00  0.00    +0.032 C 
ATOM     78  C   UNK A   0       3.911  16.722 -18.969  0.00  0.00    +0.046 C 
ATOM     79  C   UNK A   0       7.179  15.717 -18.527  0.00  0.00    +0.059 A 
ATOM     80  C   UNK A   0       7.989  14.646 -18.171  0.00  0.00    +0.159 A 
ATOM     81  C   UNK A   0       7.306  13.496 -18.311  0.00  0.00    +0.160 A 
ATOM     82  C   UNK A   0       5.954  13.293 -19.004  0.00  0.00    +0.073 A 
ATOM     83  C   UNK A   0       3.060  15.441 -19.178  0.00  0.00    +0.188 C 
ATOM     84  N   UNK A   0       1.744  15.947 -19.413  0.00  0.00    -0.294 NA
ATOM     85  H   UNK A   0       1.079  15.628 -18.719  0.00  0.00    +0.124 HD
ATOM     86  C   UNK A   0       1.336  15.676 -20.749  0.00  0.00    +0.085 C 
ATOM     87  C   UNK A   0       1.540  14.630 -21.750  0.00  0.00    +0.047 C 
BRANCH  78  88
ATOM     88  N   UNK A   0       3.321  17.897 -18.525  0.00  0.00    -0.286 N 
ATOM     89  H   UNK A   0       2.304  17.889 -18.629  0.00  0.00    +0.155 HD
ATOM     90  C   UNK A   0       3.992  18.870 -17.820  0.00  0.00    +0.218 C 
ATOM     91  O   UNK A   0       5.111  18.907 -17.224  0.00  0.00    -0.275 OA
BRANCH  90  92
ATOM     92  C   UNK A   0       3.103  20.076 -17.481  0.00  0.00    +0.107 C 
BRANCH  92  93
ATOM     93  C   UNK A   0       2.376  19.766 -16.199  0.00  0.00    +0.129 C 
BRANCH  93  94
ATOM     94  C   UNK A   0       3.149  19.628 -14.903  0.00  0.00    +0.305 C 
ATOM     95  O   UNK A   0       2.545  19.526 -13.836  0.00  0.00    -0.251 OA
BRANCH  94  96
ATOM     96  O   UNK A   0       4.488  19.612 -14.931  0.00  0.00    -0.481 OA
ATOM     97  H   UNK A   0       4.947  19.492 -15.795  0.00  0.00    +0.295 HD
ENDBRANCH  94  96
ENDBRANCH  93  94
ENDBRANCH  92  93
ENDBRANCH  90  92
ENDBRANCH  78  88
BRANCH  81  98
ATOM     98  O   UNK A   0       8.071  12.500 -17.708  0.00  0.00    -0.503 OA
ATOM     99  H   UNK A   0       8.851  12.251 -18.278  0.00  0.00    +0.292 HD
ENDBRANCH  81  98
BRANCH  80 100
ATOM    100  O   UNK A   0       9.274  14.766 -17.890  0.00  0.00    -0.503 OA
ATOM    101  H   UNK A   0       9.703  13.905 -18.022  0.00  0.00    +0.292 HD
ENDBRANCH  80 100
ENDBRANCH  71  73
ENDBRANCH  68  69
BRANCH  68 102
ATOM    102  C   UNK A   1       4.278   8.517 -22.326  0.00  0.00    +0.187 C 
BRANCH 102 103
ATOM    103  O   UNK A   1       5.231   9.039 -21.397  0.00  0.00    -0.393 OA
ATOM    104  H   UNK A   1       6.100   9.032 -21.852  0.00  0.00    +0.209 HD
ENDBRANCH 102 103
ENDBRANCH  68 102
ENDBRANCH  66  68
ENDBRANCH  63  64
BRANCH  63 105
ATOM    105  C   UNK A   1       0.580   5.128 -20.383  0.00  0.00    +0.035 C 
BRANCH 105 106
ATOM    106  C   UNK A   1       0.621   4.569 -21.795  0.00  0.00    +0.039 C 
BRANCH 106 107
ATOM    107  C   UNK A   1      -0.779   4.154 -22.239  0.00  0.00    +0.196 C 
BRANCH 107 108
ATOM    108  N   UNK A   1      -0.777   3.730 -23.621  0.00  0.00    -0.276 N 
ATOM    109  H   UNK A   1      -0.576   2.749 -23.763  0.00  0.00    +0.258 HD
ATOM    110  C   UNK A   1      -0.837   4.500 -24.729  0.00  0.00    +0.376 C 
ATOM    111  N   UNK A   1      -0.740   4.030 -25.920  0.00  0.00    -0.130 NA
ATOM    112  H   UNK A   1      -0.618   3.018 -25.880  0.00  0.00    +0.306 HD
ATOM    113  N   UNK A   1      -1.005   5.822 -24.567  0.00  0.00    -0.289 N 
ATOM    114  H   UNK A   1      -1.254   6.241 -25.459  0.00  0.00    +0.255 HD
ATOM    115  H   UNK A   1      -1.672   6.083 -23.856  0.00  0.00    +0.255 HD
ENDBRANCH 107 108
ENDBRANCH 106 107
ENDBRANCH 105 106
ENDBRANCH  63 105
ENDBRANCH  61  63
ENDBRANCH   1  59
BRANCH   1 116
ATOM    116  C   UNK A   1       3.128   5.100 -15.101  0.00  0.00    +0.187 C 
BRANCH 116 117
ATOM    117  O   UNK A   1       3.119   5.511 -13.729  0.00  0.00    -0.393 OA
ATOM    118  H   UNK A   1       3.866   5.054 -13.297  0.00  0.00    +0.209 HD
ENDBRANCH 116 117
ENDBRANCH   1 116
TORSDOF 39
