REMARK  Name = 
REMARK  8 active torsions:
REMARK  status: ('A' for Active; 'I' for Inactive)
REMARK    1  A    between atoms: C_5  and  O_7
REMARK    2  A    between atoms: C_8  and  C_9
REMARK    3  A    between atoms: C_17  and  O_18
REMARK    4  A    between atoms: O_18  and  C_19
REMARK    5  A    between atoms: N_21  and  C_22
REMARK    6  A    between atoms: N_21  and  C_25
REMARK    7  A    between atoms: C_22  and  C_23
REMARK    8  A    between atoms: C_25  and  C_26
REMARK                            x       y       z     vdW  Elec       q    Type
REMARK                         _______ _______ _______ _____ _____    ______ ____
ROOT
ATOM      1  C   UNL     1      -0.221  -0.440  -0.435  0.00  0.00    +0.001 C 
ATOM      2  C   UNL     1      -0.221  -0.440  -0.435  0.00  0.00    +0.000 C 
ATOM      3  C   UNL     1      -0.221  -0.440  -0.435  0.00  0.00    +0.023 C 
ATOM      4  C   UNL     1      -0.221  -0.440  -0.435  0.00  0.00    -0.041 A 
ATOM      5  C   UNL     1      -0.221  -0.440  -0.435  0.00  0.00    -0.040 A 
ATOM      6  C   UNL     1      -0.221  -0.440  -0.435  0.00  0.00    +0.036 C 
ATOM      7  C   UNL     1      -0.221  -0.440  -0.435  0.00  0.00    +0.050 A 
ATOM      8  C   UNL     1       3.525   9.709   2.401  0.00  0.00    +0.134 A 
ATOM      9  C   UNL     1      -0.221  -0.056  -0.438  0.00  0.00    +0.047 A 
ATOM     10  C   UNL     1      -0.221  -0.440  -0.435  0.00  0.00    +0.008 A 
ATOM     11  C   UNL     1      -0.221  -0.440  -0.435  0.00  0.00    +0.009 C 
ATOM     12  C   UNL     1      -0.221  -0.440  -0.435  0.00  0.00    +0.010 C 
ATOM     13  C   UNL     1      -0.221  -0.440  -0.435  0.00  0.00    +0.009 C 
ATOM     14  C   UNL     1      -0.221  -0.440  -0.435  0.00  0.00    -0.003 C 
ATOM     15  C   UNL     1      -0.221  -0.440  -0.435  0.00  0.00    +0.014 C 
ATOM     16  C   UNL     1      -0.221  -0.440  -0.435  0.00  0.00    +0.121 C 
ATOM     17  C   UNL     1      -0.221  -0.440  -0.435  0.00  0.00    +0.032 C 
ATOM     18  C   UNL     1      -0.221  -0.440  -0.435  0.00  0.00    +0.007 C 
ENDROOT
BRANCH  16  19
ATOM     19  O   UNL     1      -0.221  -0.440  -0.435  0.00  0.00    -0.391 OA
ATOM     20  H   UNL     1       0.000   0.000   0.000  0.00  0.00    +0.210 HD
ENDBRANCH  16  19
BRANCH   8  21
ATOM     21  O   UNL     1      -0.221  -0.440  -0.435  0.00  0.00    -0.411 OA
BRANCH  21  22
ATOM     22  C   UNL     1      -0.221  -0.440  -0.435  0.00  0.00    +0.408 C 
ATOM     23  N   UNL     1      -0.221  -0.440  -0.435  0.00  0.00    -0.265 N 
ATOM     24  O   UNL     1      -0.221  -0.440  -0.435  0.00  0.00    -0.226 OA
BRANCH  23  25
ATOM     25  C   UNL     1       0.605  -2.239  -2.929  0.00  0.00    +0.127 C 
BRANCH  25  26
ATOM     26  C   UNL     1       1.640  -4.015  -5.554  0.00  0.00    +0.127 C 
ATOM     27 CL   UNL     1       1.025  -1.488  -4.819  0.00  0.00    -0.124 Cl
ENDBRANCH  25  26
ENDBRANCH  23  25
BRANCH  23  28
ATOM     28  C   UNL     1      -0.221  -0.440  -0.435  0.00  0.00    +0.127 C 
BRANCH  28  29
ATOM     29  C   UNL     1      -0.221  -0.440  -0.435  0.00  0.00    +0.127 C 
ATOM     30 CL   UNL     1      -0.221  -0.440  -0.435  0.00  0.00    -0.124 Cl
ENDBRANCH  28  29
ENDBRANCH  23  28
ENDBRANCH  21  22
ENDBRANCH   8  21
TORSDOF 7
