REMARK  Name = 
REMARK  8 active torsions:
REMARK  status: ('A' for Active; 'I' for Inactive)
REMARK    1  A    between atoms: C_1  and  N_2
REMARK    2  A    between atoms: N_2  and  C_3
REMARK    3  A    between atoms: N_2  and  C_4
REMARK    4  A    between atoms: C_4  and  C_5
REMARK    5  A    between atoms: C_5  and  C_6
REMARK    6  A    between atoms: C_6  and  N_7
REMARK    7  A    between atoms: C_18  and  C_21
REMARK    8  A    between atoms: C_21  and  C_22
REMARK                            x       y       z     vdW  Elec       q    Type
REMARK                         _______ _______ _______ _____ _____    ______ ____
ROOT
ATOM      1  N   UNL     1       6.541   2.263   1.728  0.00  0.00    -0.298 N 
ATOM      2  C   UNL     1       7.169   2.871   0.592  0.00  0.00    +0.049 A 
ATOM      3  C   UNL     1       6.445   3.418  -0.500  0.00  0.00    +0.036 A 
ATOM      4  C   UNL     1       7.070   3.977  -1.634  0.00  0.00    +0.019 A 
ATOM      5  C   UNL     1       8.455   3.986  -1.722  0.00  0.00    +0.012 A 
ATOM      6  C   UNL     1       9.201   3.481  -0.667  0.00  0.00    +0.017 A 
ATOM      7  C   UNL     1       8.576   2.943   0.478  0.00  0.00    +0.034 A 
ATOM      8  S   UNL     1       9.710   2.408   1.734  0.00  0.00    -0.086 S 
ATOM      9  C   UNL     1       8.636   1.678   2.935  0.00  0.00    +0.034 A 
ATOM     10  C   UNL     1       9.289   1.129   4.060  0.00  0.00    +0.017 A 
ATOM     11  C   UNL     1       8.575   0.524   5.086  0.00  0.00    +0.001 A 
ATOM     12  C   UNL     1       7.204   0.411   4.968  0.00  0.00    +0.002 A 
ATOM     13  C   UNL     1       6.560   0.918   3.833  0.00  0.00    +0.024 A 
ATOM     14  C   UNL     1       7.235   1.627   2.810  0.00  0.00    +0.048 A 
ENDROOT
BRANCH   4  15
ATOM     15  C   UNL     1       6.303   4.549  -2.783  0.00  0.00    +0.160 C 
ATOM     16  O   UNL     1       6.819   4.567  -3.900  0.00  0.00    -0.292 OA
ATOM     17  C   UNL     1       4.930   5.128  -2.561  0.00  0.00    +0.091 C 
ENDBRANCH   4  15
BRANCH   1  18
ATOM     18  C   UNL     1       5.055   2.264   1.817  0.00  0.00    +0.112 C 
BRANCH  18  19
ATOM     19  C   UNL     1       4.479   3.099   2.975  0.00  0.00    +0.035 C 
BRANCH  19  20
ATOM     20  C   UNL     1       4.871   4.575   2.969  0.00  0.00    +0.085 C 
BRANCH  20  22
ATOM     21  C   UNL     1       2.948   5.378   1.711  0.00  0.00    +0.104 C 
ATOM     22  N   UNL     1       4.408   5.328   1.791  0.00  0.00    -0.308 NA
ATOM     23  C   UNL     1       4.947   6.691   1.866  0.00  0.00    +0.104 C 
ENDBRANCH  20  22
ENDBRANCH  19  20
ENDBRANCH  18  19
ENDBRANCH   1  18
TORSDOF 5
