REMARK  Name = 
REMARK  3 active torsions:
REMARK  status: ('A' for Active; 'I' for Inactive)
REMARK    1  A    between atoms: N_10  and  C_11
REMARK    2  A    between atoms: P_18  and  O_19
REMARK    3  A    between atoms: C_24  and  O_26
REMARK                            x       y       z     vdW  Elec       q    Type
REMARK                         _______ _______ _______ _____ _____    ______ ____
ROOT
ATOM      1  C   UNL     1       6.107  -3.145  -0.122  0.00  0.00    +0.253 C 
ATOM      2  C   UNL     1       6.651  -2.977  -1.555  0.00  0.00    +0.196 C 
ATOM      3  C   UNL     1       7.985  -2.300  -1.302  0.00  0.00    +0.191 C 
ATOM      4  C   UNL     1       7.662  -1.397  -0.131  0.00  0.00    +0.179 C 
ATOM      5  C   UNL     1       6.975  -0.085  -0.517  0.00  0.00    +0.204 C 
ATOM      6  O   UNL     1       7.354   0.459  -1.762  0.00  0.00    -0.308 OA
ATOM      7  P   UNL     1       8.562  -0.108  -2.645  0.00  0.00    +0.306 P 
ATOM      8  S   UNL     1       8.629   0.481  -4.472  0.00  0.00    +0.022 S 
ATOM      9  O   UNL     1       8.512  -1.700  -2.455  0.00  0.00    -0.302 OA
ATOM     10  O   UNL     1       6.811  -2.185   0.722  0.00  0.00    -0.346 OA
ENDROOT
BRANCH   1  18
ATOM     11  N   UNL     1       6.369  -9.127   0.681  0.00  0.00    -0.341 N 
ATOM     12  H   UNL     1       6.621  -9.009   1.655  0.00  0.00    +0.144 HD
ATOM     13  H   UNL     1       5.779  -9.910   0.435  0.00  0.00    +0.144 HD
ATOM     14  C   UNL     1       5.943  -7.954   0.072  0.00  0.00    +0.147 A 
ATOM     15  C   UNL     1       6.279  -6.671   0.535  0.00  0.00    +0.147 A 
ATOM     16  N   UNL     1       7.026  -6.210   1.601  0.00  0.00    -0.231 NA
ATOM     17  C   UNL     1       7.004  -4.895   1.493  0.00  0.00    +0.203 A 
ATOM     18  N   UNL     1       6.298  -4.486   0.396  0.00  0.00    -0.286 N 
ATOM     19  C   UNL     1       5.789  -5.609  -0.203  0.00  0.00    +0.167 A 
ATOM     20  N   UNL     1       5.021  -5.659  -1.300  0.00  0.00    -0.216 NA
ATOM     21  C   UNL     1       4.753  -6.932  -1.643  0.00  0.00    +0.225 A 
ATOM     22  N   UNL     1       5.161  -8.062  -1.028  0.00  0.00    -0.219 NA
ENDBRANCH   1  18
BRANCH   2  23
ATOM     23  O   UNL     1       5.794  -2.120  -2.320  0.00  0.00    -0.385 OA
ATOM     24  H   UNL     1       6.084  -2.178  -3.251  0.00  0.00    +0.210 HD
ENDBRANCH   2  23
BRANCH   7  25
ATOM     25  O   UNL     1       9.841   0.296  -1.763  0.00  0.00    -0.327 OA
ATOM     26  H   UNL     1       9.856   0.038  -0.830  0.00  0.00    +0.219 HD
ENDBRANCH   7  25
TORSDOF 3
