REMARK  Name = 
REMARK  4 active torsions:
REMARK  status: ('A' for Active; 'I' for Inactive)
REMARK    1  A    between atoms: N_6  and  C1*_9
REMARK    2  A    between atoms: C3*_12  and  O3*_14
REMARK    3  A    between atoms: C4*_15  and  C5*_17
REMARK    4  A    between atoms: C5*_17  and  O5*_18
REMARK                            x       y       z     vdW  Elec       q    Type
REMARK                         _______ _______ _______ _____ _____    ______ ____
ROOT
ATOM      1  N   UNL     1       1.269  -0.111   0.172  0.00  0.00    -0.327 N 
ATOM      2  H   UNL     1       0.915  -1.035  -0.035  0.00  0.00    +0.145 HD
ATOM      3  H   UNL     1       0.773   0.646  -0.280  0.00  0.00    +0.145 HD
ATOM      4  C   UNL     1       2.613  -0.014   0.047  0.00  0.00    +0.218 A 
ATOM      5  N   UNL     1       3.323  -1.160   0.169  0.00  0.00    -0.205 NA
ATOM      6  C   UNL     1       4.600  -1.038   0.239  0.00  0.00    +0.209 A 
ATOM      7  N   UNL     1       5.251   0.148   0.171  0.00  0.00    -0.256 N 
ATOM      8  C   UNL     1       4.511   1.198  -0.318  0.00  0.00    +0.354 A 
ATOM      9  O   UNL     1       5.045   2.162  -0.862  0.00  0.00    -0.244 OA
ATOM     10  N   UNL     1       3.153   1.127  -0.203  0.00  0.00    -0.159 NA
ENDROOT
BRANCH   7  11
ATOM     11  C1* UNL     1       6.701   0.217   0.102  0.00  0.00    +0.228 C 
ATOM     12  O4* UNL     1       7.270  -0.936   0.753  0.00  0.00    -0.348 OA
ATOM     13  C4* UNL     1       8.495  -0.545   1.416  0.00  0.00    +0.175 C 
ATOM     14  C3* UNL     1       8.687   0.947   1.159  0.00  0.00    +0.150 C 
ATOM     15  C2* UNL     1       7.300   1.428   0.814  0.00  0.00    +0.088 C 
BRANCH  14  16
ATOM     16  O3* UNL     1       9.530   1.128   0.017  0.00  0.00    -0.389 OA
ATOM     17  H3* UNL     1       9.668   2.086  -0.096  0.00  0.00    +0.210 HD
ENDBRANCH  14  16
BRANCH  13  18
ATOM     18  C5* UNL     1       8.352  -0.896   2.899  0.00  0.00    +0.190 C 
BRANCH  18  19
ATOM     19  O5* UNL     1       7.237  -0.227   3.484  0.00  0.00    -0.392 OA
ATOM     20  H5* UNL     1       6.445  -0.584   3.041  0.00  0.00    +0.210 HD
ENDBRANCH  18  19
ENDBRANCH  13  18
ENDBRANCH   7  11
TORSDOF 4
