REMARK  Name = 
REMARK  6 active torsions:
REMARK  status: ('A' for Active; 'I' for Inactive)
REMARK    1  A    between atoms: O_1  and  C_2
REMARK    2  A    between atoms: C_2  and  C_4
REMARK    3  A    between atoms: C_4  and  C_5
REMARK    4  A    between atoms: C_4  and  C_17
REMARK    5  A    between atoms: C_5  and  C_6
REMARK    6  A    between atoms: C_17  and  C_18
REMARK                            x       y       z     vdW  Elec       q    Type
REMARK                         _______ _______ _______ _____ _____    ______ ____
ROOT
ATOM      1  C   UNL     1       2.886  -1.953  -0.093  0.00  0.00    +0.111 C 
ENDROOT
BRANCH   1   2
ATOM      2  C   UNL     1       4.382  -1.901  -0.327  0.00  0.00    +0.309 C 
ATOM      3  O   UNL     1       5.011  -2.821  -0.832  0.00  0.00    -0.251 OA
BRANCH   2   4
ATOM      4  O   UNL     1       4.997  -0.790   0.140  0.00  0.00    -0.480 OA
ATOM      5  H   UNL     1       4.413  -0.122   0.546  0.00  0.00    +0.295 HD
ENDBRANCH   2   4
ENDBRANCH   1   2
BRANCH   1   6
ATOM      6  C   UNL     1       2.157  -0.771  -0.759  0.00  0.00    +0.050 C 
BRANCH   6   7
ATOM      7  C   UNL     1       2.359  -0.655  -2.253  0.00  0.00    -0.047 A 
ATOM      8  C   UNL     1       2.944   0.495  -2.801  0.00  0.00    +0.003 A 
ATOM      9  C   UNL     1       3.076   0.636  -4.184  0.00  0.00    +0.000 A 
ATOM     10  C   UNL     1       2.628  -0.372  -5.035  0.00  0.00    +0.000 A 
ATOM     11  C   UNL     1       2.055  -1.525  -4.503  0.00  0.00    +0.000 A 
ATOM     12  C   UNL     1       1.919  -1.666  -3.120  0.00  0.00    +0.003 A 
ENDBRANCH   6   7
ENDBRANCH   1   6
BRANCH   1  13
ATOM     13  C   UNL     1       2.646  -2.042   1.418  0.00  0.00    +0.111 C 
BRANCH  13  14
ATOM     14  C   UNL     1       1.186  -2.238   1.770  0.00  0.00    +0.216 C 
ATOM     15  N   UNL     1       0.717  -3.520   1.897  0.00  0.00    -0.301 N 
ATOM     16  C   UNL     1       1.477  -4.770   1.792  0.00  0.00    +0.111 C 
ATOM     17  C   UNL     1       0.387  -5.832   1.787  0.00  0.00    +0.011 C 
ATOM     18  C   UNL     1      -0.646  -5.225   2.742  0.00  0.00    +0.011 C 
ATOM     19  C   UNL     1      -1.941  -6.018   2.695  0.00  0.00    +0.005 C 
ATOM     20  C   UNL     1      -1.652  -7.475   3.085  0.00  0.00    +0.000 C 
ATOM     21  C   UNL     1      -0.520  -8.102   2.256  0.00  0.00    +0.000 C 
ATOM     22  C   UNL     1       0.750  -7.238   2.232  0.00  0.00    +0.005 C 
ATOM     23  C   UNL     1      -0.673  -3.775   2.285  0.00  0.00    +0.111 C 
ATOM     24  O   UNL     1       0.457  -1.254   1.906  0.00  0.00    -0.276 OA
ENDBRANCH  13  14
ENDBRANCH   1  13
TORSDOF 6
