REMARK  Name = 
REMARK  5 active torsions:
REMARK  status: ('A' for Active; 'I' for Inactive)
REMARK    1  A    between atoms: C_1  and  N_2
REMARK    2  A    between atoms: N_2  and  C_3
REMARK    3  A    between atoms: N_2  and  C_4
REMARK    4  A    between atoms: C_4  and  C_5
REMARK    5  A    between atoms: C_5  and  C_6
REMARK                            x       y       z     vdW  Elec       q    Type
REMARK                         _______ _______ _______ _____ _____    ______ ____
ROOT
ATOM      1  C   UNL     1       4.908  -0.759  -2.784  0.00  0.00    -0.021 A 
ATOM      2  C   UNL     1       5.150   0.106  -3.899  0.00  0.00    +0.003 A 
ATOM      3  C   UNL     1       5.585  -0.688  -4.959  0.00  0.00    +0.047 A 
ATOM      4  C   UNL     1       5.924  -0.163  -6.212  0.00  0.00    +0.026 A 
ATOM      5  C   UNL     1       5.812   1.220  -6.386  0.00  0.00    +0.002 A 
ATOM      6  C   UNL     1       5.374   2.040  -5.348  0.00  0.00    +0.001 A 
ATOM      7  N   UNL     1       5.599  -1.988  -4.512  0.00  0.00    -0.360 N 
ATOM      8  H   UNL     1       5.874  -2.783  -5.071  0.00  0.00    +0.165 HD
ATOM      9  C   UNL     1       5.041   1.497  -4.102  0.00  0.00    +0.010 A 
ATOM     10  C   UNL     1       5.195  -2.044  -3.206  0.00  0.00    +0.087 A 
ENDROOT
BRANCH   1  11
ATOM     11  C   UNL     1       4.441  -0.359  -1.417  0.00  0.00    +0.052 C 
BRANCH  11  12
ATOM     12  C   UNL     1       2.907  -0.387  -1.297  0.00  0.00    +0.088 C 
BRANCH  12  14
ATOM     13  C   UNL     1       0.919   0.025  -0.008  0.00  0.00    +0.104 C 
ATOM     14  N   UNL     1       2.385   0.038   0.020  0.00  0.00    -0.308 NA
ATOM     15  C   UNL     1       2.862  -0.817   1.108  0.00  0.00    +0.104 C 
ENDBRANCH  12  14
ENDBRANCH  11  12
ENDBRANCH   1  11
TORSDOF 3
