REMARK  Name = 
REMARK  30 active torsions:
REMARK  status: ('A' for Active; 'I' for Inactive)
REMARK    1  A    between atoms: O_1  and  C_2
REMARK    2  A    between atoms: C_2  and  C_3
REMARK    3  A    between atoms: C_6  and  S_8
REMARK    4  A    between atoms: S_8  and  C_9
REMARK    5  A    between atoms: C_11  and  O_13
REMARK    6  A    between atoms: C_14  and  O_16
REMARK    7  A    between atoms: C_17  and  O_19
REMARK    8  A    between atoms: O_19  and  C_20
REMARK    9  A    between atoms: C_22  and  O_24
REMARK   10  A    between atoms: C_25  and  O_27
REMARK   11  A    between atoms: C_28  and  S_35
REMARK   12  A    between atoms: C_31  and  C_33
REMARK   13  A    between atoms: C_33  and  O_34
REMARK   14  A    between atoms: S_35  and  C_36
REMARK   15  A    between atoms: C_38  and  O_40
REMARK   16  A    between atoms: C_41  and  O_43
REMARK   17  A    between atoms: C_44  and  O_46
REMARK   18  A    between atoms: O_46  and  C_47
REMARK   19  A    between atoms: C_49  and  O_51
REMARK   20  A    between atoms: C_52  and  O_54
REMARK   21  A    between atoms: C_55  and  S_57
REMARK   22  A    between atoms: C_59  and  C_61
REMARK   23  A    between atoms: C_61  and  O_62
REMARK   24  A    between atoms: C_64  and  C_66
REMARK   25  A    between atoms: C_66  and  O_67
REMARK   26  A    between atoms: C_69  and  C_71
REMARK   27  A    between atoms: C_71  and  O_72
REMARK   28  A    between atoms: C_73  and  O_75
REMARK   29  A    between atoms: C_76  and  O_78
REMARK   30  A    between atoms: C_79  and  O_81
REMARK                            x       y       z     vdW  Elec       q    Type
REMARK                         _______ _______ _______ _____ _____    ______ ____
ROOT
ATOM      1  C   UNL     1      -5.468   5.470  -3.366  0.00  0.00    +0.183 C 
ATOM      2  C   UNL     1      -6.004   4.126  -2.829  0.00  0.00    +0.176 C 
ATOM      3  O   UNL     1      -5.191   3.035  -3.248  0.00  0.00    -0.355 OA
ATOM      4  C   UNL     1      -5.047   2.915  -4.662  0.00  0.00    +0.207 C 
ATOM      5  C   UNL     1      -4.541   4.200  -5.352  0.00  0.00    +0.184 C 
ATOM      6  C   UNL     1      -5.366   5.412  -4.903  0.00  0.00    +0.178 C 
ENDROOT
BRANCH   5   7
ATOM      7  O   UNL     1      -3.151   4.435  -5.099  0.00  0.00    -0.386 OA
ATOM      8  H   UNL     1      -2.697   3.587  -4.956  0.00  0.00    +0.210 HD
ENDBRANCH   5   7
BRANCH   6   9
ATOM      9  O   UNL     1      -6.676   5.424  -5.490  0.00  0.00    -0.386 OA
ATOM     10  H   UNL     1      -7.099   4.557  -5.368  0.00  0.00    +0.210 HD
ENDBRANCH   6   9
BRANCH   4  11
ATOM     11  S   UNL     1      -6.606   2.346  -5.456  0.00  0.00    -0.118 S 
BRANCH  11  12
ATOM     12  C   UNL     1      -5.942   1.792  -7.101  0.00  0.00    +0.111 C 
ATOM     13  C   UNL     1      -7.051   1.167  -7.966  0.00  0.00    +0.162 C 
ATOM     14  O   UNL     1      -7.598   0.020  -7.304  0.00  0.00    -0.342 OA
ATOM     15  C   UNL     1      -6.647  -1.019  -7.025  0.00  0.00    +0.282 C 
ATOM     16  C   UNL     1      -5.381  -0.537  -6.278  0.00  0.00    +0.200 C 
ATOM     17  C   UNL     1      -4.835   0.740  -6.935  0.00  0.00    +0.163 C 
BRANCH  16  18
ATOM     18  O   UNL     1      -5.655  -0.364  -4.882  0.00  0.00    -0.384 OA
ATOM     19  H   UNL     1      -6.440   0.214  -4.795  0.00  0.00    +0.210 HD
ENDBRANCH  16  18
BRANCH  17  20
ATOM     20  O   UNL     1      -4.221   0.516  -8.207  0.00  0.00    -0.388 OA
ATOM     21  H   UNL     1      -4.624  -0.262  -8.640  0.00  0.00    +0.210 HD
ENDBRANCH  17  20
BRANCH  13  22
ATOM     22  C   UNL     1      -8.191   2.144  -8.291  0.00  0.00    +0.188 C 
BRANCH  22  23
ATOM     23  O   UNL     1      -9.076   1.552  -9.242  0.00  0.00    -0.392 OA
ATOM     24  H   UNL     1      -9.405   0.731  -8.825  0.00  0.00    +0.210 HD
ENDBRANCH  22  23
ENDBRANCH  13  22
BRANCH  15  25
ATOM     25  O   UNL     1      -6.315  -1.706  -8.235  0.00  0.00    -0.340 OA
BRANCH  25  26
ATOM     26  C   UNL     1      -5.593  -2.945  -8.036  0.00  0.00    +0.183 C 
ATOM     27  C   UNL     1      -5.259  -3.545  -9.424  0.00  0.00    +0.176 C 
ATOM     28  O   UNL     1      -6.426  -4.038 -10.098  0.00  0.00    -0.356 OA
ATOM     29  C   UNL     1      -7.201  -4.999  -9.363  0.00  0.00    +0.204 C 
ATOM     30  C   UNL     1      -7.624  -4.433  -7.997  0.00  0.00    +0.184 C 
ATOM     31  C   UNL     1      -6.405  -3.955  -7.195  0.00  0.00    +0.178 C 
BRANCH  29  32
ATOM     32  S   UNL     1      -6.373  -6.621  -9.236  0.00  0.00    -0.145 S 
ATOM     33  H   UNL     1      -7.114  -7.088  -8.217  0.00  0.00    +0.104 HD
ENDBRANCH  29  32
BRANCH  30  34
ATOM     34  O   UNL     1      -8.539  -3.340  -8.205  0.00  0.00    -0.386 OA
ATOM     35  H   UNL     1      -8.095  -2.683  -8.788  0.00  0.00    +0.210 HD
ENDBRANCH  30  34
BRANCH  31  36
ATOM     36  O   UNL     1      -5.573  -5.017  -6.718  0.00  0.00    -0.386 OA
ATOM     37  H   UNL     1      -5.304  -5.582  -7.465  0.00  0.00    +0.210 HD
ENDBRANCH  31  36
BRANCH  27  38
ATOM     38  C   UNL     1      -4.584  -2.513 -10.344  0.00  0.00    +0.190 C 
BRANCH  38  39
ATOM     39  O   UNL     1      -3.417  -1.979  -9.729  0.00  0.00    -0.392 OA
ATOM     40  H   UNL     1      -2.956  -1.443 -10.401  0.00  0.00    +0.210 HD
ENDBRANCH  38  39
ENDBRANCH  27  38
ENDBRANCH  25  26
ENDBRANCH  15  25
ENDBRANCH  11  12
ENDBRANCH   4  11
BRANCH   2  41
ATOM     41  C   UNL     1      -6.130   4.090  -1.306  0.00  0.00    +0.190 C 
BRANCH  41  42
ATOM     42  O   UNL     1      -7.003   5.134  -0.894  0.00  0.00    -0.392 OA
ATOM     43  H   UNL     1      -7.371   4.886  -0.026  0.00  0.00    +0.210 HD
ENDBRANCH  41  42
ENDBRANCH   2  41
BRANCH   1  44
ATOM     44  O   UNL     1      -4.222   5.781  -2.710  0.00  0.00    -0.340 OA
BRANCH  44  48
ATOM     45  C   UNL     1      -3.156   8.614  -0.673  0.00  0.00    +0.111 C 
ATOM     46  C   UNL     1      -2.364   7.346  -1.051  0.00  0.00    +0.162 C 
ATOM     47  O   UNL     1      -2.329   7.171  -2.482  0.00  0.00    -0.342 OA
ATOM     48  C   UNL     1      -3.628   7.029  -3.090  0.00  0.00    +0.282 C 
ATOM     49  C   UNL     1      -4.553   8.230  -2.760  0.00  0.00    +0.200 C 
ATOM     50  C   UNL     1      -4.579   8.469  -1.242  0.00  0.00    +0.163 C 
BRANCH  50  51
ATOM     51  O   UNL     1      -5.273   7.452  -0.514  0.00  0.00    -0.388 OA
ATOM     52  H   UNL     1      -5.234   6.599  -1.000  0.00  0.00    +0.210 HD
ENDBRANCH  50  51
BRANCH  49  53
ATOM     53  O   UNL     1      -4.156   9.406  -3.479  0.00  0.00    -0.384 OA
ATOM     54  H   UNL     1      -3.204   9.550  -3.288  0.00  0.00    +0.210 HD
ENDBRANCH  49  53
BRANCH  46  55
ATOM     55  C   UNL     1      -0.921   7.365  -0.514  0.00  0.00    +0.188 C 
BRANCH  55  56
ATOM     56  O   UNL     1      -0.285   6.115  -0.787  0.00  0.00    -0.392 OA
ATOM     57  H   UNL     1      -0.441   5.949  -1.736  0.00  0.00    +0.210 HD
ENDBRANCH  55  56
ENDBRANCH  46  55
BRANCH  45  58
ATOM     58  S   UNL     1      -2.301  10.135  -1.322  0.00  0.00    -0.118 S 
BRANCH  58  63
ATOM     59  C   UNL     1      -4.156  12.284   1.450  0.00  0.00    +0.176 C 
ATOM     60  C   UNL     1      -3.738  13.708   1.062  0.00  0.00    +0.176 C 
ATOM     61  C   UNL     1      -3.833  13.865  -0.462  0.00  0.00    +0.177 C 
ATOM     62  C   UNL     1      -3.001  12.795  -1.176  0.00  0.00    +0.184 C 
ATOM     63  C   UNL     1      -3.417  11.410  -0.650  0.00  0.00    +0.207 C 
ATOM     64  O   UNL     1      -3.344  11.329   0.762  0.00  0.00    -0.355 OA
BRANCH  62  65
ATOM     65  O   UNL     1      -3.198  12.967  -2.591  0.00  0.00    -0.386 OA
ATOM     66  H   UNL     1      -4.051  12.569  -2.848  0.00  0.00    +0.210 HD
ENDBRANCH  62  65
BRANCH  61  67
ATOM     67  O   UNL     1      -3.389  15.170  -0.862  0.00  0.00    -0.386 OA
ATOM     68  H   UNL     1      -3.129  15.093  -1.801  0.00  0.00    +0.210 HD
ENDBRANCH  61  67
BRANCH  60  69
ATOM     69  O   UNL     1      -4.585  14.644   1.735  0.00  0.00    -0.386 OA
ATOM     70  H   UNL     1      -5.016  15.198   1.061  0.00  0.00    +0.210 HD
ENDBRANCH  60  69
BRANCH  59  71
ATOM     71  C   UNL     1      -3.980  12.039   2.955  0.00  0.00    +0.190 C 
BRANCH  71  72
ATOM     72  O   UNL     1      -4.625  10.816   3.320  0.00  0.00    -0.392 OA
ATOM     73  H   UNL     1      -4.469  10.692   4.272  0.00  0.00    +0.210 HD
ENDBRANCH  71  72
ENDBRANCH  59  71
ENDBRANCH  58  63
ENDBRANCH  45  58
ENDBRANCH  44  48
ENDBRANCH   1  44
TORSDOF 30
