REMARK  Name = 
REMARK  7 active torsions:
REMARK  status: ('A' for Active; 'I' for Inactive)
REMARK    1  A    between atoms: C_1  and  C_2
REMARK    2  A    between atoms: C_2  and  C_4
REMARK    3  A    between atoms: C_4  and  C_5
REMARK    4  A    between atoms: C_5  and  C_6
REMARK    5  A    between atoms: C_5  and  C_15
REMARK    6  A    between atoms: C_9  and  N_12
REMARK    7  A    between atoms: C_16  and  O_17
REMARK                            x       y       z     vdW  Elec       q    Type
REMARK                         _______ _______ _______ _____ _____    ______ ____
ROOT
ATOM      1  C   UNL     1       4.635   0.228  -1.024  0.00  0.00    +0.067 C 
ENDROOT
BRANCH   1   2
ATOM      2  C   UNL     1       5.426   0.816  -2.195  0.00  0.00    +0.087 A 
ATOM      3  C   UNL     1       5.079   0.296  -3.552  0.00  0.00    +0.345 A 
ATOM      4  O   UNL     1       4.210  -0.553  -3.719  0.00  0.00    -0.245 OA
ATOM      5  O   UNL     1       5.761   0.805  -4.645  0.00  0.00    -0.422 OA
ATOM      6  C   UNL     1       6.585   1.929  -4.526  0.00  0.00    +0.143 A 
ATOM      7  C   UNL     1       6.891   2.456  -3.279  0.00  0.00    +0.059 A 
ATOM      8  C   UNL     1       7.684   3.611  -3.235  0.00  0.00    +0.015 A 
ATOM      9  C   UNL     1       8.129   4.219  -4.415  0.00  0.00    +0.001 A 
ATOM     10  C   UNL     1       7.804   3.668  -5.654  0.00  0.00    +0.004 A 
ATOM     11  C   UNL     1       7.036   2.510  -5.712  0.00  0.00    +0.047 A 
ATOM     12  C   UNL     1       6.327   1.816  -2.086  0.00  0.00    +0.138 A 
BRANCH  12  13
ATOM     13  O   UNL     1       6.751   2.382  -0.900  0.00  0.00    -0.506 OA
ATOM     14  H   UNL     1       6.458   1.868  -0.133  0.00  0.00    +0.292 HD
ENDBRANCH  12  13
ENDBRANCH   1   2
BRANCH   1  15
ATOM     15  C   UNL     1       4.979  -1.233  -0.706  0.00  0.00    -0.039 A 
ATOM     16  C   UNL     1       6.058  -1.518   0.153  0.00  0.00    +0.011 A 
ATOM     17  C   UNL     1       6.308  -2.825   0.589  0.00  0.00    +0.084 A 
ATOM     18  C   UNL     1       5.479  -3.866   0.158  0.00  0.00    +0.273 A 
ATOM     19  C   UNL     1       4.439  -3.614  -0.740  0.00  0.00    +0.084 A 
ATOM     20  C   UNL     1       4.202  -2.307  -1.175  0.00  0.00    +0.011 A 
BRANCH  18  21
ATOM     21  N   UNL     1       5.681  -5.226   0.673  0.00  0.00    +0.080 N 
ATOM     22  O   UNL     1       6.626  -5.414   1.453  0.00  0.00    +0.041 OA
ATOM     23  O   UNL     1       4.888  -6.105   0.307  0.00  0.00    -0.576 OA
ENDBRANCH  18  21
ENDBRANCH   1  15
BRANCH   1  24
ATOM     24  C   UNL     1       3.123   0.527  -1.164  0.00  0.00    +0.087 C 
BRANCH  24  26
ATOM     25  C   UNL     1       0.935  -0.301  -0.099  0.00  0.00    +0.086 C 
ATOM     26  C   UNL     1       2.347   0.188   0.094  0.00  0.00    +0.131 C 
ATOM     27  O   UNL     1       2.814   0.377   1.217  0.00  0.00    -0.298 OA
ENDBRANCH  24  26
ENDBRANCH   1  24
TORSDOF 6
