REMARK  Name = 
REMARK  1 active torsions:
REMARK  status: ('A' for Active; 'I' for Inactive)
REMARK    1  A    between atoms: C_1  and  C_2
REMARK                            x       y       z     vdW  Elec       q    Type
REMARK                         _______ _______ _______ _____ _____    ______ ____
ROOT
ATOM      1  C   UNL     1       1.018   0.099  -0.030  0.00  0.00    +0.047 C 
ATOM      2  C   UNL     1       2.497   0.114  -0.028  0.00  0.00    -0.013 A 
ATOM      3  C   UNL     1       3.371  -0.997  -0.029  0.00  0.00    +0.137 A 
ATOM      4  N   UNL     1       4.657  -0.641  -0.026  0.00  0.00    -0.182 NA
ATOM      5  N   UNL     1       4.613   0.701  -0.025  0.00  0.00    -0.284 N 
ATOM      6  H   UNL     1       5.490   1.211  -0.023  0.00  0.00    +0.188 HD
ATOM      7  C   UNL     1       3.344   1.201  -0.026  0.00  0.00    +0.108 A 
ENDROOT
TORSDOF 0
