REMARK  Name = 
REMARK  8 active torsions:
REMARK  status: ('A' for Active; 'I' for Inactive)
REMARK    1  A    between atoms: C_1  and  O_2
REMARK    2  A    between atoms: O_2  and  C_3
REMARK    3  A    between atoms: C_6  and  C_9
REMARK    4  A    between atoms: N_11  and  C_12
REMARK    5  A    between atoms: C_17  and  C_18
REMARK    6  A    between atoms: C_18  and  C_19
REMARK    7  A    between atoms: C_19  and  C_20
REMARK    8  A    between atoms: N_25  and  C_26
REMARK                            x       y       z     vdW  Elec       q    Type
REMARK                         _______ _______ _______ _____ _____    ______ ____
ROOT
ATOM      1  C   UNL     1       5.300   5.142  -5.381  0.00  0.00    +0.037 A 
ATOM      2  C   UNL     1       5.319   4.720  -6.732  0.00  0.00    -0.026 A 
ATOM      3  C   UNL     1       5.448   5.696  -7.748  0.00  0.00    +0.005 A 
ATOM      4  C   UNL     1       5.560   7.051  -7.456  0.00  0.00    +0.000 A 
ATOM      5  C   UNL     1       5.568   7.460  -6.136  0.00  0.00    +0.002 A 
ATOM      6  C   UNL     1       5.448   6.515  -5.117  0.00  0.00    +0.023 A 
ENDROOT
BRANCH   1   8
ATOM      7  C   UNL     1       4.772   4.547  -3.005  0.00  0.00    +0.248 C 
ATOM      8  N   UNL     1       5.133   4.216  -4.310  0.00  0.00    -0.281 N 
ATOM      9  H   UNL     1       5.104   3.239  -4.552  0.00  0.00    +0.155 HD
ATOM     10  O   UNL     1       4.638   5.679  -2.548  0.00  0.00    -0.270 OA
BRANCH   7  14
ATOM     11  C   UNL     1       3.544   1.405  -0.369  0.00  0.00    +0.120 A 
ATOM     12  C   UNL     1       4.674   1.218  -1.174  0.00  0.00    +0.046 A 
ATOM     13  C   UNL     1       5.107   2.225  -2.048  0.00  0.00    +0.016 A 
ATOM     14  C   UNL     1       4.411   3.433  -2.099  0.00  0.00    +0.037 A 
ATOM     15  C   UNL     1       3.331   3.647  -1.228  0.00  0.00    +0.016 A 
ATOM     16  C   UNL     1       2.898   2.639  -0.367  0.00  0.00    +0.046 A 
BRANCH  11  18
ATOM     17  C   UNL     1       1.762   0.246   0.637  0.00  0.00    +0.277 C 
ATOM     18  O   UNL     1       3.167   0.342   0.406  0.00  0.00    -0.495 OA
ENDBRANCH  11  18
ENDBRANCH   7  14
ENDBRANCH   1   8
BRANCH   2  19
ATOM     19  C   UNL     1       5.282   3.286  -7.212  0.00  0.00    +0.038 C 
BRANCH  19  20
ATOM     20  C   UNL     1       4.059   2.426  -6.892  0.00  0.00    +0.023 C 
BRANCH  20  21
ATOM     21  C   UNL     1       2.671   2.959  -7.322  0.00  0.00    +0.057 C 
ATOM     22  N   UNL     1       1.661   2.000  -6.812  0.00  0.00    -0.302 NA
ATOM     23  C   UNL     1       0.332   2.595  -6.686  0.00  0.00    +0.105 C 
ATOM     24  C   UNL     1       1.623   0.745  -7.578  0.00  0.00    +0.084 C 
ATOM     25  C   UNL     1       1.474   0.931  -9.088  0.00  0.00    +0.015 C 
ATOM     26  C   UNL     1       2.494   1.917  -9.649  0.00  0.00    +0.003 C 
ATOM     27  C   UNL     1       2.517   3.208  -8.835  0.00  0.00    +0.019 C 
ENDBRANCH  20  21
ENDBRANCH  19  20
ENDBRANCH   2  19
TORSDOF 6
