REMARK  Name = 
REMARK  4 active torsions:
REMARK  status: ('A' for Active; 'I' for Inactive)
REMARK    1  A    between atoms: C_1  and  C_2
REMARK    2  A    between atoms: C_2  and  C_3
REMARK    3  A    between atoms: C_3  and  N_5
REMARK    4  A    between atoms: C_3  and  C_11
REMARK                            x       y       z     vdW  Elec       q    Type
REMARK                         _______ _______ _______ _____ _____    ______ ____
ROOT
ATOM      1  C   UNL     1       3.083   1.485   0.226  0.00  0.00    +0.161 C 
ENDROOT
BRANCH   1   2
ATOM      2  N   UNL     1       2.689   2.081   1.514  0.00  0.00    -0.290 N 
ATOM      3  C   UNL     1       2.632   1.440   2.746  0.00  0.00    +0.216 C 
ATOM      4  O   UNL     1       2.791   0.252   2.964  0.00  0.00    -0.276 OA
ATOM      5  C   UNL     1       2.379   2.491   3.797  0.00  0.00    +0.097 C 
ATOM      6  C   UNL     1       2.945   3.735   3.130  0.00  0.00    +0.028 C 
ATOM      7  C   UNL     1       2.616   3.518   1.664  0.00  0.00    +0.109 C 
ENDBRANCH   1   2
BRANCH   1   8
ATOM      8  C   UNL     1       4.618   1.463   0.088  0.00  0.00    +0.231 C 
ATOM      9  O   UNL     1       5.193   1.631  -0.985  0.00  0.00    -0.274 OA
ATOM     10  N   UNL     1       5.332   1.112   1.199  0.00  0.00    -0.328 N 
ATOM     11  H   UNL     1       6.324   0.957   1.077  0.00  0.00    +0.145 HD
ATOM     12  H   UNL     1       4.870   0.639   1.969  0.00  0.00    +0.145 HD
ENDBRANCH   1   8
BRANCH   1  14
ATOM     13  C   UNL     1       1.006   0.053  -0.132  0.00  0.00    +0.006 C 
ATOM     14  C   UNL     1       2.526   0.078  -0.042  0.00  0.00    +0.028 C 
ENDBRANCH   1  14
TORSDOF 3
