REMARK  Name = 
REMARK  7 active torsions:
REMARK  status: ('A' for Active; 'I' for Inactive)
REMARK    1  A    between atoms: C_2  and  C_6
REMARK    2  A    between atoms: C_11  and  C_15
REMARK    3  A    between atoms: C_17  and  C_29
REMARK    4  A    between atoms: C_19  and  C_22
REMARK    5  A    between atoms: C_29  and  C_31
REMARK    6  A    between atoms: C_29  and  C_35
REMARK    7  A    between atoms: C_31  and  C_32
REMARK                            x       y       z     vdW  Elec       q    Type
REMARK                         _______ _______ _______ _____ _____    ______ ____
ROOT
ATOM      1  C   UNL     1       6.623  -1.916   5.744  0.00  0.00    +0.010 A 
ATOM      2  C   UNL     1       6.904  -3.260   6.231  0.00  0.00    -0.090 A 
ATOM      3  O   UNL     1       6.584  -4.314   5.547  0.00  0.00    -0.873 OA
ATOM      4  C   UNL     1       7.575  -3.314   7.514  0.00  0.00    -0.022 A 
ATOM      5  C   UNL     1       7.957  -2.087   8.154  0.00  0.00    +0.012 A 
ATOM      6  C   UNL     1       7.735  -0.802   7.611  0.00  0.00    -0.037 A 
ATOM      7  C   UNL     1       7.063  -0.747   6.402  0.00  0.00    +0.015 A 
ENDROOT
BRANCH   1  14
ATOM      8  C   UNL     1       3.132  -0.780   1.024  0.00  0.00    +0.063 A 
ATOM      9  C   UNL     1       3.844  -0.167   2.071  0.00  0.00    +0.045 A 
ATOM     10  C   UNL     1       4.587  -0.968   2.941  0.00  0.00    +0.090 A 
ATOM     11  C   UNL     1       4.583  -2.341   2.771  0.00  0.00    +0.067 A 
ATOM     12  N   UNL     1       5.377  -2.781   3.783  0.00  0.00    -0.338 N 
ATOM     13  H   UNL     1       5.636  -3.725   4.067  0.00  0.00    +0.167 HD
ATOM     14  C   UNL     1       5.811  -1.708   4.525  0.00  0.00    +0.139 A 
ATOM     15  C   UNL     1       3.882  -3.000   1.769  0.00  0.00    +0.028 A 
ATOM     16  N   UNL     1       5.337  -0.588   4.001  0.00  0.00    -0.228 NA
ATOM     17  C   UNL     1       3.162  -2.183   0.887  0.00  0.00    +0.018 A 
BRANCH   8  21
ATOM     18  N   UNL     1       1.226  -0.397  -0.391  0.00  0.00    -0.250 N 
ATOM     19  H   UNL     1       0.872  -1.290  -0.066  0.00  0.00    +0.288 HD
ATOM     20  H   UNL     1       0.665   0.134  -1.038  0.00  0.00    +0.288 HD
ATOM     21  C   UNL     1       2.363   0.055   0.096  0.00  0.00    +0.266 C 
ATOM     22  N   UNL     1       2.814   1.246  -0.239  0.00  0.00    -0.288 N 
ATOM     23  H   UNL     1       2.318   1.874  -0.852  0.00  0.00    +0.301 HD
ATOM     24  H   UNL     1       3.697   1.571   0.148  0.00  0.00    +0.301 HD
ENDBRANCH   8  21
ENDBRANCH   1  14
BRANCH   4  25
ATOM     25  C   UNL     1       7.892  -4.633   8.204  0.00  0.00    +0.017 A 
ATOM     26  C   UNL     1       7.056  -5.766   8.061  0.00  0.00    +0.011 A 
ATOM     27  C   UNL     1       7.364  -7.024   8.597  0.00  0.00    +0.001 A 
ATOM     28  C   UNL     1       8.503  -7.184   9.370  0.00  0.00    +0.003 A 
ATOM     29  C   UNL     1       9.321  -6.083   9.591  0.00  0.00    +0.039 A 
ATOM     30  C   UNL     1       9.026  -4.840   9.008  0.00  0.00    +0.131 A 
ATOM     31  F   UNL     1       9.903  -3.854   9.256  0.00  0.00    -0.205 F 
ENDBRANCH   4  25
BRANCH   6  32
ATOM     32  C   UNL     1       8.269   0.459   8.292  0.00  0.00    +0.070 C 
BRANCH  32  33
ATOM     33  C   UNL     1       7.399   1.746   8.380  0.00  0.00    +0.049 C 
ATOM     34  O   UNL     1       7.922   2.705   9.045  0.00  0.00    -0.549 OA
ATOM     35  O   UNL     1       6.196   1.700   7.981  0.00  0.00    -0.549 OA
ENDBRANCH  32  33
BRANCH  32  36
ATOM     36  C   UNL     1       9.734   0.744   7.900  0.00  0.00    +0.066 C 
BRANCH  36  37
ATOM     37  C   UNL     1      10.154   1.153   6.484  0.00  0.00    +0.043 C 
ATOM     38  O   UNL     1      11.381   0.922   6.221  0.00  0.00    -0.550 OA
ATOM     39  O   UNL     1       9.308   1.716   5.738  0.00  0.00    -0.550 OA
ENDBRANCH  36  37
ENDBRANCH  32  36
ENDBRANCH   6  32
TORSDOF 7
