REMARK  Name = 
REMARK  10 active torsions:
REMARK  status: ('A' for Active; 'I' for Inactive)
REMARK    1  A    between atoms: C_1  and  C_2
REMARK    2  A    between atoms: C_2  and  O_4
REMARK    3  A    between atoms: C_2  and  C_5
REMARK    4  A    between atoms: C_5  and  N_7
REMARK    5  A    between atoms: C_5  and  C_8
REMARK    6  A    between atoms: C_11  and  C_12
REMARK    7  A    between atoms: C_17  and  N_18
REMARK    8  A    between atoms: N_24  and  C_25
REMARK    9  A    between atoms: C_25  and  C_26
REMARK   10  A    between atoms: C_26  and  O_27
REMARK                            x       y       z     vdW  Elec       q    Type
REMARK                         _______ _______ _______ _____ _____    ______ ____
ROOT
ATOM      1  C   UNL     1       4.699   1.576   0.286  0.00  0.00    +0.317 C 
ATOM      2  N   UNL     1       5.533   2.651   0.282  0.00  0.00    -0.141 N 
ATOM      3  C   UNL     1       6.806   2.152   0.245  0.00  0.00    +0.379 C 
ATOM      4  O   UNL     1       7.847   2.783   0.263  0.00  0.00    -0.237 OA
ATOM      5  C   UNL     1       6.623   0.682   0.242  0.00  0.00    +0.263 C 
ATOM      6  C   UNL     1       7.641  -0.176   0.391  0.00  0.00    +0.073 C 
ATOM      7  N   UNL     1       5.278   0.410   0.229  0.00  0.00    -0.037 NA
ENDROOT
BRANCH   6   8
ATOM      8  C   UNL     1       7.540  -1.582   0.633  0.00  0.00    +0.006 A 
ATOM      9  C   UNL     1       8.456  -2.639   0.284  0.00  0.00    +0.028 A 
ATOM     10  C   UNL     1       9.685  -2.736  -0.429  0.00  0.00    +0.034 A 
ATOM     11  C   UNL     1      10.300  -4.002  -0.528  0.00  0.00    +0.023 A 
ATOM     12  C   UNL     1       9.719  -5.147   0.008  0.00  0.00    +0.004 A 
ATOM     13  C   UNL     1       8.511  -5.072   0.692  0.00  0.00    +0.026 A 
ATOM     14  C   UNL     1       7.911  -3.816   0.818  0.00  0.00    +0.049 A 
ATOM     15  N   UNL     1       6.745  -3.487   1.464  0.00  0.00    -0.360 N 
ATOM     16  H   UNL     1       6.158  -4.143   1.962  0.00  0.00    +0.165 HD
ATOM     17  C   UNL     1       6.512  -2.150   1.361  0.00  0.00    +0.091 A 
BRANCH  10  18
ATOM     18  N   UNL     1      10.377  -1.639  -0.984  0.00  0.00    -0.357 N 
ATOM     19  H   UNL     1      10.754  -1.843  -1.904  0.00  0.00    +0.142 HD
ATOM     20  H   UNL     1       9.843  -0.781  -0.978  0.00  0.00    +0.142 HD
ENDBRANCH  10  18
ENDBRANCH   6   8
BRANCH   1  21
ATOM     21  C   UNL     1       3.172   1.627   0.316  0.00  0.00    +0.197 C 
BRANCH  21  22
ATOM     22  N   UNL     1       2.713   2.358   1.517  0.00  0.00    -0.316 NA
ATOM     23  H   UNL     1       1.692   2.428   1.433  0.00  0.00    +0.119 HD
ATOM     24  H   UNL     1       2.876   1.773   2.337  0.00  0.00    +0.119 HD
ENDBRANCH  21  22
BRANCH  21  26
ATOM     25  C   UNL     1       2.987   1.407  -2.226  0.00  0.00    +0.040 C 
ATOM     26  C   UNL     1       2.556   2.187  -0.985  0.00  0.00    +0.140 C 
BRANCH  26  27
ATOM     27  O   UNL     1       1.125   2.089  -0.872  0.00  0.00    -0.390 OA
ATOM     28  H   UNL     1       0.741   2.291  -1.743  0.00  0.00    +0.210 HD
ENDBRANCH  26  27
ENDBRANCH  21  26
ENDBRANCH   1  21
BRANCH   2  29
ATOM     29  C   UNL     1       5.255   3.949   0.902  0.00  0.00    +0.355 C 
BRANCH  29  30
ATOM     30  C   UNL     1       5.892   5.245   0.401  0.00  0.00    +0.346 C 
ATOM     31  O   UNL     1       5.395   6.339   0.651  0.00  0.00    -0.247 OA
BRANCH  30  32
ATOM     32  O   UNL     1       7.082   5.163  -0.221  0.00  0.00    -0.478 OA
ATOM     33  H   UNL     1       7.534   4.289  -0.163  0.00  0.00    +0.295 HD
ENDBRANCH  30  32
ENDBRANCH  29  30
ENDBRANCH   2  29
TORSDOF 9
