REMARK  Name = 
REMARK  3 active torsions:
REMARK  status: ('A' for Active; 'I' for Inactive)
REMARK    1  A    between atoms: C_1  and  N_2
REMARK    2  A    between atoms: C_8  and  O_10
REMARK    3  A    between atoms: O_10  and  C_11
REMARK                            x       y       z     vdW  Elec       q    Type
REMARK                         _______ _______ _______ _____ _____    ______ ____
ROOT
ATOM      1  C   UNL     1       4.937  -0.179  -5.848  0.00  0.00    +0.328 C 
ATOM      2  C   UNL     1       5.190  -1.666  -5.920  0.00  0.00    +0.131 A 
ATOM      3  C   UNL     1       6.539  -1.914  -5.766  0.00  0.00    +0.153 A 
ATOM      4  N   UNL     1       7.095  -3.140  -5.765  0.00  0.00    -0.247 NA
ATOM      5  C   UNL     1       6.183  -4.134  -5.914  0.00  0.00    +0.131 A 
ATOM      6  C   UNL     1       4.813  -3.897  -6.057  0.00  0.00    +0.131 A 
ATOM      7  C   UNL     1       7.246  -0.633  -5.614  0.00  0.00    +0.275 C 
ATOM      8  O   UNL     1       8.456  -0.517  -5.531  0.00  0.00    -0.268 OA
ATOM      9  N   UNL     1       4.273  -2.652  -6.067  0.00  0.00    -0.251 NA
ATOM     10  N   UNL     1       6.275   0.357  -5.670  0.00  0.00    -0.208 N 
ATOM     11  C   UNL     1       6.526   1.725  -5.823  0.00  0.00    +0.131 A 
ATOM     12  C   UNL     1       7.644   2.327  -5.248  0.00  0.00    +0.045 A 
ATOM     13  C   UNL     1       7.879   3.686  -5.473  0.00  0.00    +0.025 A 
ATOM     14  C   UNL     1       7.016   4.394  -6.295  0.00  0.00    +0.059 A 
ATOM     15 CL   UNL     1       7.301   6.046  -6.657  0.00  0.00    -0.082 Cl
ATOM     16  C   UNL     1       5.923   3.727  -6.819  0.00  0.00    +0.132 A 
ATOM     17  N   UNL     1       5.648   2.423  -6.572  0.00  0.00    -0.238 NA
ENDROOT
BRANCH   1  18
ATOM     18  O   UNL     1       4.195   0.048  -4.649  0.00  0.00    -0.422 OA
BRANCH  18  24
ATOM     19  C   UNL     1       0.022   0.882  -0.790  0.00  0.00    +0.105 C 
ATOM     20  N   UNL     1       0.090   0.089  -2.016  0.00  0.00    -0.302 NA
ATOM     21  C   UNL     1       1.343  -0.698  -2.091  0.00  0.00    +0.103 C 
ATOM     22  C   UNL     1       2.613   0.126  -2.408  0.00  0.00    +0.126 C 
ATOM     23  N   UNL     1       2.401   0.960  -3.593  0.00  0.00    -0.265 N 
ATOM     24  C   UNL     1       3.061   0.775  -4.791  0.00  0.00    +0.405 C 
ATOM     25  O   UNL     1       2.674   1.238  -5.856  0.00  0.00    -0.226 OA
ATOM     26  C   UNL     1       1.198   1.787  -3.547  0.00  0.00    +0.126 C 
ATOM     27  C   UNL     1      -0.044   0.935  -3.224  0.00  0.00    +0.103 C 
ENDBRANCH  18  24
ENDBRANCH   1  18
TORSDOF 2
