REMARK  Name = 
REMARK  10 active torsions:
REMARK  status: ('A' for Active; 'I' for Inactive)
REMARK    1  A    between atoms: C_5  and  C_6
REMARK    2  A    between atoms: C_6  and  O_7
REMARK    3  A    between atoms: O_7  and  C_8
REMARK    4  A    between atoms: C_8  and  C_9
REMARK    5  A    between atoms: CA_11  and  C_28
REMARK    6  A    between atoms: CA_15  and  N_17
REMARK    7  A    between atoms: C_18  and  C_20
REMARK    8  A    between atoms: C_20  and  S_21
REMARK    9  A    between atoms: S_21  and  C_22
REMARK   10  A    between atoms: C_28  and  O_29
REMARK                            x       y       z     vdW  Elec       q    Type
REMARK                         _______ _______ _______ _____ _____    ______ ____
ROOT
ATOM      1  C   UNL     1       2.243   0.058   0.070  0.00  0.00    +0.169 C 
ATOM      2  CA  UNL     1       2.927  -1.338  -0.105  0.00  0.00    +0.191 C 
ATOM      3  C   UNL     1       3.550  -0.672  -1.384  0.00  0.00    +0.244 C 
ATOM      4  O   UNL     1       4.221  -0.965  -2.344  0.00  0.00    -0.273 OA
ATOM      5  N   UNL     1       3.101   0.540  -0.995  0.00  0.00    -0.249 N 
ATOM      6  CA  UNL     1       3.289   1.855  -1.328  0.00  0.00    +0.125 C 
ATOM      7  C   UNL     1       2.886   2.827  -0.458  0.00  0.00    +0.006 C 
ATOM      8  C   UNL     1       2.279   2.552   0.908  0.00  0.00    +0.107 C 
ATOM      9  S   UNL     1       2.650   0.929   1.600  0.00  0.00    -0.131 S 
ENDROOT
BRANCH   2  10
ATOM     10  N   UNL     1       3.879  -1.728   0.973  0.00  0.00    -0.301 N 
ATOM     11  H   UNL     1       3.785  -1.304   1.894  0.00  0.00    +0.150 HD
ATOM     12  C   UNL     1       4.884  -2.653   0.795  0.00  0.00    +0.224 C 
ATOM     13  O   UNL     1       5.075  -3.225  -0.272  0.00  0.00    -0.275 OA
BRANCH  12  14
ATOM     14  C   UNL     1       5.762  -2.873   2.018  0.00  0.00    +0.170 C 
BRANCH  14  15
ATOM     15  S   UNL     1       4.719  -3.472   3.392  0.00  0.00    -0.116 S 
BRANCH  15  16
ATOM     16  C   UNL     1       5.883  -3.854   4.690  0.00  0.00    +0.011 A 
ATOM     17  C   UNL     1       5.355  -4.476   5.825  0.00  0.00    +0.034 A 
ATOM     18  C   UNL     1       6.203  -4.791   6.872  0.00  0.00    +0.112 A 
ATOM     19  N   UNL     1       7.524  -4.531   6.865  0.00  0.00    -0.263 NA
ATOM     20  C   UNL     1       8.016  -3.931   5.761  0.00  0.00    +0.112 A 
ATOM     21  C   UNL     1       7.248  -3.574   4.662  0.00  0.00    +0.034 A 
ENDBRANCH  15  16
ENDBRANCH  14  15
ENDBRANCH  12  14
ENDBRANCH   2  10
BRANCH   6  22
ATOM     22  C   UNL     1       4.012   2.234  -2.612  0.00  0.00    +0.351 C 
ATOM     23  OXT UNL     1       4.348   3.379  -2.880  0.00  0.00    -0.244 OA
BRANCH  22  24
ATOM     24  O   UNL     1       4.218   1.261  -3.518  0.00  0.00    -0.476 OA
ATOM     25  H   UNL     1       4.218   0.331  -3.199  0.00  0.00    +0.295 HD
ENDBRANCH  22  24
ENDBRANCH   6  22
BRANCH   7  26
ATOM     26  C   UNL     1       3.072   4.325  -0.699  0.00  0.00    +0.266 C 
BRANCH  26  27
ATOM     27  O   UNL     1       2.071   5.078   0.020  0.00  0.00    -0.460 OA
BRANCH  27  28
ATOM     28  C   UNL     1       2.527   6.018   0.892  0.00  0.00    +0.304 C 
ATOM     29  O   UNL     1       3.698   6.235   1.162  0.00  0.00    -0.251 OA
ATOM     30  C   UNL     1       1.380   6.730   1.543  0.00  0.00    +0.136 C 
ENDBRANCH  27  28
ENDBRANCH  26  27
ENDBRANCH   7  26
TORSDOF 9
