REMARK  Name = 
REMARK  8 active torsions:
REMARK  status: ('A' for Active; 'I' for Inactive)
REMARK    1  A    between atoms: N_1  and  CA_2
REMARK    2  A    between atoms: CA_2  and  C_4
REMARK    3  A    between atoms: CA_2  and  C_26
REMARK    4  A    between atoms: C_4  and  C_5
REMARK    5  A    between atoms: N_9  and  C_10
REMARK    6  A    between atoms: C_13  and  C_15
REMARK    7  A    between atoms: C_21  and  O_22
REMARK    8  A    between atoms: C_26  and  O_27
REMARK                            x       y       z     vdW  Elec       q    Type
REMARK                         _______ _______ _______ _____ _____    ______ ____
ROOT
ATOM      1  C   UNL     1       0.001  -0.584  -0.008  0.00  0.00    +0.068 C 
ATOM      2  C   UNL     1       0.769  -0.905  -1.276  0.00  0.00    +0.163 C 
ATOM      3  O   UNL     1       1.210  -2.036  -1.483  0.00  0.00    -0.292 OA
ATOM      4  C   UNL     1       0.912   0.111  -2.330  0.00  0.00    +0.093 C 
ATOM      5  C   UNL     1       0.488   1.361  -2.159  0.00  0.00    +0.141 C 
ATOM      6  C   UNL     1      -0.070   1.819  -0.852  0.00  0.00    +0.078 C 
ATOM      7  N   UNL     1      -0.584   3.017  -0.835  0.00  0.00    -0.281 NA
ATOM      8  C   UNL     1       0.111   0.901   0.343  0.00  0.00    +0.070 C 
ENDROOT
BRANCH   7   9
ATOM      9  C   UNL     1      -0.974   3.609   0.404  0.00  0.00    +0.114 C 
ATOM     10  C   UNL     1      -0.799   5.124   0.440  0.00  0.00    +0.045 C 
ATOM     11  C   UNL     1      -2.169   4.506   0.462  0.00  0.00    +0.037 C 
BRANCH  10  12
ATOM     12  C   UNL     1      -0.113   5.661   1.669  0.00  0.00    -0.042 A 
ATOM     13  C   UNL     1      -0.716   6.606   2.508  0.00  0.00    +0.004 A 
ATOM     14  C   UNL     1      -0.083   7.031   3.681  0.00  0.00    +0.000 A 
ATOM     15  C   UNL     1       1.166   6.522   4.030  0.00  0.00    +0.000 A 
ATOM     16  C   UNL     1       1.797   5.607   3.196  0.00  0.00    +0.000 A 
ATOM     17  C   UNL     1       1.167   5.194   2.024  0.00  0.00    +0.004 A 
ENDBRANCH  10  12
ENDBRANCH   7   9
BRANCH   5  18
ATOM     18  O   UNL     1       0.608   2.303  -3.160  0.00  0.00    -0.505 OA
ATOM     19  H   UNL     1       0.240   3.128  -2.770  0.00  0.00    +0.292 HD
ENDBRANCH   5  18
BRANCH   1  20
ATOM     20  C   UNL     1      -1.482  -1.007  -0.067  0.00  0.00    +0.041 C 
BRANCH  20  21
ATOM     21  CA  UNL     1      -1.781  -2.497  -0.301  0.00  0.00    +0.161 C 
BRANCH  21  22
ATOM     22  N   UNL     1      -1.410  -2.971  -1.662  0.00  0.00    -0.318 NA
ATOM     23  H1  UNL     1      -1.462  -2.189  -2.322  0.00  0.00    +0.119 HD
ATOM     24  H2  UNL     1      -0.399  -3.188  -1.645  0.00  0.00    +0.119 HD
ENDBRANCH  21  22
BRANCH  21  25
ATOM     25  C   UNL     1      -3.298  -2.741  -0.123  0.00  0.00    +0.322 C 
ATOM     26  OXT UNL     1      -3.963  -2.389   0.839  0.00  0.00    -0.249 OA
BRANCH  25  27
ATOM     27  O   UNL     1      -3.819  -3.396  -1.193  0.00  0.00    -0.480 OA
ATOM     28  H   UNL     1      -3.046  -3.574  -1.788  0.00  0.00    +0.295 HD
ENDBRANCH  25  27
ENDBRANCH  21  25
ENDBRANCH  20  21
ENDBRANCH   1  20
TORSDOF 8
