REMARK  Name = 
REMARK  5 active torsions:
REMARK  status: ('A' for Active; 'I' for Inactive)
REMARK    1  A    between atoms: C_1  and  C_2
REMARK    2  A    between atoms: C_2  and  C_3
REMARK    3  A    between atoms: C_4  and  C_5
REMARK    4  A    between atoms: C_11  and  C_12
REMARK    5  A    between atoms: C_12  and  N_13
REMARK                            x       y       z     vdW  Elec       q    Type
REMARK                         _______ _______ _______ _____ _____    ______ ____
ROOT
ATOM      1  C   UNL     1       2.898   1.019  -0.554  0.00  0.00    -0.017 A 
ATOM      2  C   UNL     1       3.646   0.898  -1.771  0.00  0.00    +0.042 A 
ATOM      3  C   UNL     1       4.261  -0.263  -2.409  0.00  0.00    +0.169 C 
ATOM      4  C   UNL     1       4.811  -0.079  -3.839  0.00  0.00    +0.075 C 
ATOM      5  C   UNL     1       5.086   1.398  -4.250  0.00  0.00    +0.019 C 
ATOM      6  C   UNL     1       4.161   2.488  -3.704  0.00  0.00    +0.054 C 
ATOM      7  O   UNL     1       4.252  -1.357  -1.848  0.00  0.00    -0.292 OA
ATOM      8  C   UNL     1       3.663   2.140  -2.357  0.00  0.00    +0.027 A 
ATOM      9  N   UNL     1       3.088   3.035  -1.500  0.00  0.00    -0.361 N 
ATOM     10  H   UNL     1       2.987   4.028  -1.665  0.00  0.00    +0.165 HD
ATOM     11  C   UNL     1       2.620   2.370  -0.391  0.00  0.00    +0.017 A 
ATOM     12  C   UNL     1       1.932   3.108   0.701  0.00  0.00    +0.063 C 
ENDROOT
BRANCH   1  14
ATOM     13  C   UNL     1       3.443  -0.386   1.467  0.00  0.00    +0.009 C 
ATOM     14  C   UNL     1       2.461  -0.100   0.346  0.00  0.00    +0.034 C 
ENDBRANCH   1  14
BRANCH   4  15
ATOM     15  C   UNL     1       6.139  -0.859  -4.064  0.00  0.00    +0.096 C 
BRANCH  15  16
ATOM     16  N   UNL     1       6.127  -2.317  -3.896  0.00  0.00    -0.297 NA
ATOM     17  C   UNL     1       7.485  -2.902  -3.961  0.00  0.00    +0.112 C 
ATOM     18  C   UNL     1       8.049  -3.029  -5.388  0.00  0.00    +0.175 C 
ATOM     19  O   UNL     1       7.152  -3.735  -6.255  0.00  0.00    -0.377 OA
ATOM     20  C   UNL     1       5.858  -3.118  -6.265  0.00  0.00    +0.175 C 
ATOM     21  C   UNL     1       5.266  -3.038  -4.850  0.00  0.00    +0.112 C 
ENDBRANCH  15  16
ENDBRANCH   4  15
TORSDOF 3
