REMARK  Name = 
REMARK  5 active torsions:
REMARK  status: ('A' for Active; 'I' for Inactive)
REMARK    1  A    between atoms: O_1  and  C_2
REMARK    2  A    between atoms: C_5  and  N_13
REMARK    3  A    between atoms: C_7  and  O_8
REMARK    4  A    between atoms: O_8  and  S_9
REMARK    5  A    between atoms: S_9  and  O_10
REMARK                            x       y       z     vdW  Elec       q    Type
REMARK                         _______ _______ _______ _____ _____    ______ ____
ROOT
ATOM      1  C   UNL     1       2.456   0.143   0.200  0.00  0.00    +0.162 A 
ATOM      2  C   UNL     1       3.104  -1.084   0.038  0.00  0.00    +0.206 A 
ATOM      3  C   UNL     1       4.485  -1.111  -0.179  0.00  0.00    +0.136 A 
ATOM      4  C   UNL     1       5.199   0.090  -0.274  0.00  0.00    +0.277 A 
ATOM      5  C   UNL     1       4.541   1.320  -0.147  0.00  0.00    +0.088 A 
ATOM      6  C   UNL     1       3.165   1.343   0.093  0.00  0.00    +0.056 A 
ENDROOT
BRANCH   4   7
ATOM      7  N   UNL     1       6.651   0.056  -0.493  0.00  0.00    +0.080 N 
ATOM      8  O   UNL     1       7.195  -1.053  -0.584  0.00  0.00    +0.041 OA
ATOM      9  O   UNL     1       7.246   1.141  -0.567  0.00  0.00    -0.576 OA
ENDBRANCH   4   7
BRANCH   1  10
ATOM     10  O   UNL     1       1.123   0.189   0.507  0.00  0.00    -0.503 OA
ATOM     11  H   UNL     1       0.769   1.017   0.124  0.00  0.00    +0.292 HD
ENDBRANCH   1  10
BRANCH   2  12
ATOM     12  O   UNL     1       2.514  -2.318   0.126  0.00  0.00    -0.321 OA
BRANCH  12  13
ATOM     13  S   UNL     1       0.997  -2.624  -0.390  0.00  0.00    +0.251 S 
ATOM     14  O   UNL     1       0.870  -4.056  -0.557  0.00  0.00    -0.108 OA
ATOM     15  O   UNL     1       0.646  -1.725  -1.470  0.00  0.00    -0.108 OA
BRANCH  13  16
ATOM     16  O   UNL     1       0.097  -2.209   0.885  0.00  0.00    -0.222 OA
ATOM     17  H   UNL     1       0.286  -1.261   1.066  0.00  0.00    +0.248 HD
ENDBRANCH  13  16
ENDBRANCH  12  13
ENDBRANCH   2  12
TORSDOF 5
