REMARK  Name = 
REMARK  9 active torsions:
REMARK  status: ('A' for Active; 'I' for Inactive)
REMARK    1  A    between atoms: C_1  and  N_2
REMARK    2  A    between atoms: N_2  and  C_3
REMARK    3  A    between atoms: C_3  and  C_4
REMARK    4  A    between atoms: C_4  and  C_5
REMARK    5  A    between atoms: C_5  and  C_6
REMARK    6  A    between atoms: C_6  and  C_7
REMARK    7  A    between atoms: C_7  and  N_9
REMARK    8  A    between atoms: C_7  and  C_10
REMARK    9  A    between atoms: C_10  and  O_11
REMARK                            x       y       z     vdW  Elec       q    Type
REMARK                         _______ _______ _______ _____ _____    ______ ____
ROOT
ATOM      1  C   UNK     1       7.096   4.227  -1.061  0.00  0.00    +0.161 C 
ENDROOT
BRANCH   1   2
ATOM      2  N   UNK     1       6.744   5.242  -0.026  0.00  0.00    -0.318 NA
ATOM      3  H   UNK     1       7.034   6.161  -0.381  0.00  0.00    +0.119 HD
ATOM      4  H   UNK     1       5.724   5.311   0.021  0.00  0.00    +0.119 HD
ENDBRANCH   1   2
BRANCH   1   5
ATOM      5  C   UNK     1       8.629   4.131  -1.127  0.00  0.00    +0.322 C 
ATOM      6  O   UNK     1       9.269   3.726  -2.084  0.00  0.00    -0.249 OA
BRANCH   5   7
ATOM      7  O   UNK     1       9.195   4.535   0.041  0.00  0.00    -0.480 OA
ATOM      8  H   UNK     1       8.447   4.821   0.623  0.00  0.00    +0.295 HD
ENDBRANCH   5   7
ENDBRANCH   1   5
BRANCH   1   9
ATOM      9  C   UNK     1       6.527   2.844  -0.715  0.00  0.00    +0.030 C 
BRANCH   9  10
ATOM     10  C   UNK     1       4.998   2.793  -0.753  0.00  0.00    +0.003 C 
BRANCH  10  11
ATOM     11  C   UNK     1       4.468   1.394  -0.422  0.00  0.00    +0.015 C 
BRANCH  11  12
ATOM     12  C   UNK     1       2.937   1.374  -0.451  0.00  0.00    +0.080 C 
BRANCH  12  14
ATOM     13  C   UNK     1       0.987   0.005  -0.128  0.00  0.00    +0.101 C 
ATOM     14  N   UNK     1       2.444   0.042  -0.106  0.00  0.00    -0.319 NA
ATOM     15  H   UNK     1       2.809  -0.643  -0.766  0.00  0.00    +0.122 HD
ENDBRANCH  12  14
ENDBRANCH  11  12
ENDBRANCH  10  11
ENDBRANCH   9  10
ENDBRANCH   1   9
TORSDOF 8
