REMARK  Name = 
REMARK  7 active torsions:
REMARK  status: ('A' for Active; 'I' for Inactive)
REMARK    1  A    between atoms: O_1  and  C_2
REMARK    2  A    between atoms: C_2  and  C_3
REMARK    3  A    between atoms: C_2  and  C_12
REMARK    4  A    between atoms: C_2  and  C_18
REMARK    5  A    between atoms: C_3  and  C_4
REMARK    6  A    between atoms: C_4  and  C_5
REMARK    7  A    between atoms: C_5  and  N_6
REMARK                            x       y       z     vdW  Elec       q    Type
REMARK                         _______ _______ _______ _____ _____    ______ ____
ROOT
ATOM      1  C   UNL     1       2.416  -0.136   0.049  0.00  0.00    +0.116 C 
ENDROOT
BRANCH   1   2
ATOM      2  C   UNL     1       2.934  -0.890  -1.184  0.00  0.00    -0.012 A 
ATOM      3  C   UNL     1       4.314  -1.060  -1.406  0.00  0.00    +0.007 A 
ATOM      4  C   UNL     1       4.787  -1.827  -2.476  0.00  0.00    +0.000 A 
ATOM      5  C   UNL     1       3.892  -2.427  -3.357  0.00  0.00    +0.000 A 
ATOM      6  C   UNL     1       2.524  -2.240  -3.183  0.00  0.00    +0.000 A 
ATOM      7  C   UNL     1       2.052  -1.478  -2.110  0.00  0.00    +0.007 A 
ENDBRANCH   1   2
BRANCH   1   8
ATOM      8  C   UNL     1       2.888  -0.809   1.361  0.00  0.00    -0.012 A 
ATOM      9  C   UNL     1       4.050  -0.389   2.041  0.00  0.00    +0.007 A 
ATOM     10  C   UNL     1       4.433  -0.962   3.255  0.00  0.00    +0.000 A 
ATOM     11  C   UNL     1       3.666  -1.976   3.812  0.00  0.00    +0.000 A 
ATOM     12  C   UNL     1       2.538  -2.441   3.140  0.00  0.00    +0.000 A 
ATOM     13  C   UNL     1       2.159  -1.873   1.920  0.00  0.00    +0.007 A 
ENDBRANCH   1   8
BRANCH   1  14
ATOM     14  O   UNL     1       0.974  -0.146   0.045  0.00  0.00    -0.379 OA
ATOM     15  H   UNL     1       0.699   0.096   0.945  0.00  0.00    +0.211 HD
ENDBRANCH   1  14
BRANCH   1  16
ATOM     16  C   UNL     1       2.806   1.363   0.056  0.00  0.00    +0.046 C 
BRANCH  16  17
ATOM     17  C   UNL     1       2.228   2.231  -1.067  0.00  0.00    +0.019 C 
BRANCH  17  18
ATOM     18  C   UNL     1       2.689   3.693  -0.905  0.00  0.00    +0.084 C 
BRANCH  18  19
ATOM     19  N   UNL     1       4.152   3.841  -0.803  0.00  0.00    -0.302 NA
ATOM     20  C   UNL     1       4.550   5.201  -0.412  0.00  0.00    +0.084 C 
ATOM     21  C   UNL     1       4.372   6.236  -1.524  0.00  0.00    +0.015 C 
ATOM     22  C   UNL     1       5.064   5.798  -2.813  0.00  0.00    +0.002 C 
ATOM     23  C   UNL     1       4.683   4.370  -3.192  0.00  0.00    +0.015 C 
ATOM     24  C   UNL     1       4.878   3.422  -2.010  0.00  0.00    +0.084 C 
ENDBRANCH  18  19
ENDBRANCH  17  18
ENDBRANCH  16  17
ENDBRANCH   1  16
TORSDOF 7
