REMARK  Name = 
REMARK  3 active torsions:
REMARK  status: ('A' for Active; 'I' for Inactive)
REMARK    1  A    between atoms: O_1  and  C_2
REMARK    2  A    between atoms: C_2  and  C_3
REMARK    3  A    between atoms: C_3  and  N_4
REMARK                            x       y       z     vdW  Elec       q    Type
REMARK                         _______ _______ _______ _____ _____    ______ ____
ROOT
ATOM      1  N   UNL     1       4.470   0.100   1.619  0.00  0.00    -0.325 N 
ATOM      2  H   UNL     1       3.729   0.750   1.354  0.00  0.00    +0.148 HD
ATOM      3  C   UNL     1       5.169   0.598   2.722  0.00  0.00    +0.150 A 
ATOM      4  C   UNL     1       5.185   1.970   3.053  0.00  0.00    +0.148 A 
ATOM      5  N   UNL     1       4.620   3.083   2.452  0.00  0.00    -0.223 NA
ATOM      6  C   UNL     1       4.976   4.098   3.217  0.00  0.00    +0.140 A 
ATOM      7  N   UNL     1       5.722   3.682   4.317  0.00  0.00    -0.284 N 
ATOM      8  C   UNL     1       6.203   4.547   5.299  0.00  0.00    +0.095 A 
ATOM      9  C   UNL     1       5.955   5.862   5.193  0.00  0.00    +0.018 A 
ATOM     10  C   UNL     1       5.196   6.343   4.048  0.00  0.00    +0.005 A 
ATOM     11  C   UNL     1       4.727   5.499   3.106  0.00  0.00    +0.047 A 
ATOM     12  C   UNL     1       5.864   2.320   4.211  0.00  0.00    +0.170 A 
ATOM     13  N   UNL     1       6.519   1.503   5.056  0.00  0.00    -0.216 NA
ATOM     14  C   UNL     1       6.461   0.230   4.635  0.00  0.00    +0.225 A 
ATOM     15  N   UNL     1       5.838  -0.257   3.545  0.00  0.00    -0.219 NA
ENDROOT
BRANCH   1  16
ATOM     16  C   UNL     1       4.009  -1.285   1.741  0.00  0.00    +0.130 C 
BRANCH  16  17
ATOM     17  C   UNL     1       2.948  -1.448   2.838  0.00  0.00    +0.174 C 
BRANCH  17  18
ATOM     18  O   UNL     1       1.794  -0.665   2.527  0.00  0.00    -0.393 OA
ATOM     19  H   UNL     1       1.232  -0.671   3.321  0.00  0.00    +0.209 HD
ENDBRANCH  17  18
ENDBRANCH  16  17
ENDBRANCH   1  16
TORSDOF 3
