REMARK  Name = 
REMARK  3 active torsions:
REMARK  status: ('A' for Active; 'I' for Inactive)
REMARK    1  A    between atoms: C_7  and  O_8
REMARK    2  A    between atoms: C_11  and  C_12
REMARK    3  A    between atoms: C_18  and  N_20
REMARK                            x       y       z     vdW  Elec       q    Type
REMARK                         _______ _______ _______ _____ _____    ______ ____
ROOT
ATOM      1  C   UNL     1       2.261  -0.557   0.184  0.00  0.00    +0.011 C 
ATOM      2  C   UNL     1       2.877  -1.379  -0.959  0.00  0.00    +0.064 C 
ATOM      3  C   UNL     1       4.446  -1.452  -0.883  0.00  0.00    +0.009 C 
ATOM      4  C   UNL     1       4.946  -2.234  -2.132  0.00  0.00    +0.018 C 
ATOM      5  C   UNL     1       5.063  -2.098   0.383  0.00  0.00    +0.013 C 
ATOM      6  C   UNL     1       4.462  -3.412   0.871  0.00  0.00    +0.001 C 
ATOM      7  C   UNL     1       3.655  -3.241   2.154  0.00  0.00    +0.000 C 
ATOM      8  C   UNL     1       2.316  -2.513   2.001  0.00  0.00    +0.000 C 
ATOM      9  C   UNL     1       4.976   0.005  -0.896  0.00  0.00    -0.033 A 
ATOM     10  C   UNL     1       4.174   1.075  -0.444  0.00  0.00    -0.043 A 
ATOM     11  C   UNL     1       4.689   2.388  -0.480  0.00  0.00    +0.007 A 
ATOM     12  C   UNL     1       5.992   2.639  -0.902  0.00  0.00    +0.045 A 
ATOM     13  C   UNL     1       6.794   1.579  -1.292  0.00  0.00    +0.117 A 
ATOM     14  C   UNL     1       6.303   0.278  -1.286  0.00  0.00    +0.050 A 
ATOM     15  C   UNL     1       2.411  -1.022   1.660  0.00  0.00    +0.005 C 
ATOM     16  C   UNL     1       2.747   0.902   0.034  0.00  0.00    +0.040 C 
ENDROOT
BRANCH   2  17
ATOM     17  N   UNL     1       2.122  -2.630  -1.144  0.00  0.00    -0.326 NA
ATOM     18  H   UNL     1       1.376  -2.457  -1.820  0.00  0.00    +0.119 HD
ATOM     19  H   UNL     1       2.696  -3.347  -1.576  0.00  0.00    +0.119 HD
ENDBRANCH   2  17
BRANCH  13  20
ATOM     20  O   UNL     1       8.090   1.761  -1.679  0.00  0.00    -0.507 OA
ATOM     21  H   UNL     1       8.303   2.705  -1.594  0.00  0.00    +0.292 HD
ENDBRANCH  13  20
TORSDOF 2
