REMARK  Name = 
REMARK  25 active torsions:
REMARK  status: ('A' for Active; 'I' for Inactive)
REMARK    1  A    between atoms: C_1  and  C_2
REMARK    2  A    between atoms: C_2  and  C_3
REMARK    3  A    between atoms: C_2  and  C_72
REMARK    4  A    between atoms: C_3  and  C_4
REMARK    5  A    between atoms: C_4  and  C_5
REMARK    6  A    between atoms: C_4  and  C_6
REMARK    7  A    between atoms: C_19  and  O_20
REMARK    8  A    between atoms: C_22  and  O_23
REMARK    9  A    between atoms: C_25  and  O_26
REMARK   10  A    between atoms: C_28  and  O_29
REMARK   11  A    between atoms: C_31  and  O_32
REMARK   12  A    between atoms: C_33  and  C_69
REMARK   13  A    between atoms: C_36  and  O_37
REMARK   14  A    between atoms: O_37  and  C_38
REMARK   15  A    between atoms: C_40  and  C_42
REMARK   16  A    between atoms: C_43  and  O_45
REMARK   17  A    between atoms: C_46  and  N_48
REMARK   18  A    between atoms: C_49  and  O_51
REMARK   19  A    between atoms: C_66  and  C_67
REMARK   20  A    between atoms: C_69  and  O_70
REMARK   21  A    between atoms: C_72  and  O_73
REMARK   22  A    between atoms: C_72  and  C_74
REMARK   23  A    between atoms: C_74  and  C_75
REMARK   24  A    between atoms: C_75  and  C_77
REMARK   25  A    between atoms: C_80  and  N_81
REMARK                            x       y       z     vdW  Elec       q    Type
REMARK                         _______ _______ _______ _____ _____    ______ ____
ROOT
ATOM      1  C   UNL     1       4.798  -5.191  -4.460  0.00  0.00    +0.186 C 
ATOM      2  C   UNL     1       6.358  -4.109  -4.822  0.00  0.00    +0.050 C 
ATOM      3  C   UNL     1       6.958  -4.011  -3.380  0.00  0.00    +0.015 C 
ATOM      4  C   UNL     1       6.938  -2.464  -5.530  0.00  0.00    -0.020 C 
ATOM      5  C   UNL     1       7.582  -1.504  -6.442  0.00  0.00    -0.004 C 
ATOM      6  C   UNL     1       8.448  -1.065  -7.864  0.00  0.00    -0.000 C 
ATOM      7  C   UNL     1       8.532   0.062  -8.745  0.00  0.00    -0.000 C 
ATOM      8  C   UNL     1       9.363   0.122 -10.084  0.00  0.00    -0.000 C 
ATOM      9  C   UNL     1       9.197   0.773 -11.288  0.00  0.00    -0.000 C 
ATOM     10  C   UNL     1       9.565  -0.002 -12.522  0.00  0.00    +0.000 C 
ATOM     11  C   UNL     1       9.051   0.064 -13.779  0.00  0.00    +0.000 C 
ATOM     12  C   UNL     1       8.882  -1.204 -14.545  0.00  0.00    -0.000 C 
ATOM     13  C   UNL     1       8.157  -1.408 -15.663  0.00  0.00    -0.000 C 
ATOM     14  C   UNL     1       7.799  -2.761 -16.137  0.00  0.00    -0.000 C 
ATOM     15  C   UNL     1       7.023  -3.028 -17.210  0.00  0.00    -0.000 C 
ATOM     16  C   UNL     1       6.679  -4.375 -17.671  0.00  0.00    -0.002 C 
ATOM     17  C   UNL     1       6.035  -4.677 -18.828  0.00  0.00    +0.004 C 
ATOM     18  C   UNL     1       5.890  -6.119 -19.344  0.00  0.00    +0.147 C 
ATOM     19  C   UNL     1       5.129  -6.305 -20.691  0.00  0.00    +0.068 C 
ATOM     20  C   UNL     1       4.767  -7.763 -21.196  0.00  0.00    +0.141 C 
ATOM     21  O   UNL     1       5.873  -8.669 -21.304  0.00  0.00    -0.344 OA
ATOM     22  C   UNL     1       5.600 -10.029 -21.726  0.00  0.00    +0.172 C 
ATOM     23  C   UNL     1       4.886 -10.035 -23.084  0.00  0.00    +0.097 C 
ATOM     24  C   UNL     1       3.659  -9.117 -23.021  0.00  0.00    +0.136 C 
ATOM     25  C   UNL     1       4.846 -10.932 -20.703  0.00  0.00    +0.096 C 
ATOM     26  C   UNL     1       5.235 -10.622 -19.258  0.00  0.00    +0.122 C 
ATOM     27  C   UNL     1       4.383 -11.328 -18.177  0.00  0.00    +0.063 C 
ATOM     28  C   UNL     1       4.652 -10.657 -16.803  0.00  0.00    +0.119 C 
ATOM     29  C   UNL     1       3.834 -11.198 -15.623  0.00  0.00    +0.063 C 
ATOM     30  C   UNL     1       4.108 -10.415 -14.305  0.00  0.00    +0.124 C 
ATOM     31  C   UNL     1       3.365 -11.031 -13.112  0.00  0.00    +0.105 C 
ATOM     32  C   UNL     1       3.533 -10.205 -11.841  0.00  0.00    +0.136 C 
ATOM     33  O   UNL     1       4.005  -9.067 -11.874  0.00  0.00    -0.297 OA
ATOM     34  C   UNL     1       3.009 -10.805 -10.517  0.00  0.00    +0.075 C 
ATOM     35  C   UNL     1       3.488  -9.896  -9.373  0.00  0.00    +0.015 C 
ATOM     36  C   UNL     1       3.188 -10.151  -7.879  0.00  0.00    +0.075 C 
ATOM     37  C   UNL     1       4.127  -9.180  -7.079  0.00  0.00    +0.144 C 
ATOM     38  O   UNL     1       5.175  -8.786  -7.581  0.00  0.00    -0.297 OA
ATOM     39  C   UNL     1       3.843  -8.742  -5.674  0.00  0.00    +0.194 C 
ATOM     40  C   UNL     1       3.874  -7.210  -5.543  0.00  0.00    +0.315 C 
ATOM     41  O   UNL     1       2.887  -6.567  -5.869  0.00  0.00    -0.250 OA
ATOM     42  C   UNL     1       4.059  -7.714 -22.579  0.00  0.00    +0.155 C 
ATOM     43  O   UNL     1       4.993  -6.617  -4.983  0.00  0.00    -0.460 OA
ENDROOT
BRANCH  42  44
ATOM     44  C   UNL     1       4.857  -7.025 -23.619  0.00  0.00    +0.313 C 
ATOM     45  O   UNL     1       4.286  -6.530 -24.593  0.00  0.00    -0.251 OA
BRANCH  44  46
ATOM     46  O   UNL     1       6.188  -7.184 -23.590  0.00  0.00    -0.480 OA
ATOM     47  H   UNL     1       6.535  -7.692 -22.817  0.00  0.00    +0.295 HD
ENDBRANCH  44  46
ENDBRANCH  42  44
BRANCH  30  48
ATOM     48  O   UNL     1       5.491 -10.406 -13.954  0.00  0.00    -0.391 OA
ATOM     49  H   UNL     1       5.914 -11.222 -14.259  0.00  0.00    +0.210 HD
ENDBRANCH  30  48
BRANCH  28  50
ATOM     50  O   UNL     1       6.023 -10.808 -16.454  0.00  0.00    -0.392 OA
ATOM     51  H   UNL     1       6.290 -11.726 -16.623  0.00  0.00    +0.210 HD
ENDBRANCH  28  50
BRANCH  26  52
ATOM     52  O   UNL     1       6.592 -10.998 -19.040  0.00  0.00    -0.392 OA
ATOM     53  H   UNL     1       7.028 -11.189 -19.889  0.00  0.00    +0.210 HD
ENDBRANCH  26  52
BRANCH  22  54
ATOM     54  O   UNL     1       6.882 -10.638 -21.913  0.00  0.00    -0.364 OA
ATOM     55  H   UNL     1       6.768 -11.439 -22.455  0.00  0.00    +0.213 HD
ENDBRANCH  22  54
BRANCH  24  56
ATOM     56  O   UNL     1       2.947  -9.172 -24.250  0.00  0.00    -0.391 OA
ATOM     57  H   UNL     1       3.334  -8.551 -24.901  0.00  0.00    +0.210 HD
ENDBRANCH  24  56
BRANCH   1  58
ATOM     58  C   UNL     1       3.850  -5.607  -2.936  0.00  0.00    +0.028 C 
ATOM     59  C   UNL     1       4.692  -6.121  -1.670  0.00  0.00    +0.011 C 
BRANCH  58  60
ATOM     60  C   UNL     1       2.597  -6.854  -2.803  0.00  0.00    +0.012 C 
BRANCH  60  62
ATOM     61  C   UNL     1       0.783  -8.396  -4.118  0.00  0.00    +0.010 C 
ATOM     62  C   UNL     1       1.044  -7.263  -3.103  0.00  0.00    +0.015 C 
BRANCH  62  63
ATOM     63  C   UNL     1      -0.015  -6.143  -3.185  0.00  0.00    +0.125 C 
BRANCH  63  64
ATOM     64  O   UNL     1       0.232  -5.386  -4.368  0.00  0.00    -0.391 OA
ATOM     65  H   UNL     1       0.320  -6.008  -5.115  0.00  0.00    +0.210 HD
ENDBRANCH  63  64
BRANCH  63  66
ATOM     66  C   UNL     1      -1.516  -6.555  -3.229  0.00  0.00    +0.111 C 
BRANCH  66  67
ATOM     67  C   UNL     1      -2.100  -7.226  -1.998  0.00  0.00    +0.166 C 
ATOM     68  O   UNL     1      -1.436  -7.436  -0.989  0.00  0.00    -0.292 OA
BRANCH  67  69
ATOM     69  C   UNL     1      -3.530  -7.708  -2.056  0.00  0.00    +0.018 A 
ATOM     70  C   UNL     1      -4.483  -7.105  -2.885  0.00  0.00    +0.013 A 
ATOM     71  C   UNL     1      -5.799  -7.601  -2.938  0.00  0.00    +0.023 A 
ATOM     72  C   UNL     1      -6.179  -8.722  -2.194  0.00  0.00    +0.025 A 
ATOM     73  C   UNL     1      -5.256  -9.265  -1.301  0.00  0.00    +0.023 A 
ATOM     74  C   UNL     1      -3.941  -8.770  -1.230  0.00  0.00    +0.013 A 
BRANCH  72  75
ATOM     75  N   UNL     1      -7.511  -9.150  -2.186  0.00  0.00    -0.358 N 
ATOM     76  H   UNL     1      -8.021  -8.934  -3.037  0.00  0.00    +0.142 HD
ATOM     77  H   UNL     1      -7.630 -10.121  -1.910  0.00  0.00    +0.142 HD
ENDBRANCH  72  75
ENDBRANCH  67  69
ENDBRANCH  66  67
ENDBRANCH  63  66
ENDBRANCH  62  63
ENDBRANCH  60  62
ENDBRANCH  58  60
ENDBRANCH   1  58
BRANCH  18  78
ATOM     78  O   UNL     1       7.191  -6.675 -19.295  0.00  0.00    -0.341 OA
BRANCH  78  79
ATOM     79  C   UNL     1       8.062  -6.462 -20.407  0.00  0.00    +0.281 C 
ATOM     80  C   UNL     1       9.200  -7.474 -20.216  0.00  0.00    +0.189 C 
ATOM     81  C   UNL     1      10.262  -6.893 -19.281  0.00  0.00    +0.116 C 
ATOM     82  C   UNL     1      10.761  -5.550 -19.840  0.00  0.00    +0.162 C 
ATOM     83  C   UNL     1       9.569  -4.583 -19.921  0.00  0.00    +0.148 C 
ATOM     84  C   UNL     1       9.997  -3.264 -20.578  0.00  0.00    +0.041 C 
ATOM     85  O   UNL     1       8.466  -5.110 -20.661  0.00  0.00    -0.343 OA
BRANCH  81  86
ATOM     86  N   UNL     1      11.381  -7.838 -19.061  0.00  0.00    -0.323 NA
ATOM     87  H   UNL     1      11.840  -8.006 -19.955  0.00  0.00    +0.119 HD
ATOM     88  H   UNL     1      12.086  -7.332 -18.517  0.00  0.00    +0.119 HD
ENDBRANCH  81  86
BRANCH  82  89
ATOM     89  O   UNL     1      11.796  -5.032 -18.989  0.00  0.00    -0.388 OA
ATOM     90  H   UNL     1      11.407  -4.890 -18.108  0.00  0.00    +0.210 HD
ENDBRANCH  82  89
BRANCH  80  91
ATOM     91  O   UNL     1       9.774  -7.831 -21.482  0.00  0.00    -0.385 OA
ATOM     92  H   UNL     1      10.218  -8.683 -21.320  0.00  0.00    +0.210 HD
ENDBRANCH  80  91
ENDBRANCH  78  79
ENDBRANCH  18  78
TORSDOF 21
