REMARK  Name = 
REMARK  4 active torsions:
REMARK  status: ('A' for Active; 'I' for Inactive)
REMARK    1  A    between atoms: C_2  and  C_3
REMARK    2  A    between atoms: C_3  and  N_4
REMARK    3  A    between atoms: N_4  and  N_5
REMARK    4  A    between atoms: N_9  and  C_10
REMARK                            x       y       z     vdW  Elec       q    Type
REMARK                         _______ _______ _______ _____ _____    ______ ____
ROOT
ATOM      1  N   UNL     1       4.641  -1.368   0.766  0.00  0.00    -0.140 N 
ATOM      2  C   UNL     1       5.363  -2.508   1.176  0.00  0.00    +0.324 C 
ATOM      3  N   UNL     1       6.681  -2.497   0.783  0.00  0.00    -0.295 N 
ATOM      4  H   UNL     1       7.054  -1.564   0.694  0.00  0.00    +0.151 HD
ATOM      5  O   UNL     1       4.858  -3.431   1.814  0.00  0.00    -0.251 OA
ENDROOT
BRANCH   3   6
ATOM      6  C   UNL     1       7.708  -3.512   1.014  0.00  0.00    +0.074 C 
ATOM      7  C   UNL     1       9.009  -2.986   0.378  0.00  0.00    +0.022 C 
ATOM      8  C   UNL     1       8.864  -2.874  -1.142  0.00  0.00    +0.002 C 
ATOM      9  C   UNL     1       8.534  -4.227  -1.762  0.00  0.00    +0.000 C 
ATOM     10  C   UNL     1       7.324  -4.893  -1.108  0.00  0.00    +0.002 C 
ATOM     11  C   UNL     1       7.388  -4.893   0.420  0.00  0.00    +0.022 C 
ENDBRANCH   3   6
BRANCH   1  12
ATOM     12  N   UNL     1       5.269  -0.427  -0.068  0.00  0.00    +0.053 NA
ATOM     13  O   UNL     1       4.586   0.568  -0.336  0.00  0.00    -0.126 OA
ENDBRANCH   1  12
BRANCH   1  14
ATOM     14  C   UNL     1       3.229  -1.228   1.109  0.00  0.00    +0.155 C 
BRANCH  14  16
ATOM     15 CL   UNL     1       3.676   0.770   2.957  0.00  0.00    -0.124 Cl
ATOM     16  C   UNL     1       2.984  -0.824   2.562  0.00  0.00    +0.130 C 
ENDBRANCH  14  16
ENDBRANCH   1  14
TORSDOF 4
