REMARK  Name = 
REMARK  7 active torsions:
REMARK  status: ('A' for Active; 'I' for Inactive)
REMARK    1  A    between atoms: O_1  and  C_2
REMARK    2  A    between atoms: C_2  and  CA_4
REMARK    3  A    between atoms: CA_4  and  N_5
REMARK    4  A    between atoms: C_6  and  C_8
REMARK    5  A    between atoms: C_14  and  C_15
REMARK    6  A    between atoms: C_18  and  O_19
REMARK    7  A    between atoms: O_19  and  C_20
REMARK                            x       y       z     vdW  Elec       q    Type
REMARK                         _______ _______ _______ _____ _____    ______ ____
ROOT
ATOM      1  CA  UNL     1       3.016   1.092   0.609  0.00  0.00    +0.119 C 
ATOM      2  C   UNL     1       4.357   1.282   0.580  0.00  0.00    +0.038 C 
ENDROOT
BRANCH   2   3
ATOM      3  C   UNL     1       5.045   2.469   1.103  0.00  0.00    -0.023 A 
ATOM      4  C   UNL     1       5.216   3.594   0.291  0.00  0.00    +0.011 A 
ATOM      5  C   UNL     1       5.759   4.770   0.820  0.00  0.00    +0.047 A 
ATOM      6  C   UNL     1       6.177   4.813   2.154  0.00  0.00    +0.129 A 
ATOM      7  C   UNL     1       6.012   3.686   2.962  0.00  0.00    +0.047 A 
ATOM      8  C   UNL     1       5.451   2.517   2.440  0.00  0.00    +0.011 A 
BRANCH   6   9
ATOM      9  O   UNL     1       6.697   5.926   2.782  0.00  0.00    -0.455 OA
BRANCH   9  10
ATOM     10  C   UNL     1       7.453   6.826   2.064  0.00  0.00    +0.142 A 
ATOM     11  C   UNL     1       7.344   8.192   2.360  0.00  0.00    +0.060 A 
ATOM     12 BR   UNL     1       6.259   8.819   3.786  0.00  0.00    -0.046 Br
ATOM     13  C   UNL     1       8.062   9.134   1.616  0.00  0.00    +0.019 A 
ATOM     14  C   UNL     1       8.918   8.710   0.598  0.00  0.00    +0.001 A 
ATOM     15  C   UNL     1       9.092   7.349   0.355  0.00  0.00    +0.004 A 
ATOM     16  C   UNL     1       8.378   6.411   1.099  0.00  0.00    +0.047 A 
ENDBRANCH   9  10
ENDBRANCH   6   9
ENDBRANCH   2   3
BRANCH   1  17
ATOM     17  N   UNL     1       2.202   2.071   1.164  0.00  0.00    -0.276 N 
ATOM     18  H   UNL     1       2.702   2.896   1.474  0.00  0.00    +0.155 HD
ATOM     19  C   UNL     1       0.838   2.103   1.334  0.00  0.00    +0.248 C 
ATOM     20  O   UNL     1       0.077   1.224   0.944  0.00  0.00    -0.270 OA
BRANCH  19  21
ATOM     21  C   UNL     1       0.275   3.342   1.952  0.00  0.00    +0.037 A 
ATOM     22  C   UNL     1       1.001   4.150   2.838  0.00  0.00    +0.013 A 
ATOM     23  C   UNL     1       0.437   5.328   3.333  0.00  0.00    +0.001 A 
ATOM     24  C   UNL     1      -0.854   5.699   2.957  0.00  0.00    +0.000 A 
ATOM     25  C   UNL     1      -1.594   4.883   2.104  0.00  0.00    +0.001 A 
ATOM     26  C   UNL     1      -1.035   3.705   1.607  0.00  0.00    +0.013 A 
ENDBRANCH  19  21
ENDBRANCH   1  17
BRANCH   1  27
ATOM     27  C   UNL     1       2.583  -0.211  -0.016  0.00  0.00    +0.351 C 
ATOM     28  OXT UNL     1       3.360  -1.144  -0.188  0.00  0.00    -0.244 OA
BRANCH  27  29
ATOM     29  O   UNL     1       1.333  -0.268  -0.505  0.00  0.00    -0.476 OA
ATOM     30  H   UNL     1       0.719   0.385  -0.098  0.00  0.00    +0.295 HD
ENDBRANCH  27  29
ENDBRANCH   1  27
TORSDOF 7
