REMARK  Name = 
REMARK  1 active torsions:
REMARK  status: ('A' for Active; 'I' for Inactive)
REMARK    1  A    between atoms: N_1  and  C_2
REMARK                            x       y       z     vdW  Elec       q    Type
REMARK                         _______ _______ _______ _____ _____    ______ ____
ROOT
ATOM      1  C   UNL     1       2.483   0.001   0.172  0.00  0.00    +0.135 A 
ATOM      2  N   UNL     1       3.200  -1.160   0.119  0.00  0.00    -0.292 N 
ATOM      3  H   UNL     1       2.732  -2.047   0.227  0.00  0.00    +0.172 HD
ATOM      4  C   UNL     1       4.568  -1.242  -0.018  0.00  0.00    +0.347 A 
ATOM      5  O   UNL     1       5.095  -2.351  -0.045  0.00  0.00    -0.245 OA
ATOM      6  N   UNL     1       5.286  -0.075  -0.121  0.00  0.00    -0.199 NA
ATOM      7  C   UNL     1       4.626   1.035  -0.070  0.00  0.00    +0.158 A 
ATOM      8  C   UNL     1       3.172   1.145   0.077  0.00  0.00    +0.179 A 
ATOM      9  F   UNL     1       2.625   2.372   0.096  0.00  0.00    -0.200 F 
ENDROOT
BRANCH   1  10
ATOM     10  N   UNL     1       1.117  -0.059   0.312  0.00  0.00    -0.342 N 
ATOM     11  H   UNL     1       0.698  -0.857  -0.156  0.00  0.00    +0.144 HD
ATOM     12  H   UNL     1       0.650   0.815   0.076  0.00  0.00    +0.144 HD
ENDBRANCH   1  10
TORSDOF 1
