REMARK  Name = 
REMARK  8 active torsions:
REMARK  status: ('A' for Active; 'I' for Inactive)
REMARK    1  A    between atoms: C_1  and  C_2
REMARK    2  A    between atoms: C_2  and  O_4
REMARK    3  A    between atoms: C_2  and  C_5
REMARK    4  A    between atoms: C_5  and  C_6
REMARK    5  A    between atoms: C_6  and  C_7
REMARK    6  A    between atoms: C_6  and  O_8
REMARK    7  A    between atoms: C_6  and  C_9
REMARK    8  A    between atoms: C_9  and  O_10
REMARK                            x       y       z     vdW  Elec       q    Type
REMARK                         _______ _______ _______ _____ _____    ______ ____
ROOT
ATOM      1  C   UNL     1       4.579   0.638   1.328  0.00  0.00    +0.089 C 
ATOM      2  C   UNL     1       5.200  -0.767   1.264  0.00  0.00    +0.044 C 
ENDROOT
BRANCH   1   3
ATOM      3  O   UNL     1       5.053   1.392   0.195  0.00  0.00    -0.386 OA
ATOM      4  H   UNL     1       4.805   0.895  -0.609  0.00  0.00    +0.210 HD
ENDBRANCH   1   3
BRANCH   1   5
ATOM      5  C   UNL     1       3.036   0.527   1.254  0.00  0.00    +0.067 C 
BRANCH   5   7
ATOM      6  C   UNL     1       0.758   1.613   1.143  0.00  0.00    +0.037 C 
ATOM      7  C   UNL     1       2.263   1.850   1.194  0.00  0.00    +0.114 C 
BRANCH   7   8
ATOM      8  O   UNL     1       2.621   2.578   0.022  0.00  0.00    -0.392 OA
ATOM      9  H   UNL     1       3.592   2.683   0.048  0.00  0.00    +0.210 HD
ENDBRANCH   7   8
ENDBRANCH   5   7
ENDBRANCH   1   5
BRANCH   1  10
ATOM     10  C   UNL     1       5.089   1.342   2.603  0.00  0.00    +0.190 C 
BRANCH  10  11
ATOM     11  O   UNL     1       4.776   2.730   2.596  0.00  0.00    -0.392 OA
ATOM     12  H   UNL     1       5.123   3.069   1.748  0.00  0.00    +0.210 HD
ENDBRANCH  10  11
ENDBRANCH   1  10
TORSDOF 6
