REMARK  Name = 
REMARK  12 active torsions:
REMARK  status: ('A' for Active; 'I' for Inactive)
REMARK    1  A    between atoms: C_1  and  N_2
REMARK    2  A    between atoms: N_2  and  C_6
REMARK    3  A    between atoms: C_3  and  C_4
REMARK    4  A    between atoms: C_9  and  C_10
REMARK    5  A    between atoms: N_12  and  C_13
REMARK    6  A    between atoms: C_15  and  O_16
REMARK    7  A    between atoms: C_18  and  C_20
REMARK    8  A    between atoms: C_20  and  O_21
REMARK    9  A    between atoms: C_22  and  O_24
REMARK   10  A    between atoms: C_25  and  O_27
REMARK   11  A    between atoms: C_30  and  N_31
REMARK   12  A    between atoms: C_32  and  C_33
REMARK                            x       y       z     vdW  Elec       q    Type
REMARK                         _______ _______ _______ _____ _____    ______ ____
ROOT
ATOM      1  C   UNL     1       3.060   1.266  -0.124  0.00  0.00    +0.065 A 
ATOM      2  C   UNL     1       4.350   1.243  -0.716  0.00  0.00    +0.058 A 
ATOM      3  I   UNL     1       4.796  -0.340  -2.146  0.00  0.00    -0.040 I 
ATOM      4  C   UNL     1       5.213   2.366  -0.678  0.00  0.00    +0.062 A 
ATOM      5  C   UNL     1       4.756   3.590  -0.132  0.00  0.00    +0.049 A 
ATOM      6  I   UNL     1       6.201   5.194   0.022  0.00  0.00    -0.041 I 
ATOM      7  C   UNL     1       3.441   3.712   0.355  0.00  0.00    +0.066 A 
ATOM      8  C   UNL     1       2.588   2.549   0.322  0.00  0.00    +0.049 A 
ATOM      9  I   UNL     1       0.494   2.833   0.823  0.00  0.00    -0.041 I 
ENDROOT
BRANCH   1  11
ATOM     10  C   UNL     1       1.028  -0.152  -0.612  0.00  0.00    +0.138 C 
ATOM     11  N   UNL     1       2.320   0.020   0.044  0.00  0.00    -0.273 N 
ATOM     12  C   UNL     1       2.801  -1.133   0.688  0.00  0.00    +0.216 C 
ATOM     13  O   UNL     1       2.159  -2.192   0.704  0.00  0.00    -0.276 OA
ATOM     14  C   UNL     1       4.115  -1.115   1.430  0.00  0.00    +0.109 C 
ENDBRANCH   1  11
BRANCH   4  15
ATOM     15  N   UNL     1       6.512   2.339  -1.258  0.00  0.00    -0.284 N 
ATOM     16  H   UNL     1       6.829   3.207  -1.683  0.00  0.00    +0.155 HD
ATOM     17  C   UNL     1       7.611   1.613  -0.875  0.00  0.00    +0.214 C 
ATOM     18  O   UNL     1       8.680   1.856  -1.433  0.00  0.00    -0.276 OA
ATOM     19  C   UNL     1       7.531   0.596   0.226  0.00  0.00    +0.109 C 
ENDBRANCH   4  15
BRANCH   7  20
ATOM     20  C   UNL     1       3.008   4.963   1.083  0.00  0.00    +0.247 C 
ATOM     21  N   UNL     1       3.210   6.215   0.503  0.00  0.00    -0.301 N 
ATOM     22  H   UNL     1       3.473   6.252  -0.479  0.00  0.00    +0.150 HD
ATOM     23  O   UNL     1       2.493   4.845   2.190  0.00  0.00    -0.270 OA
BRANCH  21  24
ATOM     24  C   UNL     1       2.475   7.401   1.023  0.00  0.00    +0.160 C 
ATOM     25  C   UNL     1       1.204   7.589   0.177  0.00  0.00    +0.171 C 
ATOM     26  C   UNL     1       1.549   8.304  -1.145  0.00  0.00    +0.176 C 
ATOM     27  C   UNL     1       2.205   9.669  -0.890  0.00  0.00    +0.178 C 
ATOM     28  O   UNL     1       3.424   9.436  -0.156  0.00  0.00    -0.341 OA
ATOM     29  C   UNL     1       3.251   8.760   1.090  0.00  0.00    +0.270 C 
BRANCH  25  30
ATOM     30  O   UNL     1       0.236   8.327   0.922  0.00  0.00    -0.387 OA
ATOM     31  H   UNL     1      -0.626   7.890   0.793  0.00  0.00    +0.210 HD
ENDBRANCH  25  30
BRANCH  26  32
ATOM     32  O   UNL     1       2.480   7.483  -1.887  0.00  0.00    -0.387 OA
ATOM     33  H   UNL     1       3.315   7.992  -1.950  0.00  0.00    +0.210 HD
ENDBRANCH  26  32
BRANCH  29  34
ATOM     34  O   UNL     1       4.534   8.619   1.679  0.00  0.00    -0.365 OA
ATOM     35  H   UNL     1       4.975   7.902   1.197  0.00  0.00    +0.213 HD
ENDBRANCH  29  34
BRANCH  27  36
ATOM     36  C   UNL     1       1.272  10.727  -0.273  0.00  0.00    +0.190 C 
BRANCH  36  37
ATOM     37  O   UNL     1       1.883  12.016  -0.315  0.00  0.00    -0.392 OA
ATOM     38  H   UNL     1       2.652  11.982   0.282  0.00  0.00    +0.210 HD
ENDBRANCH  36  37
ENDBRANCH  27  36
ENDBRANCH  21  24
ENDBRANCH   7  20
TORSDOF 9
