REMARK  Name = 
REMARK  4 active torsions:
REMARK  status: ('A' for Active; 'I' for Inactive)
REMARK    1  A    between atoms: C_1  and  C_2
REMARK    2  A    between atoms: C_2  and  C_3
REMARK    3  A    between atoms: C_3  and  C_4
REMARK    4  A    between atoms: C_4  and  C_5
REMARK                            x       y       z     vdW  Elec       q    Type
REMARK                         _______ _______ _______ _____ _____    ______ ____
ROOT
ATOM      1  C   UNL     1       2.973   1.337   0.426  0.00  0.00    +0.007 C 
ENDROOT
BRANCH   1   3
ATOM      2  C   UNL     1       0.921  -0.075   0.058  0.00  0.00    +0.004 C 
ATOM      3  C   UNL     1       2.442  -0.048   0.063  0.00  0.00    -0.003 C 
ENDBRANCH   1   3
BRANCH   1   4
ATOM      4  C   UNL     1       4.498   1.366   0.433  0.00  0.00    +0.071 C 
BRANCH   4   5
ATOM      5  C   UNL     1       5.049   2.726   0.790  0.00  0.00    +0.223 C 
ATOM      6  O   UNL     1       4.367   3.711   1.050  0.00  0.00    -0.301 OA
ENDBRANCH   4   5
ENDBRANCH   1   4
TORSDOF 3
