REMARK  Name = 
REMARK  9 active torsions:
REMARK  status: ('A' for Active; 'I' for Inactive)
REMARK    1  A    between atoms: C_1  and  C_2
REMARK    2  A    between atoms: C_5  and  C_6
REMARK    3  A    between atoms: C_6  and  O_7
REMARK    4  A    between atoms: O_7  and  P_8
REMARK    5  A    between atoms: P_8  and  O_9
REMARK    6  A    between atoms: P_8  and  O_10
REMARK    7  A    between atoms: C_12  and  C_13
REMARK    8  A    between atoms: C_13  and  N_14
REMARK    9  A    between atoms: C_15  and  O_16
REMARK                            x       y       z     vdW  Elec       q    Type
REMARK                         _______ _______ _______ _____ _____    ______ ____
ROOT
ATOM      1  C   UNL     1       0.778   0.074   0.003  0.00  0.00    +0.069 C 
ATOM      2  C   UNL     1       2.275   0.009   0.041  0.00  0.00    +0.080 A 
ATOM      3  C   UNL     1       2.939  -1.220   0.003  0.00  0.00    +0.142 A 
ATOM      4  C   UNL     1       4.346  -1.275   0.071  0.00  0.00    +0.016 A 
ATOM      5  C   UNL     1       5.049  -0.043   0.120  0.00  0.00    +0.005 A 
ATOM      6  C   UNL     1       4.294   1.128   0.156  0.00  0.00    +0.117 A 
ATOM      7  N   UNL     1       2.941   1.183   0.118  0.00  0.00    -0.256 NA
ENDROOT
BRANCH   3   8
ATOM      8  O   UNL     1       2.183  -2.363  -0.079  0.00  0.00    -0.505 OA
ATOM      9  H   UNL     1       2.804  -3.115   0.065  0.00  0.00    +0.292 HD
ENDBRANCH   3   8
BRANCH   4  10
ATOM     10  C   UNL     1       5.097  -2.588   0.004  0.00  0.00    +0.117 C 
BRANCH  10  11
ATOM     11  N   UNL     1       4.341  -3.703   0.603  0.00  0.00    -0.326 NA
ATOM     12  H   UNL     1       4.893  -4.555   0.474  0.00  0.00    +0.119 HD
ATOM     13  H   UNL     1       4.325  -3.557   1.616  0.00  0.00    +0.119 HD
ENDBRANCH  10  11
ENDBRANCH   4  10
BRANCH   5  14
ATOM     14  C   UNL     1       6.552   0.064   0.150  0.00  0.00    +0.209 C 
BRANCH  14  15
ATOM     15  O   UNL     1       7.084  -0.512  -1.034  0.00  0.00    -0.282 OA
BRANCH  15  16
ATOM     16  P   UNL     1       8.800  -0.379  -1.203  0.00  0.00    +0.473 P 
ATOM     17  O   UNL     1      10.337  -0.259  -1.354  0.00  0.00    -0.228 OA
BRANCH  16  18
ATOM     18  O   UNL     1       8.602  -1.264  -2.566  0.00  0.00    -0.303 OA
ATOM     19  H   UNL     1       8.363  -0.709  -3.330  0.00  0.00    +0.222 HD
ENDBRANCH  16  18
BRANCH  16  20
ATOM     20  O   UNL     1       8.924  -1.619  -0.146  0.00  0.00    -0.303 OA
ATOM     21  H   UNL     1       9.831  -1.966  -0.269  0.00  0.00    +0.222 HD
ENDBRANCH  16  20
ENDBRANCH  15  16
ENDBRANCH  14  15
ENDBRANCH   5  14
TORSDOF 8
