REMARK  Name = 
REMARK  11 active torsions:
REMARK  status: ('A' for Active; 'I' for Inactive)
REMARK    1  A    between atoms: O_1  and  C_2
REMARK    2  A    between atoms: C_2  and  C_3
REMARK    3  A    between atoms: C_6  and  O_8
REMARK    4  A    between atoms: O_8  and  C_9
REMARK    5  A    between atoms: C_11  and  O_13
REMARK    6  A    between atoms: C_14  and  O_16
REMARK    7  A    between atoms: C_22  and  C_24
REMARK    8  A    between atoms: C_24  and  O_25
REMARK    9  A    between atoms: C_26  and  O_28
REMARK   10  A    between atoms: C_29  and  O_31
REMARK   11  A    between atoms: C_32  and  O_34
REMARK                            x       y       z     vdW  Elec       q    Type
REMARK                         _______ _______ _______ _____ _____    ______ ____
ROOT
ATOM      1  O   UNL     1       5.566  -2.676   4.562  0.00  0.00    -0.341 OA
ENDROOT
BRANCH   1   2
ATOM      2  C   UNL     1       5.010  -2.703   3.251  0.00  0.00    +0.178 C 
ATOM      3  C   UNL     1       6.049  -3.446   2.377  0.00  0.00    +0.145 C 
ATOM      4  N   UNL     1       7.240  -2.611   2.254  0.00  0.00    -0.324 N 
ATOM      5  C   UNL     1       7.202  -1.235   2.270  0.00  0.00    +0.141 A 
ATOM      6  N   UNL     1       8.423  -0.751   2.229  0.00  0.00    -0.238 NA
ATOM      7  C   UNL     1       9.262  -1.831   2.158  0.00  0.00    +0.130 A 
ATOM      8  C   UNL     1       5.917  -0.456   2.328  0.00  0.00    +0.211 C 
ATOM      9  C   UNL     1       8.540  -3.003   2.142  0.00  0.00    +0.107 A 
ATOM     10  C   UNL     1       4.679  -1.346   2.596  0.00  0.00    +0.181 C 
BRANCH   8  11
ATOM     11  O   UNL     1       5.999   0.574   3.316  0.00  0.00    -0.381 OA
ATOM     12  H   UNL     1       6.177   0.158   4.174  0.00  0.00    +0.210 HD
ENDBRANCH   8  11
BRANCH  10  13
ATOM     13  O   UNL     1       3.979  -1.648   1.366  0.00  0.00    -0.386 OA
ATOM     14  H   UNL     1       4.503  -1.349   0.603  0.00  0.00    +0.210 HD
ENDBRANCH  10  13
BRANCH   3  15
ATOM     15  C   UNL     1       6.324  -4.855   2.931  0.00  0.00    +0.183 C 
BRANCH  15  16
ATOM     16  O   UNL     1       5.112  -5.557   3.217  0.00  0.00    -0.393 OA
ATOM     17  H   UNL     1       4.791  -5.951   2.386  0.00  0.00    +0.209 HD
ENDBRANCH  15  16
ENDBRANCH   3  15
ENDBRANCH   1   2
BRANCH   1  22
ATOM     18  C   UNL     1       5.887  -3.719   7.155  0.00  0.00    +0.178 C 
ATOM     19  C   UNL     1       4.544  -4.326   7.577  0.00  0.00    +0.177 C 
ATOM     20  C   UNL     1       3.543  -4.167   6.416  0.00  0.00    +0.179 C 
ATOM     21  C   UNL     1       3.462  -2.704   5.976  0.00  0.00    +0.201 C 
ATOM     22  C   UNL     1       4.865  -2.133   5.666  0.00  0.00    +0.282 C 
ATOM     23  O   UNL     1       5.714  -2.326   6.816  0.00  0.00    -0.341 OA
BRANCH  19  24
ATOM     24  O   UNL     1       4.723  -5.699   7.930  0.00  0.00    -0.386 OA
ATOM     25  H   UNL     1       4.137  -6.238   7.366  0.00  0.00    +0.210 HD
ENDBRANCH  19  24
BRANCH  20  26
ATOM     26  O   UNL     1       2.246  -4.636   6.814  0.00  0.00    -0.386 OA
ATOM     27  H   UNL     1       1.576  -4.098   6.347  0.00  0.00    +0.210 HD
ENDBRANCH  20  26
BRANCH  21  28
ATOM     28  O   UNL     1       2.520  -2.553   4.906  0.00  0.00    -0.384 OA
ATOM     29  H   UNL     1       2.485  -3.383   4.396  0.00  0.00    +0.210 HD
ENDBRANCH  21  28
BRANCH  18  30
ATOM     30  C   UNL     1       6.955  -3.877   8.255  0.00  0.00    +0.190 C 
BRANCH  30  31
ATOM     31  O   UNL     1       8.244  -3.433   7.819  0.00  0.00    -0.392 OA
ATOM     32  H   UNL     1       8.305  -3.571   6.858  0.00  0.00    +0.210 HD
ENDBRANCH  30  31
ENDBRANCH  18  30
ENDBRANCH   1  22
TORSDOF 11
