REMARK  Name = 
REMARK  11 active torsions:
REMARK  status: ('A' for Active; 'I' for Inactive)
REMARK    1  A    between atoms: C_2  and  C_3
REMARK    2  A    between atoms: C_2  and  C_6
REMARK    3  A    between atoms: C_2  and  C_25
REMARK    4  A    between atoms: C_3  and  O_4
REMARK    5  A    between atoms: N_8  and  C_9
REMARK    6  A    between atoms: C_9  and  O_10
REMARK    7  A    between atoms: O_10  and  C_11
REMARK    8  A    between atoms: C_15  and  C_16
REMARK    9  A    between atoms: C_16  and  O_17
REMARK   10  A    between atoms: C_19  and  C_20
REMARK   11  A    between atoms: C_28  and  O_29
REMARK                            x       y       z     vdW  Elec       q    Type
REMARK                         _______ _______ _______ _____ _____    ______ ____
ROOT
ATOM      1  C   UNL     1       2.595  -1.114   0.999  0.00  0.00    +0.234 C 
ATOM      2  N   UNL     1       2.223  -0.872   2.299  0.00  0.00    -0.276 N 
ATOM      3  H   UNL     1       1.545  -0.149   2.511  0.00  0.00    +0.152 HD
ATOM      4  O   UNL     1       3.371  -2.024   0.702  0.00  0.00    -0.274 OA
ENDROOT
BRANCH   2   5
ATOM      5  C   UNL     1       2.819  -1.652   3.424  0.00  0.00    +0.258 C 
ATOM      6  C   UNL     1       2.009  -1.497   4.775  0.00  0.00    +0.273 C 
ATOM      7  N   UNL     1       1.537  -2.852   4.604  0.00  0.00    -0.230 N 
ATOM      8  C   UNL     1       0.433  -3.303   5.273  0.00  0.00    +0.124 C 
ATOM      9  C   UNL     1      -0.292  -2.388   5.978  0.00  0.00    -0.019 C 
ATOM     10  C   UNL     1       0.054  -0.899   5.956  0.00  0.00    +0.195 C 
ATOM     11  C   UNL     1      -1.520  -2.635   6.822  0.00  0.00    +0.043 C 
ATOM     12  O   UNL     1       0.928  -0.560   4.877  0.00  0.00    -0.349 OA
ATOM     13  C   UNL     1       2.271  -3.173   3.518  0.00  0.00    +0.277 C 
ATOM     14  O   UNL     1       2.267  -4.210   2.896  0.00  0.00    -0.270 OA
BRANCH   8  15
ATOM     15  C   UNL     1       0.048  -4.763   5.248  0.00  0.00    +0.351 C 
ATOM     16  O   UNL     1      -0.598  -5.302   6.135  0.00  0.00    -0.244 OA
BRANCH  15  17
ATOM     17  O   UNL     1       0.467  -5.481   4.190  0.00  0.00    -0.476 OA
ATOM     18  H   UNL     1       1.045  -5.038   3.529  0.00  0.00    +0.295 HD
ENDBRANCH  15  17
ENDBRANCH   8  15
BRANCH   5  19
ATOM     19  O   UNL     1       4.259  -1.454   3.503  0.00  0.00    -0.348 OA
ATOM     20  C   UNL     1       5.012  -2.157   4.475  0.00  0.00    +0.197 C 
ENDBRANCH   5  19
ENDBRANCH   2   5
BRANCH   1  21
ATOM     21  C   UNL     1       2.008  -0.235  -0.094  0.00  0.00    +0.213 C 
BRANCH  21  22
ATOM     22  C   UNL     1       1.799   1.224   0.296  0.00  0.00    -0.025 A 
ATOM     23  C   UNL     1       2.896   2.104   0.272  0.00  0.00    +0.008 A 
ATOM     24  C   UNL     1       2.733   3.453   0.591  0.00  0.00    +0.046 A 
ATOM     25  C   UNL     1       1.477   3.932   0.939  0.00  0.00    +0.117 A 
ATOM     26  C   UNL     1       0.383   3.078   1.000  0.00  0.00    +0.046 A 
ATOM     27  C   UNL     1       0.544   1.726   0.685  0.00  0.00    +0.008 A 
BRANCH  25  28
ATOM     28  O   UNL     1       1.358   5.262   1.210  0.00  0.00    -0.507 OA
ATOM     29  H   UNL     1       0.417   5.479   1.311  0.00  0.00    +0.292 HD
ENDBRANCH  25  28
ENDBRANCH  21  22
BRANCH  21  30
ATOM     30  C   UNL     1       0.782  -0.879  -0.704  0.00  0.00    +0.321 C 
ATOM     31  O   UNL     1      -0.029  -1.545  -0.077  0.00  0.00    -0.250 OA
BRANCH  30  32
ATOM     32  O   UNL     1       0.587  -0.568  -2.010  0.00  0.00    -0.480 OA
ATOM     33  H   UNL     1       1.272   0.009  -2.401  0.00  0.00    +0.295 HD
ENDBRANCH  30  32
ENDBRANCH  21  30
ENDBRANCH   1  21
TORSDOF 9
