REMARK  Name = 
REMARK  9 active torsions:
REMARK  status: ('A' for Active; 'I' for Inactive)
REMARK    1  A    between atoms: C_1  and  C_2
REMARK    2  A    between atoms: C_2  and  C_4
REMARK    3  A    between atoms: C_2  and  N_32
REMARK    4  A    between atoms: C_4  and  O_5
REMARK    5  A    between atoms: O_5  and  C_6
REMARK    6  A    between atoms: C_9  and  C_12
REMARK    7  A    between atoms: C_18  and  O_19
REMARK    8  A    between atoms: C_23  and  C_25
REMARK    9  A    between atoms: C_28  and  O_29
REMARK                            x       y       z     vdW  Elec       q    Type
REMARK                         _______ _______ _______ _____ _____    ______ ____
ROOT
ATOM      1  C   UNL     1       4.247  -2.024   7.615  0.00  0.00    +0.221 C 
ATOM      2  C   UNL     1       3.514  -2.752   8.792  0.00  0.00    +0.126 C 
ATOM      3  S   UNL     1       4.385  -2.284  10.349  0.00  0.00    -0.109 S 
ATOM      4  C   UNL     1       4.493  -0.532  10.053  0.00  0.00    +0.054 A 
ATOM      5  C   UNL     1       4.250   0.058   8.804  0.00  0.00    +0.135 A 
ATOM      6  C   UNL     1       4.277   1.449   8.672  0.00  0.00    +0.050 A 
ATOM      7  C   UNL     1       4.579   2.257   9.766  0.00  0.00    +0.049 A 
ATOM      8  C   UNL     1       4.852   1.661  10.993  0.00  0.00    +0.118 A 
ATOM      9  C   UNL     1       4.807   0.281  11.144  0.00  0.00    +0.063 A 
ATOM     10  O   UNL     1       3.966  -0.606   7.636  0.00  0.00    -0.482 OA
ENDROOT
BRANCH   1  14
ATOM     11  C   UNL     1       8.514  -2.690   7.043  0.00  0.00    +0.121 A 
ATOM     12  C   UNL     1       7.909  -1.554   6.510  0.00  0.00    +0.046 A 
ATOM     13  C   UNL     1       6.533  -1.350   6.677  0.00  0.00    +0.011 A 
ATOM     14  C   UNL     1       5.740  -2.269   7.395  0.00  0.00    -0.006 A 
ATOM     15  C   UNL     1       6.352  -3.429   7.869  0.00  0.00    +0.011 A 
ATOM     16  C   UNL     1       7.719  -3.623   7.715  0.00  0.00    +0.046 A 
BRANCH  11  17
ATOM     17  O   UNL     1       9.873  -2.809   6.869  0.00  0.00    -0.490 OA
BRANCH  17  18
ATOM     18  C   UNL     1      10.416  -3.956   7.533  0.00  0.00    +0.247 C 
BRANCH  18  20
ATOM     19  C   UNL     1      12.298  -4.223   5.911  0.00  0.00    +0.027 C 
ATOM     20  C   UNL     1      11.944  -4.089   7.400  0.00  0.00    +0.091 C 
BRANCH  20  21
ATOM     21  N   UNL     1      12.427  -5.263   8.171  0.00  0.00    -0.296 NA
ATOM     22  C   UNL     1      11.992  -5.283   9.577  0.00  0.00    +0.085 C 
ATOM     23  C   UNL     1      13.115  -5.928  10.374  0.00  0.00    +0.017 C 
ATOM     24  C   UNL     1      14.130  -6.357   9.335  0.00  0.00    +0.017 C 
ATOM     25  C   UNL     1      13.884  -5.403   8.180  0.00  0.00    +0.085 C 
ENDBRANCH  20  21
ENDBRANCH  18  20
ENDBRANCH  17  18
ENDBRANCH  11  17
ENDBRANCH   1  14
BRANCH   2  26
ATOM     26  C   UNL     1       1.996  -2.496   8.869  0.00  0.00    -0.030 A 
ATOM     27  C   UNL     1       1.289  -2.597  10.084  0.00  0.00    +0.008 A 
ATOM     28  C   UNL     1      -0.069  -2.281  10.160  0.00  0.00    +0.046 A 
ATOM     29  C   UNL     1      -0.750  -1.897   9.017  0.00  0.00    +0.117 A 
ATOM     30  C   UNL     1      -0.105  -1.864   7.789  0.00  0.00    +0.046 A 
ATOM     31  C   UNL     1       1.254  -2.174   7.717  0.00  0.00    +0.008 A 
BRANCH  29  32
ATOM     32  O   UNL     1      -2.061  -1.550   9.136  0.00  0.00    -0.507 OA
ATOM     33  H   UNL     1      -2.359  -1.186   8.287  0.00  0.00    +0.292 HD
ENDBRANCH  29  32
ENDBRANCH   2  26
BRANCH   8  34
ATOM     34  O   UNL     1       5.159   2.407  12.091  0.00  0.00    -0.507 OA
ATOM     35  H   UNL     1       5.147   3.344  11.846  0.00  0.00    +0.292 HD
ENDBRANCH   8  34
TORSDOF 8
