REMARK  Name = 
REMARK  3 active torsions:
REMARK  status: ('A' for Active; 'I' for Inactive)
REMARK    1  A    between atoms: N_10  and  C_11
REMARK    2  A    between atoms: P_18  and  O_19
REMARK    3  A    between atoms: C_24  and  O_26
REMARK                            x       y       z     vdW  Elec       q    Type
REMARK                         _______ _______ _______ _____ _____    ______ ____
ROOT
ATOM      1  C   UNL     1       6.354  -3.011  -0.178  0.00  0.00    +0.253 C 
ATOM      2  C   UNL     1       6.800  -2.819  -1.643  0.00  0.00    +0.196 C 
ATOM      3  C   UNL     1       8.138  -2.109  -1.464  0.00  0.00    +0.194 C 
ATOM      4  C   UNL     1       7.883  -1.235  -0.246  0.00  0.00    +0.179 C 
ATOM      5  C   UNL     1       7.185   0.088  -0.597  0.00  0.00    +0.206 C 
ATOM      6  O   UNL     1       7.870   0.753  -1.649  0.00  0.00    -0.284 OA
ATOM      7  P   UNL     1       7.987  -0.051  -3.032  0.00  0.00    +0.475 P 
ATOM      8  O   UNL     1       6.751  -0.209  -3.851  0.00  0.00    -0.227 OA
ATOM      9  O   UNL     1       8.659  -1.440  -2.592  0.00  0.00    -0.278 OA
ATOM     10  O   UNL     1       7.092  -2.051   0.636  0.00  0.00    -0.346 OA
ENDROOT
BRANCH   1  18
ATOM     11  N   UNL     1       6.394  -8.994   0.667  0.00  0.00    -0.341 N 
ATOM     12  H   UNL     1       6.715  -8.871   1.621  0.00  0.00    +0.144 HD
ATOM     13  H   UNL     1       5.737  -9.742   0.485  0.00  0.00    +0.144 HD
ATOM     14  C   UNL     1       5.998  -7.808   0.063  0.00  0.00    +0.147 A 
ATOM     15  C   UNL     1       6.436  -6.538   0.478  0.00  0.00    +0.147 A 
ATOM     16  N   UNL     1       7.269  -6.106   1.493  0.00  0.00    -0.231 NA
ATOM     17  C   UNL     1       7.303  -4.792   1.371  0.00  0.00    +0.203 A 
ATOM     18  N   UNL     1       6.556  -4.360   0.312  0.00  0.00    -0.286 N 
ATOM     19  C   UNL     1       5.959  -5.460  -0.245  0.00  0.00    +0.167 A 
ATOM     20  N   UNL     1       5.120  -5.485  -1.292  0.00  0.00    -0.216 NA
ATOM     21  C   UNL     1       4.756  -6.746  -1.589  0.00  0.00    +0.225 A 
ATOM     22  N   UNL     1       5.139  -7.888  -0.981  0.00  0.00    -0.219 NA
ENDBRANCH   1  18
BRANCH   2  23
ATOM     23  O   UNL     1       5.813  -2.013  -2.283  0.00  0.00    -0.385 OA
ATOM     24  H   UNL     1       6.066  -1.836  -3.215  0.00  0.00    +0.210 HD
ENDBRANCH   2  23
BRANCH   7  25
ATOM     25  O   UNL     1       9.191   0.686  -3.775  0.00  0.00    -0.302 OA
ATOM     26  H   UNL     1       9.999   0.730  -3.235  0.00  0.00    +0.222 HD
ENDBRANCH   7  25
TORSDOF 3
