REMARK  Name = 
REMARK  5 active torsions:
REMARK  status: ('A' for Active; 'I' for Inactive)
REMARK    1  A    between atoms: N_1  and  CA_2
REMARK    2  A    between atoms: CA_2  and  CB_4
REMARK    3  A    between atoms: CA_2  and  C_11
REMARK    4  A    between atoms: CB_4  and  CG_5
REMARK    5  A    between atoms: C_11  and  O_12
REMARK                            x       y       z     vdW  Elec       q    Type
REMARK                         _______ _______ _______ _____ _____    ______ ____
ROOT
ATOM      1  CA  PHE A   1       4.147  -0.545   2.020  0.00  0.00    +0.161 C 
ENDROOT
BRANCH   1   2
ATOM      2  N   PHE A   1       4.611  -1.737   1.236  0.00  0.00    -0.318 NA
ATOM      3  H1  PHE A   1       3.803  -2.352   1.085  0.00  0.00    +0.119 HD
ATOM      4  H2  PHE A   1       4.861  -1.416   0.296  0.00  0.00    +0.119 HD
ENDBRANCH   1   2
BRANCH   1   5
ATOM      5  C   PHE A   1       4.095  -0.975   3.506  0.00  0.00    +0.322 C 
ATOM      6  OXT PHE A   1       3.495  -0.414   4.406  0.00  0.00    -0.249 OA
BRANCH   5   7
ATOM      7  O   PHE A   1       4.873  -2.075   3.714  0.00  0.00    -0.480 OA
ATOM      8  H   PHE A   1       5.220  -2.325   2.821  0.00  0.00    +0.295 HD
ENDBRANCH   5   7
ENDBRANCH   1   5
BRANCH   1   9
ATOM      9  CB  PHE A   1       2.810  -0.037   1.456  0.00  0.00    +0.033 C 
BRANCH   9  10
ATOM     10  CG  PHE A   1       2.273   1.275   2.093  0.00  0.00    -0.009 C 
ATOM     11  CD2 PHE A   1       0.872   1.634   1.556  0.00  0.00    +0.003 C 
ATOM     12  CE2 PHE A   1       0.886   2.208   0.141  0.00  0.00    +0.000 C 
ATOM     13  CZ  PHE A   1       1.858   3.375   0.004  0.00  0.00    +0.000 C 
ATOM     14  CE1 PHE A   1       3.254   3.019   0.506  0.00  0.00    +0.000 C 
ATOM     15  CD1 PHE A   1       3.214   2.480   1.934  0.00  0.00    +0.003 C 
ENDBRANCH   9  10
ENDBRANCH   1   9
TORSDOF 5
