REMARK  Name = 
REMARK  8 active torsions:
REMARK  status: ('A' for Active; 'I' for Inactive)
REMARK    1  A    between atoms: O_1  and  C_2
REMARK    2  A    between atoms: C_2  and  C_3
REMARK    3  A    between atoms: C_3  and  O_5
REMARK    4  A    between atoms: C_3  and  C_6
REMARK    5  A    between atoms: C_6  and  O_7
REMARK    6  A    between atoms: O_7  and  P_8
REMARK    7  A    between atoms: P_8  and  O_9
REMARK    8  A    between atoms: P_8  and  O_10
REMARK                            x       y       z     vdW  Elec       q    Type
REMARK                         _______ _______ _______ _____ _____    ______ ____
ROOT
ATOM      1  C   UNL     1       4.333   1.481  -0.036  0.00  0.00    +0.206 C 
ENDROOT
BRANCH   1   2
ATOM      2  C   UNL     1       2.809   1.553  -0.076  0.00  0.00    +0.166 C 
BRANCH   2   3
ATOM      3  O   UNL     1       2.263   0.237  -0.221  0.00  0.00    -0.387 OA
ATOM      4  H   UNL     1       1.312   0.385  -0.400  0.00  0.00    +0.210 HD
ENDBRANCH   2   3
BRANCH   2   5
ATOM      5  C   UNL     1       2.308   2.418  -1.237  0.00  0.00    +0.189 C 
BRANCH   5   6
ATOM      6  O   UNL     1       0.878   2.411  -1.220  0.00  0.00    -0.392 OA
ATOM      7  H   UNL     1       0.585   2.961  -1.968  0.00  0.00    +0.210 HD
ENDBRANCH   5   6
ENDBRANCH   2   5
ENDBRANCH   1   2
BRANCH   1   8
ATOM      8  O   UNL     1       4.866   2.771   0.222  0.00  0.00    -0.284 OA
BRANCH   8   9
ATOM      9  P   UNL     1       6.385   3.020  -0.198  0.00  0.00    +0.472 P 
ATOM     10  O   UNL     1       7.427   2.145   0.403  0.00  0.00    -0.228 OA
BRANCH   9  11
ATOM     11  O   UNL     1       6.626   4.558   0.163  0.00  0.00    -0.303 OA
ATOM     12  H   UNL     1       7.112   4.627   1.007  0.00  0.00    +0.222 HD
ENDBRANCH   9  11
BRANCH   9  13
ATOM     13  O   UNL     1       6.371   3.116  -1.789  0.00  0.00    -0.303 OA
ATOM     14  H   UNL     1       6.007   3.978  -2.062  0.00  0.00    +0.222 HD
ENDBRANCH   9  13
ENDBRANCH   8   9
ENDBRANCH   1   8
TORSDOF 8
