REMARK  Name = 
REMARK  3 active torsions:
REMARK  status: ('A' for Active; 'I' for Inactive)
REMARK    1  A    between atoms: O_1  and  C_2
REMARK    2  A    between atoms: C_6  and  O_7
REMARK    3  A    between atoms: C_12  and  O_13
REMARK                            x       y       z     vdW  Elec       q    Type
REMARK                         _______ _______ _______ _____ _____    ______ ____
ROOT
ATOM      1  C   UNL     1       2.475   0.022   0.055  0.00  0.00    +0.121 A 
ATOM      2  C   UNL     1       3.142  -1.198   0.054  0.00  0.00    +0.091 A 
ATOM      3  C   UNL     1       4.535  -1.220   0.053  0.00  0.00    +0.132 A 
ATOM      4  C   UNL     1       5.264  -0.023   0.054  0.00  0.00    +0.074 A 
ATOM      5  C   UNL     1       6.735  -0.040   0.054  0.00  0.00    +0.194 C 
ATOM      6  C   UNL     1       7.457   1.243   0.055  0.00  0.00    +0.101 C 
ATOM      7  C   UNL     1       6.818   2.417   0.056  0.00  0.00    +0.168 C 
ATOM      8  C   UNL     1       5.323   2.473   0.056  0.00  0.00    +0.228 C 
ATOM      9  O   UNL     1       4.715   3.537   0.057  0.00  0.00    -0.283 OA
ATOM     10  O   UNL     1       7.352  -1.100   0.053  0.00  0.00    -0.287 OA
ATOM     11  C   UNL     1       4.583   1.195   0.055  0.00  0.00    +0.043 A 
ATOM     12  C   UNL     1       3.180   1.220   0.056  0.00  0.00    +0.058 A 
ENDROOT
BRANCH   1  13
ATOM     13  O   UNL     1       1.112   0.001   0.055  0.00  0.00    -0.507 OA
ATOM     14  H   UNL     1       0.775   0.913   0.056  0.00  0.00    +0.292 HD
ENDBRANCH   1  13
BRANCH   3  15
ATOM     15  O   UNL     1       5.125  -2.456   0.052  0.00  0.00    -0.506 OA
ATOM     16  H   UNL     1       6.101  -2.341   0.052  0.00  0.00    +0.292 HD
ENDBRANCH   3  15
BRANCH   7  17
ATOM     17  O   UNL     1       7.502   3.619   0.058  0.00  0.00    -0.503 OA
ATOM     18  H   UNL     1       8.460   3.457   0.058  0.00  0.00    +0.292 HD
ENDBRANCH   7  17
TORSDOF 3
