REMARK  Name = 
REMARK  5 active torsions:
REMARK  status: ('A' for Active; 'I' for Inactive)
REMARK    1  A    between atoms: N_1  and  CA_2
REMARK    2  A    between atoms: CA_2  and  C_4
REMARK    3  A    between atoms: CA_2  and  C_8
REMARK    4  A    between atoms: C_4  and  SE_5
REMARK    5  A    between atoms: C_8  and  O_9
REMARK                            x       y       z     vdW  Elec       q    Type
REMARK                         _______ _______ _______ _____ _____    ______ ____
ROOT
ATOM      1  CA  UNL     1       2.464  -0.104   0.050  0.00  0.00    +0.000 C 
ENDROOT
BRANCH   1   2
ATOM      2  N   UNL     1       1.006   0.026  -0.058  0.00  0.00    +0.000 NA
ATOM      3  H1  UNL     1       0.530  -0.881   0.151  0.00  0.00    +0.000 HD
ATOM      4  H2  UNL     1       0.666   0.750   0.614  0.00  0.00    +0.000 HD
ENDBRANCH   1   2
BRANCH   1   5
ATOM      5  C   UNL     1       2.999  -1.083  -0.977  0.00  0.00    +0.000 C 
ATOM      6  OXT UNL     1       2.236  -1.692  -1.711  0.00  0.00    +0.000 OA
BRANCH   5   7
ATOM      7  O   UNL     1       4.328  -1.282  -1.109  0.00  0.00    +0.000 OA
ATOM      8  H   UNL     1       4.975  -0.806  -0.571  0.00  0.00    +0.000 HD
ENDBRANCH   5   7
ENDBRANCH   1   5
BRANCH   1   9
ATOM      9  C   UNL     1       2.885  -0.493   1.482  0.00  0.00    +0.000 C 
BRANCH   9  10
ATOM     10 SE   UNL     1       2.242  -2.270   2.018  0.00  0.00    +0.000 Se
ATOM     11  O   UNL     1       0.890  -1.630   2.706  0.00  0.00    +0.000 OA
ATOM     12  O   UNL     1       3.042  -2.160   3.453  0.00  0.00    +0.000 OA
ENDBRANCH   9  10
ENDBRANCH   1   9
TORSDOF 5
