REMARK  Name = 
REMARK  3 active torsions:
REMARK  status: ('A' for Active; 'I' for Inactive)
REMARK    1  A    between atoms: C_2  and  C_6
REMARK    2  A    between atoms: C_11  and  C_13
REMARK    3  A    between atoms: C_18  and  O_19
REMARK                            x       y       z     vdW  Elec       q    Type
REMARK                         _______ _______ _______ _____ _____    ______ ____
ROOT
ATOM      1  C   UNL     1       3.102   1.228  -0.747  0.00  0.00    +0.061 A 
ATOM      2  C   UNL     1       3.987   1.006  -1.817  0.00  0.00    +0.018 A 
ATOM      3  C   UNL     1       4.545   2.063  -2.549  0.00  0.00    +0.027 A 
ATOM      4  C   UNL     1       4.155   3.359  -2.205  0.00  0.00    +0.047 A 
ATOM      5  N   UNL     1       4.460   4.570  -2.782  0.00  0.00    -0.354 N 
ATOM      6  H   UNL     1       5.046   4.708  -3.597  0.00  0.00    +0.166 HD
ATOM      7  C   UNL     1       3.757   5.599  -2.189  0.00  0.00    +0.051 A 
ATOM      8  C   UNL     1       3.104   5.032  -1.106  0.00  0.00    +0.036 A 
ATOM      9  C   UNL     1       3.303   3.627  -1.141  0.00  0.00    +0.001 A 
ATOM     10  C   UNL     1       2.799   2.555  -0.384  0.00  0.00    +0.025 A 
ENDROOT
BRANCH   1  14
ATOM     11  N   UNL     1       3.099  -1.025   0.142  0.00  0.00    -0.250 N 
ATOM     12  H   UNL     1       4.069  -1.115  -0.148  0.00  0.00    +0.288 HD
ATOM     13  H   UNL     1       2.675  -1.826   0.589  0.00  0.00    +0.288 HD
ATOM     14  C   UNL     1       2.452   0.104  -0.047  0.00  0.00    +0.266 C 
ATOM     15  N   UNL     1       1.207   0.230   0.368  0.00  0.00    -0.288 N 
ATOM     16  H   UNL     1       0.714  -0.506   0.851  0.00  0.00    +0.301 HD
ATOM     17  H   UNL     1       0.693   1.083   0.183  0.00  0.00    +0.301 HD
ENDBRANCH   1  14
BRANCH   7  18
ATOM     18  C   UNL     1       3.744   6.974  -2.722  0.00  0.00    +0.040 A 
ATOM     19  C   UNL     1       4.454   7.360  -3.876  0.00  0.00    +0.126 A 
ATOM     20  C   UNL     1       4.371   8.663  -4.378  0.00  0.00    +0.046 A 
ATOM     21  C   UNL     1       3.571   9.607  -3.736  0.00  0.00    +0.004 A 
ATOM     22  C   UNL     1       2.861   9.250  -2.595  0.00  0.00    +0.001 A 
ATOM     23  C   UNL     1       2.950   7.949  -2.093  0.00  0.00    +0.013 A 
BRANCH  19  24
ATOM     24  O   UNL     1       5.236   6.447  -4.545  0.00  0.00    -0.506 OA
ATOM     25  H   UNL     1       5.630   6.897  -5.314  0.00  0.00    +0.292 HD
ENDBRANCH  19  24
ENDBRANCH   7  18
TORSDOF 3
