REMARK  Name = 
REMARK  12 active torsions:
REMARK  status: ('A' for Active; 'I' for Inactive)
REMARK    1  A    between atoms: C_1  and  C_2
REMARK    2  A    between atoms: C_3  and  C_4
REMARK    3  A    between atoms: C_4  and  C_5
REMARK    4  A    between atoms: C_12  and  O_13
REMARK    5  A    between atoms: O_13  and  C_14
REMARK    6  A    between atoms: C_14  and  C_15
REMARK    7  A    between atoms: C_15  and  C_16
REMARK    8  A    between atoms: C_16  and  P_17
REMARK    9  A    between atoms: P_17  and  O_18
REMARK   10  A    between atoms: P_17  and  O_19
REMARK   11  A    between atoms: N_22  and  C_23
REMARK   12  A    between atoms: C_23  and  C_24
REMARK                            x       y       z     vdW  Elec       q    Type
REMARK                         _______ _______ _______ _____ _____    ______ ____
ROOT
ATOM      1  C   UNL     1       1.029  -0.349   0.217  0.00  0.00    +0.064 C 
ATOM      2  C   UNL     1       2.493  -0.077   0.098  0.00  0.00    +0.021 A 
ATOM      3  N   UNL     1       3.410  -1.107  -0.024  0.00  0.00    -0.339 N 
ATOM      4  C   UNL     1       4.684  -0.588  -0.174  0.00  0.00    +0.050 A 
ATOM      5  C   UNL     1       5.913  -1.217  -0.421  0.00  0.00    +0.030 A 
ATOM      6  C   UNL     1       7.074  -0.435  -0.419  0.00  0.00    +0.048 A 
ATOM      7  C   UNL     1       7.017   0.933  -0.172  0.00  0.00    +0.121 A 
ATOM      8  C   UNL     1       5.782   1.547   0.069  0.00  0.00    +0.056 A 
ATOM      9  C   UNL     1       4.591   0.788   0.031  0.00  0.00    +0.007 A 
ATOM     10  C   UNL     1       3.199   1.124   0.124  0.00  0.00    -0.010 A 
ENDROOT
BRANCH   3  11
ATOM     11  C   UNL     1       3.095  -2.540  -0.018  0.00  0.00    +0.157 C 
BRANCH  11  12
ATOM     12  C   UNL     1       3.227  -3.241   1.323  0.00  0.00    -0.028 A 
ATOM     13  C   UNL     1       2.878  -4.602   1.388  0.00  0.00    +0.005 A 
ATOM     14  C   UNL     1       3.096  -5.353   2.547  0.00  0.00    +0.000 A 
ATOM     15  C   UNL     1       3.654  -4.748   3.670  0.00  0.00    +0.000 A 
ATOM     16  C   UNL     1       3.962  -3.390   3.641  0.00  0.00    +0.000 A 
ATOM     17  C   UNL     1       3.745  -2.639   2.479  0.00  0.00    +0.005 A 
ENDBRANCH  11  12
ENDBRANCH   3  11
BRANCH   7  18
ATOM     18  O   UNL     1       8.097   1.777  -0.142  0.00  0.00    -0.492 OA
BRANCH  18  19
ATOM     19  C   UNL     1       9.288   1.290  -0.761  0.00  0.00    +0.229 C 
BRANCH  19  20
ATOM     20  C   UNL     1      10.210   2.469  -1.038  0.00  0.00    +0.053 C 
BRANCH  20  21
ATOM     21  C   UNL     1      10.718   3.135   0.236  0.00  0.00    +0.130 C 
BRANCH  21  22
ATOM     22  P   UNL     1      11.832   4.493  -0.102  0.00  0.00    +0.328 P 
ATOM     23  O   UNL     1      13.032   4.125  -0.906  0.00  0.00    -0.259 OA
BRANCH  22  24
ATOM     24  O   UNL     1      12.137   5.128   1.338  0.00  0.00    -0.324 OA
ATOM     25  H   UNL     1      11.490   4.928   2.038  0.00  0.00    +0.220 HD
ENDBRANCH  22  24
BRANCH  22  26
ATOM     26  O   UNL     1      10.892   5.605  -0.767  0.00  0.00    -0.324 OA
ATOM     27  H   UNL     1      10.481   5.335  -1.609  0.00  0.00    +0.220 HD
ENDBRANCH  22  26
ENDBRANCH  21  22
ENDBRANCH  20  21
ENDBRANCH  19  20
ENDBRANCH  18  19
ENDBRANCH   7  18
BRANCH  10  28
ATOM     28  C   UNL     1       2.636   2.513   0.303  0.00  0.00    +0.133 C 
BRANCH  28  29
ATOM     29  C   UNL     1       2.944   3.558  -0.766  0.00  0.00    +0.215 C 
ATOM     30  O   UNL     1       2.587   4.733  -0.632  0.00  0.00    -0.276 OA
ATOM     31  N   UNL     1       3.597   3.204  -1.900  0.00  0.00    -0.329 N 
ATOM     32  H   UNL     1       3.838   3.945  -2.541  0.00  0.00    +0.145 HD
ATOM     33  H   UNL     1       4.068   2.315  -2.001  0.00  0.00    +0.145 HD
ENDBRANCH  28  29
ENDBRANCH  10  28
TORSDOF 11
