REMARK  Name = 
REMARK  9 active torsions:
REMARK  status: ('A' for Active; 'I' for Inactive)
REMARK    1  A    between atoms: O_1  and  C_2
REMARK    2  A    between atoms: C_2  and  C_4
REMARK    3  A    between atoms: C_4  and  C_6
REMARK    4  A    between atoms: C_4  and  N_16
REMARK    5  A    between atoms: C_6  and  C_7
REMARK    6  A    between atoms: N_16  and  S_17
REMARK    7  A    between atoms: S_17  and  C_20
REMARK    8  A    between atoms: C_23  and  N_26
REMARK    9  A    between atoms: C_29  and  C_32
REMARK                            x       y       z     vdW  Elec       q    Type
REMARK                         _______ _______ _______ _____ _____    ______ ____
ROOT
ATOM      1  S   UNL     1       5.607   2.260  -1.058  0.00  0.00    +0.059 S 
ATOM      2  O   UNL     1       5.043   1.336  -0.103  0.00  0.00    -0.153 OA
ATOM      3  O   UNL     1       5.393   3.685  -0.947  0.00  0.00    -0.153 OA
ENDROOT
BRANCH   1   4
ATOM      4  C   UNL     1       7.349   1.990  -1.073  0.00  0.00    +0.105 A 
ATOM      5  C   UNL     1       7.839   0.686  -1.074  0.00  0.00    +0.030 A 
ATOM      6  C   UNL     1       9.221   0.472  -1.107  0.00  0.00    +0.025 A 
ATOM      7  C   UNL     1      10.134   1.539  -1.133  0.00  0.00    +0.030 A 
ATOM      8  C   UNL     1       9.596   2.835  -1.038  0.00  0.00    +0.025 A 
ATOM      9  C   UNL     1       8.221   3.070  -1.019  0.00  0.00    +0.030 A 
BRANCH   7  10
ATOM     10  N   UNL     1      11.491   1.338  -1.289  0.00  0.00    -0.330 N 
ATOM     11  C   UNL     1      12.335   2.355  -1.924  0.00  0.00    +0.105 C 
ATOM     12  C   UNL     1      13.139   1.708  -3.053  0.00  0.00    +0.027 C 
ATOM     13  C   UNL     1      13.983   0.518  -2.547  0.00  0.00    +0.022 C 
ATOM     14  C   UNL     1      12.986  -0.486  -1.915  0.00  0.00    +0.027 C 
ATOM     15  C   UNL     1      12.189   0.158  -0.778  0.00  0.00    +0.105 C 
BRANCH  13  16
ATOM     16  C   UNL     1      15.169   0.904  -1.655  0.00  0.00    -0.044 A 
ATOM     17  C   UNL     1      15.805   2.151  -1.771  0.00  0.00    +0.004 A 
ATOM     18  C   UNL     1      16.884   2.502  -0.959  0.00  0.00    +0.000 A 
ATOM     19  C   UNL     1      17.384   1.600  -0.028  0.00  0.00    +0.000 A 
ATOM     20  C   UNL     1      16.799   0.336   0.081  0.00  0.00    +0.000 A 
ATOM     21  C   UNL     1      15.713  -0.009  -0.736  0.00  0.00    +0.004 A 
ENDBRANCH  13  16
ENDBRANCH   7  10
ENDBRANCH   1   4
BRANCH   1  22
ATOM     22  N   UNL     1       5.131   1.753  -2.567  0.00  0.00    -0.176 NA
ATOM     23  H   UNL     1       5.070   0.736  -2.701  0.00  0.00    +0.149 HD
BRANCH  22  24
ATOM     24  C   UNL     1       5.275   2.546  -3.811  0.00  0.00    +0.189 C 
BRANCH  24  25
ATOM     25  C   UNL     1       4.861   1.615  -4.971  0.00  0.00    +0.324 C 
ATOM     26  O   UNL     1       4.613   0.423  -4.817  0.00  0.00    -0.249 OA
BRANCH  25  27
ATOM     27  O   UNL     1       4.912   2.158  -6.210  0.00  0.00    -0.479 OA
ATOM     28  H   UNL     1       5.169   3.095  -6.266  0.00  0.00    +0.295 HD
ENDBRANCH  25  27
ENDBRANCH  24  25
BRANCH  24  29
ATOM     29  C   UNL     1       4.464   3.854  -3.808  0.00  0.00    +0.069 C 
BRANCH  29  30
ATOM     30  C   UNL     1       2.992   3.714  -3.548  0.00  0.00    -0.020 A 
ATOM     31  C   UNL     1       1.932   3.833  -4.503  0.00  0.00    +0.003 A 
ATOM     32  C   UNL     1       0.730   3.631  -3.824  0.00  0.00    +0.047 A 
ATOM     33  C   UNL     1      -0.518   3.678  -4.457  0.00  0.00    +0.026 A 
ATOM     34  C   UNL     1      -0.540   3.971  -5.822  0.00  0.00    +0.002 A 
ATOM     35  C   UNL     1       0.640   4.191  -6.527  0.00  0.00    +0.001 A 
ATOM     36  N   UNL     1       1.039   3.409  -2.505  0.00  0.00    -0.360 N 
ATOM     37  H   UNL     1       0.365   3.235  -1.774  0.00  0.00    +0.165 HD
ATOM     38  C   UNL     1       1.880   4.114  -5.883  0.00  0.00    +0.010 A 
ATOM     39  C   UNL     1       2.390   3.510  -2.320  0.00  0.00    +0.087 A 
ENDBRANCH  29  30
ENDBRANCH  24  29
ENDBRANCH  22  24
ENDBRANCH   1  22
TORSDOF 9
