REMARK  Name = 
REMARK  5 active torsions:
REMARK  status: ('A' for Active; 'I' for Inactive)
REMARK    1  A    between atoms: O_1  and  C_2
REMARK    2  A    between atoms: C_2  and  C_4
REMARK    3  A    between atoms: N_6  and  C_7
REMARK    4  A    between atoms: C_8  and  C_13
REMARK    5  A    between atoms: C_13  and  O_14
REMARK                            x       y       z     vdW  Elec       q    Type
REMARK                         _______ _______ _______ _____ _____    ______ ____
ROOT
ATOM      1  C   UNL     1       5.236  -2.096  -1.707  0.00  0.00    +0.048 A 
ATOM      2  C   UNL     1       5.021  -3.444  -1.396  0.00  0.00    +0.024 A 
ATOM      3  C   UNL     1       5.562  -4.455  -2.193  0.00  0.00    +0.002 A 
ATOM      4  C   UNL     1       6.335  -4.131  -3.305  0.00  0.00    +0.001 A 
ATOM      5  C   UNL     1       6.563  -2.794  -3.628  0.00  0.00    +0.017 A 
ATOM      6  C   UNL     1       6.018  -1.774  -2.830  0.00  0.00    +0.080 A 
ENDROOT
BRANCH   1   8
ATOM      7  C   UNL     1       4.517  -1.168   0.453  0.00  0.00    +0.325 C 
ATOM      8  N   UNL     1       4.640  -1.089  -0.917  0.00  0.00    -0.275 N 
ATOM      9  H   UNL     1       4.472  -0.173  -1.347  0.00  0.00    +0.155 HD
ATOM     10  O   UNL     1       5.018  -1.997   1.208  0.00  0.00    -0.263 OA
BRANCH   7  11
ATOM     11  C   UNL     1       3.727  -0.029   1.110  0.00  0.00    +0.393 C 
ATOM     12  O   UNL     1       3.066   0.777   0.484  0.00  0.00    -0.240 OA
BRANCH  11  13
ATOM     13  O   UNL     1       3.864  -0.077   2.451  0.00  0.00    -0.474 OA
ATOM     14  H   UNL     1       4.440  -0.845   2.680  0.00  0.00    +0.296 HD
ENDBRANCH  11  13
ENDBRANCH   7  11
ENDBRANCH   1   8
BRANCH   6  15
ATOM     15  C   UNL     1       6.317  -0.356  -3.143  0.00  0.00    +0.339 C 
ATOM     16  O   UNL     1       5.495   0.532  -2.993  0.00  0.00    -0.245 OA
BRANCH  15  17
ATOM     17  O   UNL     1       7.588  -0.134  -3.524  0.00  0.00    -0.477 OA
ATOM     18  H   UNL     1       8.192  -0.893  -3.408  0.00  0.00    +0.295 HD
ENDBRANCH  15  17
ENDBRANCH   6  15
TORSDOF 5
