REMARK  Name = 
REMARK  14 active torsions:
REMARK  status: ('A' for Active; 'I' for Inactive)
REMARK    1  A    between atoms: N_10  and  C_11
REMARK    2  A    between atoms: C_14  and  C_16
REMARK    3  A    between atoms: C_16  and  O_17
REMARK    4  A    between atoms: O_17  and  P_18
REMARK    5  A    between atoms: P_18  and  O_19
REMARK    6  A    between atoms: P_18  and  O_21
REMARK    7  A    between atoms: O_21  and  P_22
REMARK    8  A    between atoms: P_22  and  O_23
REMARK    9  A    between atoms: P_22  and  O_24
REMARK   10  A    between atoms: C_26  and  O_28
REMARK   11  A    between atoms: C_29  and  O_31
REMARK   12  A    between atoms: O_31  and  P_32
REMARK   13  A    between atoms: P_32  and  O_33
REMARK   14  A    between atoms: P_32  and  O_34
REMARK                            x       y       z     vdW  Elec       q    Type
REMARK                         _______ _______ _______ _____ _____    ______ ____
ROOT
ATOM      1  C   UNL     1      14.019  -2.606   2.087  0.00  0.00    +0.254 C 
ATOM      2  C   UNL     1      13.884  -1.300   2.891  0.00  0.00    +0.211 C 
ATOM      3  C   UNL     1      12.377  -1.146   3.118  0.00  0.00    +0.179 C 
ATOM      4  C   UNL     1      11.758  -2.306   2.349  0.00  0.00    +0.178 C 
ATOM      5  O   UNL     1      12.769  -3.317   2.281  0.00  0.00    -0.346 OA
ENDROOT
BRANCH   1  13
ATOM      6  N   UNL     1      16.257  -1.845  -3.486  0.00  0.00    -0.341 N 
ATOM      7  H   UNL     1      15.506  -2.411  -3.860  0.00  0.00    +0.144 HD
ATOM      8  H   UNL     1      16.608  -1.084  -4.052  0.00  0.00    +0.144 HD
ATOM      9  C   UNL     1      16.067  -1.470  -2.164  0.00  0.00    +0.147 A 
ATOM     10  C   UNL     1      15.207  -2.150  -1.284  0.00  0.00    +0.147 A 
ATOM     11  N   UNL     1      14.375  -3.235  -1.458  0.00  0.00    -0.231 NA
ATOM     12  C   UNL     1      13.862  -3.452  -0.266  0.00  0.00    +0.203 A 
ATOM     13  N   UNL     1      14.286  -2.529   0.662  0.00  0.00    -0.285 N 
ATOM     14  C   UNL     1      15.162  -1.692   0.025  0.00  0.00    +0.167 A 
ATOM     15  N   UNL     1      15.850  -0.663   0.543  0.00  0.00    -0.216 NA
ATOM     16  C   UNL     1      16.600  -0.058  -0.400  0.00  0.00    +0.225 A 
ATOM     17  N   UNL     1      16.746  -0.397  -1.699  0.00  0.00    -0.219 NA
ENDBRANCH   1  13
BRANCH   3  18
ATOM     18  O   UNL     1      11.910   0.091   2.590  0.00  0.00    -0.386 OA
ATOM     19  H   UNL     1      10.956   0.154   2.792  0.00  0.00    +0.210 HD
ENDBRANCH   3  18
BRANCH   2  20
ATOM     20  O   UNL     1      14.594  -1.535   4.115  0.00  0.00    -0.276 OA
BRANCH  20  21
ATOM     21  P   UNL     1      14.554  -0.464   5.300  0.00  0.00    +0.473 P 
ATOM     22  O   UNL     1      14.082   0.900   4.975  0.00  0.00    -0.228 OA
BRANCH  21  23
ATOM     23  O   UNL     1      16.040  -0.594   5.866  0.00  0.00    -0.303 OA
ATOM     24  H   UNL     1      16.597  -1.126   5.271  0.00  0.00    +0.222 HD
ENDBRANCH  21  23
BRANCH  21  25
ATOM     25  O   UNL     1      13.718  -1.255   6.407  0.00  0.00    -0.303 OA
ATOM     26  H   UNL     1      13.579  -0.693   7.191  0.00  0.00    +0.222 HD
ENDBRANCH  21  25
ENDBRANCH  20  21
ENDBRANCH   2  20
BRANCH   4  27
ATOM     27  C   UNL     1      10.499  -2.852   3.001  0.00  0.00    +0.206 C 
BRANCH  27  28
ATOM     28  O   UNL     1       9.518  -1.826   3.100  0.00  0.00    -0.284 OA
BRANCH  28  29
ATOM     29  P   UNL     1       8.099  -2.326   3.760  0.00  0.00    +0.483 P 
ATOM     30  O   UNL     1       7.135  -1.141   3.775  0.00  0.00    -0.227 OA
BRANCH  29  31
ATOM     31  O   UNL     1       7.518  -2.707   2.175  0.00  0.00    -0.302 OA
ATOM     32  H   UNL     1       7.060  -1.882   1.905  0.00  0.00    +0.222 HD
ENDBRANCH  29  31
BRANCH  29  33
ATOM     33  O   UNL     1       8.679  -1.946   5.344  0.00  0.00    -0.186 OA
BRANCH  33  34
ATOM     34  P   UNL     1       7.649  -2.677   6.527  0.00  0.00    +0.481 P 
ATOM     35  O   UNL     1       6.728  -3.331   7.585  0.00  0.00    -0.227 OA
BRANCH  34  36
ATOM     36  O   UNL     1       8.974  -2.673   7.490  0.00  0.00    -0.302 OA
ATOM     37  H   UNL     1       9.652  -3.279   7.148  0.00  0.00    +0.222 HD
ENDBRANCH  34  36
BRANCH  34  38
ATOM     38  O   UNL     1       7.976  -4.134   5.852  0.00  0.00    -0.302 OA
ATOM     39  H   UNL     1       7.553  -4.776   6.471  0.00  0.00    +0.222 HD
ENDBRANCH  34  38
ENDBRANCH  33  34
ENDBRANCH  29  33
ENDBRANCH  28  29
ENDBRANCH  27  28
ENDBRANCH   4  27
TORSDOF 14
