REMARK  Name = 
REMARK  1 active torsions:
REMARK  status: ('A' for Active; 'I' for Inactive)
REMARK    1  A    between atoms: O_1  and  C_2
REMARK                            x       y       z     vdW  Elec       q    Type
REMARK                         _______ _______ _______ _____ _____    ______ ____
ROOT
ATOM      1  C   UNL     1       2.502   0.006   0.090  0.00  0.00    +0.245 A 
ATOM      2  C   UNL     1       3.181   1.283   0.088  0.00  0.00    +0.168 A 
ATOM      3  N   UNL     1       2.732   2.577   0.086  0.00  0.00    -0.215 NA
ATOM      4  C   UNL     1       3.834   3.306   0.086  0.00  0.00    +0.172 A 
ATOM      5  N   UNL     1       4.974   2.533   0.088  0.00  0.00    -0.320 N 
ATOM      6  H   UNL     1       5.921   2.880   0.088  0.00  0.00    +0.169 HD
ATOM      7  I   UNL     1       3.847   5.350   0.086  0.00  0.00    -0.001 I 
ATOM      8  C   UNL     1       4.548   1.248   0.089  0.00  0.00    +0.144 A 
ATOM      9  N   UNL     1       5.234   0.099   0.092  0.00  0.00    -0.309 N 
ATOM     10  H   UNL     1       6.240  -0.010   0.094  0.00  0.00    +0.170 HD
ATOM     11  C   UNL     1       4.515  -1.074   0.095  0.00  0.00    +0.225 A 
ATOM     12  N   UNL     1       5.101  -2.220   0.100  0.00  0.00    -0.266 NA
ATOM     13  H   UNL     1       4.336  -2.906   0.102  0.00  0.00    +0.190 HD
ATOM     14  N   UNL     1       3.134  -1.130   0.093  0.00  0.00    -0.176 NA
ENDROOT
BRANCH   1  15
ATOM     15  O   UNL     1       1.158   0.013   0.088  0.00  0.00    -0.491 OA
ATOM     16  H   UNL     1       0.860  -0.909   0.090  0.00  0.00    +0.294 HD
ENDBRANCH   1  15
TORSDOF 1
