REMARK  Name = 
REMARK  15 active torsions:
REMARK  status: ('A' for Active; 'I' for Inactive)
REMARK    1  A    between atoms: C_1  and  C_2
REMARK    2  A    between atoms: C_2  and  C_3
REMARK    3  A    between atoms: C_4  and  O_38
REMARK    4  A    between atoms: C_8  and  C_9
REMARK    5  A    between atoms: C_14  and  C_15
REMARK    6  A    between atoms: C_25  and  C_26
REMARK    7  A    between atoms: C_25  and  C_35
REMARK    8  A    between atoms: C_29  and  C_30
REMARK    9  A    between atoms: C_33  and  C_34
REMARK   10  A    between atoms: C_35  and  O_36
REMARK   11  A    between atoms: O_38  and  C_39
REMARK   12  A    between atoms: C_39  and  C_41
REMARK   13  A    between atoms: C_41  and  C_42
REMARK   14  A    between atoms: C_42  and  C_43
REMARK   15  A    between atoms: C_43  and  O_44
REMARK                            x       y       z     vdW  Elec       q    Type
REMARK                         _______ _______ _______ _____ _____    ______ ____
ROOT
ATOM      1  C   UNL     1       0.000   0.000  -0.000  0.00  0.00    +0.015 C 
ATOM      2  C   UNL     1      -0.000  -0.000  -0.000  0.00  0.00    +0.006 C 
ATOM      3  C   UNL     1      -0.000  -0.000  -0.000  0.00  0.00    +0.015 C 
ATOM      4  C   UNL     1      -0.000  -0.000  -0.000  0.00  0.00    +0.005 C 
ATOM      5  C   UNL     1      -0.000  -0.000  -0.000  0.00  0.00    +0.005 C 
ATOM      6  C   UNL     1      -0.000  -0.000  -0.000  0.00  0.00    +0.008 C 
ATOM      7  C   UNL     1      -0.000  -0.000  -0.000  0.00  0.00    -0.013 C 
ATOM      8  C   UNL     1      -0.000  -0.000  -0.000  0.00  0.00    +0.013 C 
ATOM      9  C   UNL     1      -0.000  -0.000  -0.000  0.00  0.00    -0.004 C 
ATOM     10  C   UNL     1      -0.000  -0.000  -0.000  0.00  0.00    +0.016 C 
ATOM     11  C   UNL     1      -0.000  -0.000  -0.000  0.00  0.00    -0.056 C 
ATOM     12  C   UNL     1      -0.000  -0.000  -0.000  0.00  0.00    +0.023 C 
ATOM     13  C   UNL     1      -0.000  -0.000  -0.000  0.00  0.00    -0.025 C 
ATOM     14  C   UNL     1      -0.000  -0.000  -0.000  0.00  0.00    +0.012 C 
ATOM     15  C   UNL     1      -0.000  -0.000  -0.000  0.00  0.00    +0.008 C 
ATOM     16  C   UNL     1      -0.000  -0.000  -0.000  0.00  0.00    +0.008 C 
ATOM     17  C   UNL     1      -0.000  -0.000  -0.000  0.00  0.00    +0.018 C 
ATOM     18  C   UNL     1      -0.000  -0.000  -0.000  0.00  0.00    +0.065 C 
ATOM     19  C   UNL     1      -0.000  -0.000  -0.000  0.00  0.00    +0.023 C 
ATOM     20  C   UNL     1      -0.000  -0.000  -0.000  0.00  0.00    +0.026 C 
ATOM     21  C   UNL     1      -0.000  -0.000  -0.000  0.00  0.00    +0.046 C 
ATOM     22  C   UNL     1      -0.000  -0.000  -0.000  0.00  0.00    +0.160 C 
ATOM     23  O   UNL     1      -0.000  -0.000  -0.000  0.00  0.00    -0.292 OA
ATOM     24  C   UNL     1      -0.000  -0.000  -0.000  0.00  0.00    +0.012 C 
ATOM     25  C   UNL     1      -0.000  -0.000  -0.000  0.00  0.00    +0.073 C 
ATOM     26  C   UNL     1      -0.000  -0.000  -0.000  0.00  0.00    -0.018 C 
ATOM     27  C   UNL     1      -0.000  -0.000  -0.000  0.00  0.00    +0.012 C 
ATOM     28  C   UNL     1      -0.000  -0.000  -0.000  0.00  0.00    +0.011 C 
ATOM     29  C   UNL     1      -0.000  -0.000  -0.000  0.00  0.00    +0.046 C 
ATOM     30  C   UNL     1      -0.000  -0.000  -0.000  0.00  0.00    +0.182 C 
ENDROOT
BRANCH  18  31
ATOM     31  C   UNL     1      -0.000  -0.000  -0.000  0.00  0.00    +0.311 C 
ATOM     32  O   UNL     1      -0.000  -0.000  -0.000  0.00  0.00    -0.250 OA
BRANCH  31  33
ATOM     33  O   UNL     1      -0.000  -0.000  -0.000  0.00  0.00    -0.480 OA
ATOM     34  H   UNL     1      -0.000  -0.000  -0.000  0.00  0.00    +0.295 HD
ENDBRANCH  31  33
ENDBRANCH  18  31
BRANCH  30  35
ATOM     35  O   UNL     1      -0.000  -0.000  -0.000  0.00  0.00    -0.461 OA
BRANCH  35  36
ATOM     36  C   UNL     1      -0.000  -0.000  -0.000  0.00  0.00    +0.308 C 
ATOM     37  O   UNL     1      -0.000  -0.000  -0.000  0.00  0.00    -0.251 OA
BRANCH  36  38
ATOM     38  C   UNL     1      -0.000  -0.000  -0.000  0.00  0.00    +0.132 C 
BRANCH  38  39
ATOM     39  C   UNL     1      -0.000  -0.000  -0.000  0.00  0.00    +0.131 C 
BRANCH  39  40
ATOM     40  C   UNL     1      -0.000  -0.000  -0.000  0.00  0.00    +0.305 C 
ATOM     41  O   UNL     1      -0.000  -0.000  -0.000  0.00  0.00    -0.251 OA
BRANCH  40  42
ATOM     42  O   UNL     1      -0.000  -0.000  -0.000  0.00  0.00    -0.481 OA
ATOM     43  H   UNL     1      -0.000  -0.000  -0.000  0.00  0.00    +0.295 HD
ENDBRANCH  40  42
ENDBRANCH  39  40
ENDBRANCH  38  39
ENDBRANCH  36  38
ENDBRANCH  35  36
ENDBRANCH  30  35
TORSDOF 8
