REMARK  Name = 
REMARK  5 active torsions:
REMARK  status: ('A' for Active; 'I' for Inactive)
REMARK    1  A    between atoms: C_1  and  C_2
REMARK    2  A    between atoms: C_2  and  N_4
REMARK    3  A    between atoms: C_2  and  C_15
REMARK    4  A    between atoms: C_5  and  C_7
REMARK    5  A    between atoms: C_13  and  O_14
REMARK                            x       y       z     vdW  Elec       q    Type
REMARK                         _______ _______ _______ _____ _____    ______ ____
ROOT
ATOM      1  N   UNL     1       3.079  -1.248   0.125  0.00  0.00    -0.305 N 
ATOM      2  H   UNL     1       4.036  -1.460  -0.146  0.00  0.00    +0.150 HD
ATOM      3  C   UNL     1       2.270  -2.296   0.485  0.00  0.00    +0.248 C 
ATOM      4  O   UNL     1       1.076  -2.168   0.744  0.00  0.00    -0.270 OA
ENDROOT
BRANCH   3   5
ATOM      5  C   UNL     1       2.917  -3.637   0.592  0.00  0.00    +0.081 A 
ATOM      6  C   UNL     1       4.125  -3.980  -0.038  0.00  0.00    +0.129 A 
ATOM      7  C   UNL     1       4.674  -5.258   0.121  0.00  0.00    +0.049 A 
ATOM      8  C   UNL     1       4.020  -6.196   0.920  0.00  0.00    +0.042 A 
ATOM      9  C   UNL     1       2.825  -5.856   1.543  0.00  0.00    +0.124 A 
ATOM     10  F   UNL     1       2.211  -6.758   2.318  0.00  0.00    -0.205 F 
ATOM     11  C   UNL     1       2.265  -4.596   1.381  0.00  0.00    +0.055 A 
BRANCH   6  12
ATOM     12  O   UNL     1       4.791  -3.075  -0.818  0.00  0.00    -0.506 OA
ATOM     13  H   UNL     1       5.469  -3.540  -1.340  0.00  0.00    +0.292 HD
ENDBRANCH   6  12
ENDBRANCH   3   5
BRANCH   1  15
ATOM     14  C   UNL     1       3.094   0.943   1.205  0.00  0.00    +0.033 C 
ATOM     15  C   UNL     1       2.611   0.118   0.009  0.00  0.00    +0.100 C 
BRANCH  15  16
ATOM     16  C   UNL     1       3.019   0.672  -1.346  0.00  0.00    -0.027 A 
ATOM     17  C   UNL     1       4.265   1.276  -1.579  0.00  0.00    +0.006 A 
ATOM     18  C   UNL     1       4.606   1.741  -2.852  0.00  0.00    +0.015 A 
ATOM     19  C   UNL     1       3.709   1.595  -3.907  0.00  0.00    +0.018 A 
ATOM     20 BR   UNL     1       4.175   2.220  -5.629  0.00  0.00    -0.050 Br
ATOM     21  C   UNL     1       2.476   0.983  -3.704  0.00  0.00    +0.015 A 
ATOM     22  C   UNL     1       2.136   0.519  -2.431  0.00  0.00    +0.006 A 
ENDBRANCH  15  16
ENDBRANCH   1  15
TORSDOF 4
