REMARK  Name = 
REMARK  25 active torsions:
REMARK  status: ('A' for Active; 'I' for Inactive)
REMARK    1  A    between atoms: N_1  and  CA_2
REMARK    2  A    between atoms: CA_2  and  C_4
REMARK    3  A    between atoms: CA_2  and  C_62
REMARK    4  A    between atoms: C_4  and  C_5
REMARK    5  A    between atoms: C_5  and  C_7
REMARK    6  A    between atoms: C_7  and  O_9
REMARK    7  A    between atoms: C_7  and  C_10
REMARK    8  A    between atoms: N_13  and  C_19
REMARK    9  A    between atoms: C_15  and  C_16
REMARK   10  A    between atoms: C_22  and  C_24
REMARK   11  A    between atoms: C_24  and  O_25
REMARK   12  A    between atoms: O_25  and  P_26
REMARK   13  A    between atoms: P_26  and  O_27
REMARK   14  A    between atoms: P_26  and  O_29
REMARK   15  A    between atoms: O_29  and  P_30
REMARK   16  A    between atoms: P_30  and  O_31
REMARK   17  A    between atoms: P_30  and  O_33
REMARK   18  A    between atoms: O_33  and  C_34
REMARK   19  A    between atoms: C_34  and  C_35
REMARK   20  A    between atoms: C_38  and  N_46
REMARK   21  A    between atoms: C_40  and  O_42
REMARK   22  A    between atoms: C_43  and  O_45
REMARK   23  A    between atoms: C_56  and  O_58
REMARK   24  A    between atoms: C_59  and  O_61
REMARK   25  A    between atoms: C_62  and  O_63
REMARK                            x       y       z     vdW  Elec       q    Type
REMARK                         _______ _______ _______ _____ _____    ______ ____
ROOT
ATOM      1  C   UNL     1       5.883  17.955   2.632  0.00  0.00    +0.439 C 
ATOM      2  C   UNL     1       4.582  17.866   3.438  0.00  0.00    +0.244 C 
ATOM      3  C   UNL     1       3.988  16.507   3.083  0.00  0.00    +0.183 C 
ATOM      4  C   UNL     1       5.008  15.842   2.164  0.00  0.00    +0.183 C 
ATOM      5  O   UNL     1       6.235  16.591   2.310  0.00  0.00    -0.309 OA
ENDROOT
BRANCH   1   9
ATOM      6  C   UNL     1       5.272  20.396  -0.868  0.00  0.00    +0.011 A 
ATOM      7  C   UNL     1       5.051  20.905   0.418  0.00  0.00    +0.106 A 
ATOM      8  C   UNL     1       5.300  20.100   1.537  0.00  0.00    +0.325 A 
ATOM      9  N   UNL     1       5.732  18.819   1.411  0.00  0.00    -0.173 N 
ATOM     10  C   UNL     1       6.059  18.341   0.191  0.00  0.00    +0.312 A 
ATOM     11  C   UNL     1       5.832  19.108  -0.946  0.00  0.00    +0.077 A 
BRANCH   7  12
ATOM     12  C   UNL     1       4.435  22.214   0.731  0.00  0.00    +0.248 C 
ATOM     13  O   UNL     1       3.716  22.291   1.719  0.00  0.00    -0.270 OA
ATOM     14  N   UNL     1       4.671  23.295  -0.051  0.00  0.00    -0.325 N 
ATOM     15  H   UNL     1       4.250  24.169   0.224  0.00  0.00    +0.145 HD
ATOM     16  H   UNL     1       5.442  23.415  -0.681  0.00  0.00    +0.145 HD
ENDBRANCH   7  12
BRANCH   6  17
ATOM     17  C   UNL     1       4.955  21.123  -2.171  0.00  0.00    +0.211 C 
BRANCH  17  18
ATOM     18  C   UNL     1       6.204  21.841  -2.727  0.00  0.00    +0.168 C 
ATOM     19  O   UNL     1       7.328  21.672  -2.241  0.00  0.00    -0.294 OA
BRANCH  18  20
ATOM     20  C   UNL     1       6.018  22.758  -3.929  0.00  0.00    +0.107 C 
BRANCH  20  21
ATOM     21  CA  UNL     1       6.888  24.023  -3.834  0.00  0.00    +0.168 C 
BRANCH  21  22
ATOM     22  N   UNL     1       8.351  23.749  -3.815  0.00  0.00    -0.318 NA
ATOM     23  H1  UNL     1       8.515  22.893  -3.260  0.00  0.00    +0.119 HD
ATOM     24  H2  UNL     1       8.652  23.492  -4.760  0.00  0.00    +0.119 HD
ENDBRANCH  21  22
BRANCH  21  25
ATOM     25  C   UNL     1       6.513  24.779  -2.554  0.00  0.00    +0.322 C 
ATOM     26  OXT UNL     1       5.368  24.958  -2.174  0.00  0.00    -0.249 OA
BRANCH  25  27
ATOM     27  O   UNL     1       7.597  25.109  -1.814  0.00  0.00    -0.480 OA
ATOM     28  H   UNL     1       8.391  24.829  -2.337  0.00  0.00    +0.295 HD
ENDBRANCH  25  27
ENDBRANCH  21  25
ENDBRANCH  20  21
ENDBRANCH  18  20
ENDBRANCH  17  18
BRANCH  17  29
ATOM     29  O   UNL     1       4.482  20.129  -3.078  0.00  0.00    -0.380 OA
ATOM     30  H   UNL     1       4.381  20.515  -3.965  0.00  0.00    +0.211 HD
ENDBRANCH  17  29
ENDBRANCH   6  17
ENDBRANCH   1   9
BRANCH   2  31
ATOM     31  O   UNL     1       4.858  17.983   4.841  0.00  0.00    -0.380 OA
ATOM     32  H   UNL     1       5.185  17.140   5.205  0.00  0.00    +0.210 HD
ENDBRANCH   2  31
BRANCH   3  33
ATOM     33  O   UNL     1       2.774  16.699   2.365  0.00  0.00    -0.386 OA
ATOM     34  H   UNL     1       2.237  15.886   2.435  0.00  0.00    +0.210 HD
ENDBRANCH   3  33
BRANCH   4  35
ATOM     35  C   UNL     1       5.156  14.343   2.483  0.00  0.00    +0.206 C 
BRANCH  35  36
ATOM     36  O   UNL     1       5.952  13.698   1.503  0.00  0.00    -0.284 OA
BRANCH  36  37
ATOM     37  P   UNL     1       6.155  12.051   1.618  0.00  0.00    +0.483 P 
ATOM     38  O   UNL     1       7.467  11.850   0.835  0.00  0.00    -0.227 OA
BRANCH  37  39
ATOM     39  O   UNL     1       7.112  12.277   3.041  0.00  0.00    -0.302 OA
ATOM     40  H   UNL     1       7.999  11.963   2.761  0.00  0.00    +0.222 HD
ENDBRANCH  37  39
BRANCH  37  41
ATOM     41  O   UNL     1       5.197  11.826   0.195  0.00  0.00    -0.186 OA
BRANCH  41  42
ATOM     42  P   UNL     1       4.845  10.266   0.786  0.00  0.00    +0.483 P 
ATOM     43  O   UNL     1       4.246  10.336   2.160  0.00  0.00    -0.227 OA
BRANCH  42  44
ATOM     44  O   UNL     1       6.357   9.688   0.830  0.00  0.00    -0.302 OA
ATOM     45  H   UNL     1       6.810   9.768  -0.040  0.00  0.00    +0.222 HD
ENDBRANCH  42  44
BRANCH  42  46
ATOM     46  O   UNL     1       4.241   9.027  -0.086  0.00  0.00    -0.284 OA
BRANCH  46  47
ATOM     47  C   UNL     1       4.803   7.781   0.468  0.00  0.00    +0.206 C 
BRANCH  47  48
ATOM     48  C   UNL     1       4.140   6.405   0.500  0.00  0.00    +0.178 C 
ATOM     49  C   UNL     1       2.944   6.203   1.416  0.00  0.00    +0.178 C 
ATOM     50  C   UNL     1       1.743   6.176   0.481  0.00  0.00    +0.195 C 
ATOM     51  C   UNL     1       2.351   6.324  -0.927  0.00  0.00    +0.253 C 
ATOM     52  O   UNL     1       3.750   6.029  -0.808  0.00  0.00    -0.346 OA
BRANCH  51  53
ATOM     53  N   UNL     1       1.849   5.468  -1.972  0.00  0.00    -0.286 N 
ATOM     54  C   UNL     1       0.592   4.952  -2.112  0.00  0.00    +0.167 A 
ATOM     55  N   UNL     1      -0.470   5.121  -1.306  0.00  0.00    -0.216 NA
ATOM     56  C   UNL     1      -1.518   4.394  -1.748  0.00  0.00    +0.225 A 
ATOM     57  N   UNL     1      -1.589   3.589  -2.833  0.00  0.00    -0.219 NA
ATOM     58  C   UNL     1      -0.500   3.481  -3.625  0.00  0.00    +0.147 A 
ATOM     59  N   UNL     1      -0.554   2.660  -4.741  0.00  0.00    -0.341 N 
ATOM     60  H   UNL     1       0.361   2.373  -5.074  0.00  0.00    +0.144 HD
ATOM     61  H   UNL     1      -1.262   1.942  -4.650  0.00  0.00    +0.144 HD
ATOM     62  C   UNL     1       0.658   4.184  -3.263  0.00  0.00    +0.147 A 
ATOM     63  N   UNL     1       1.902   4.260  -3.848  0.00  0.00    -0.231 NA
ATOM     64  C   UNL     1       2.590   5.057  -3.055  0.00  0.00    +0.203 A 
ENDBRANCH  51  53
BRANCH  50  65
ATOM     65  O   UNL     1       0.877   7.271   0.787  0.00  0.00    -0.385 OA
ATOM     66  H   UNL     1       0.001   7.036   0.417  0.00  0.00    +0.210 HD
ENDBRANCH  50  65
BRANCH  49  67
ATOM     67  O   UNL     1       3.061   4.927   2.080  0.00  0.00    -0.386 OA
ATOM     68  H   UNL     1       3.156   4.220   1.416  0.00  0.00    +0.210 HD
ENDBRANCH  49  67
ENDBRANCH  47  48
ENDBRANCH  46  47
ENDBRANCH  42  46
ENDBRANCH  41  42
ENDBRANCH  37  41
ENDBRANCH  36  37
ENDBRANCH  35  36
ENDBRANCH   4  35
TORSDOF 25
