REMARK  Name = 
REMARK  4 active torsions:
REMARK  status: ('A' for Active; 'I' for Inactive)
REMARK    1  A    between atoms: N1_6  and  C1*_9
REMARK    2  A    between atoms: C3*_12  and  O3*_14
REMARK    3  A    between atoms: C4*_15  and  C5*_17
REMARK    4  A    between atoms: C5*_17  and  O5*_18
REMARK                            x       y       z     vdW  Elec       q    Type
REMARK                         _______ _______ _______ _____ _____    ______ ____
ROOT
ATOM      1  N4    C A   1       1.094   0.487   0.419  0.00  0.00    -0.343 N 
ATOM      2  H41   C A   1       0.554  -0.201   0.929  0.00  0.00    +0.144 HD
ATOM      3  H42   C A   1       0.743   0.664  -0.518  0.00  0.00    +0.144 HD
ATOM      4  C4    C A   1       2.456   0.377   0.452  0.00  0.00    +0.123 A 
ATOM      5  C5    C A   1       3.114  -0.221   1.629  0.00  0.00    +0.061 A 
ATOM      6  C6    C A   1       4.438  -0.340   1.557  0.00  0.00    +0.096 A 
ATOM      7  N1    C A   1       5.136   0.105   0.454  0.00  0.00    -0.273 N 
ATOM      8  C2    C A   1       4.480   0.742  -0.605  0.00  0.00    +0.352 A 
ATOM      9  O2    C A   1       5.112   1.237  -1.536  0.00  0.00    -0.244 OA
ATOM     10  N3    C A   1       3.105   0.811  -0.582  0.00  0.00    -0.178 NA
ENDROOT
BRANCH   7  11
ATOM     11  C1*   C A   1       6.590   0.111   0.434  0.00  0.00    +0.226 C 
ATOM     12  O4*   C A   1       7.121  -1.103   1.008  0.00  0.00    -0.348 OA
ATOM     13  C4*   C A   1       8.350  -0.766   1.694  0.00  0.00    +0.175 C 
ATOM     14  C3*   C A   1       8.571   0.739   1.524  0.00  0.00    +0.150 C 
ATOM     15  C2*   C A   1       7.180   1.252   1.244  0.00  0.00    +0.088 C 
BRANCH  14  16
ATOM     16  O3*   C A   1       9.134   1.340   2.682  0.00  0.00    -0.389 OA
ATOM     17  H3*   C A   1       8.529   1.210   3.433  0.00  0.00    +0.210 HD
ENDBRANCH  14  16
BRANCH  13  18
ATOM     18  C5*   C A   1       9.506  -1.597   1.132  0.00  0.00    +0.190 C 
BRANCH  18  19
ATOM     19  O5*   C A   1       9.688  -1.348  -0.260  0.00  0.00    -0.392 OA
ATOM     20  H5*   C A   1       8.856  -1.602  -0.700  0.00  0.00    +0.210 HD
ENDBRANCH  18  19
ENDBRANCH  13  18
ENDBRANCH   7  11
TORSDOF 4
