REMARK  Name = 
REMARK  5 active torsions:
REMARK  status: ('A' for Active; 'I' for Inactive)
REMARK    1  A    between atoms: O_1  and  N_2
REMARK    2  A    between atoms: N_2  and  C_3
REMARK    3  A    between atoms: C_3  and  C_4
REMARK    4  A    between atoms: C_4  and  O_5
REMARK    5  A    between atoms: C_7  and  O_8
REMARK                            x       y       z     vdW  Elec       q    Type
REMARK                         _______ _______ _______ _____ _____    ______ ____
ROOT
ATOM      1  N   UNL     1       2.418  -0.146   0.395  0.00  0.00    -0.138 N 
ATOM      2  C   UNL     1       3.289  -1.217   0.257  0.00  0.00    +0.424 C 
ATOM      3  O   UNL     1       4.503  -1.121   0.277  0.00  0.00    -0.224 OA
ENDROOT
BRANCH   1   4
ATOM      4  O   UNL     1       1.089  -0.484   0.013  0.00  0.00    -0.289 OA
ATOM      5  H   UNL     1       0.590   0.353   0.092  0.00  0.00    +0.242 HD
ENDBRANCH   1   4
BRANCH   2   6
ATOM      6  O   UNL     1       2.629  -2.388   0.174  0.00  0.00    -0.465 OA
ATOM      7  H   UNL     1       1.684  -2.121   0.155  0.00  0.00    +0.297 HD
ENDBRANCH   2   6
BRANCH   1   8
ATOM      8  C   UNL     1       2.867   1.166  -0.085  0.00  0.00    +0.263 C 
BRANCH   8   9
ATOM      9  C   UNL     1       3.767   1.959   0.859  0.00  0.00    +0.325 C 
ATOM     10  O   UNL     1       4.076   3.122   0.630  0.00  0.00    -0.249 OA
BRANCH   9  11
ATOM     11  O   UNL     1       4.196   1.322   1.966  0.00  0.00    -0.479 OA
ATOM     12  H   UNL     1       4.035   0.358   1.966  0.00  0.00    +0.295 HD
ENDBRANCH   9  11
ENDBRANCH   8   9
ENDBRANCH   1   8
TORSDOF 5
