REMARK  Name = 
REMARK  4 active torsions:
REMARK  status: ('A' for Active; 'I' for Inactive)
REMARK    1  A    between atoms: C_2  and  C_16
REMARK    2  A    between atoms: N_4  and  C_5
REMARK    3  A    between atoms: C_5  and  C_6
REMARK    4  A    between atoms: N_22  and  C_23
REMARK                            x       y       z     vdW  Elec       q    Type
REMARK                         _______ _______ _______ _____ _____    ______ ____
ROOT
ATOM      1  C   UNL     1       1.821  -0.090  -0.049  0.00  0.00    +0.166 C 
ATOM      2  O   UNL     1       2.415   0.964  -0.826  0.00  0.00    -0.361 OA
ATOM      3  C   UNL     1       2.338   0.739  -2.226  0.00  0.00    +0.256 C 
ATOM      4  C   UNL     1       2.633  -0.670  -2.773  0.00  0.00    +0.242 C 
ATOM      5  O   UNL     1       3.094  -0.863  -3.894  0.00  0.00    -0.273 OA
ATOM      6  N   UNL     1       2.171  -1.678  -1.935  0.00  0.00    -0.292 N 
ATOM      7  C   UNL     1       2.368  -1.461  -0.507  0.00  0.00    +0.144 C 
ENDROOT
BRANCH   1   8
ATOM      8  C   UNL     1       0.305   0.050   0.062  0.00  0.00    -0.017 A 
ATOM      9  C   UNL     1      -0.567  -1.028  -0.170  0.00  0.00    +0.008 A 
ATOM     10  C   UNL     1      -1.943  -0.938   0.063  0.00  0.00    +0.025 A 
ATOM     11  C   UNL     1      -2.463   0.244   0.552  0.00  0.00    +0.055 A 
ATOM     12  N   UNL     1      -3.780   0.394   1.078  0.00  0.00    -0.210 N 
ATOM     13  S   UNL     1      -4.005   2.038   1.476  0.00  0.00    +0.049 S 
ATOM     14  C   UNL     1      -2.264   2.500   1.481  0.00  0.00    +0.225 C 
ATOM     15  O   UNL     1      -4.656   2.701   0.360  0.00  0.00    -0.155 OA
ATOM     16  O   UNL     1      -4.546   2.109   2.815  0.00  0.00    -0.155 OA
ATOM     17  C   UNL     1      -4.938  -0.289   0.492  0.00  0.00    +0.157 C 
ATOM     18  C   UNL     1      -1.614   1.325   0.818  0.00  0.00    -0.002 A 
ATOM     19  C   UNL     1      -0.245   1.247   0.544  0.00  0.00    +0.013 A 
ENDBRANCH   1   8
BRANCH   6  20
ATOM     20  C   UNL     1       1.830  -2.999  -2.467  0.00  0.00    +0.143 C 
BRANCH  20  21
ATOM     21  C   UNL     1       0.447  -2.973  -3.107  0.00  0.00    -0.030 A 
ATOM     22  C   UNL     1      -0.634  -3.673  -2.550  0.00  0.00    +0.005 A 
ATOM     23  C   UNL     1      -1.927  -3.518  -3.065  0.00  0.00    +0.000 A 
ATOM     24  C   UNL     1      -2.155  -2.675  -4.151  0.00  0.00    +0.000 A 
ATOM     25  C   UNL     1      -1.086  -2.020  -4.750  0.00  0.00    +0.000 A 
ATOM     26  C   UNL     1       0.203  -2.183  -4.243  0.00  0.00    +0.005 A 
ENDBRANCH  20  21
ENDBRANCH   6  20
TORSDOF 3
