REMARK  Name = 
REMARK  8 active torsions:
REMARK  status: ('A' for Active; 'I' for Inactive)
REMARK    1  A    between atoms: C_2  and  C_22
REMARK    2  A    between atoms: N_3  and  S_11
REMARK    3  A    between atoms: C_8  and  C_9
REMARK    4  A    between atoms: C_8  and  C_10
REMARK    5  A    between atoms: S_11  and  C_14
REMARK    6  A    between atoms: C_17  and  O_18
REMARK    7  A    between atoms: O_18  and  C_19
REMARK    8  A    between atoms: N_24  and  O_25
REMARK                            x       y       z     vdW  Elec       q    Type
REMARK                         _______ _______ _______ _____ _____    ______ ____
ROOT
ATOM      1  C   UNL     1       2.046   0.012  -0.292  0.00  0.00    +0.183 C 
ATOM      2  C   UNL     1       2.601   1.370  -0.856  0.00  0.00    +0.037 C 
ATOM      3  C   UNL     1       1.856   2.589  -0.265  0.00  0.00    +0.024 C 
ATOM      4  C   UNL     1       2.599   1.554  -2.380  0.00  0.00    +0.024 C 
ATOM      5  S   UNL     1       4.353   1.580  -0.213  0.00  0.00    -0.152 S 
ATOM      6  C   UNL     1       5.345   0.516  -1.304  0.00  0.00    +0.071 C 
ATOM      7  C   UNL     1       4.960  -0.942  -1.566  0.00  0.00    +0.028 C 
ATOM      8  C   UNL     1       3.936  -1.604  -0.651  0.00  0.00    +0.111 C 
ATOM      9  N   UNL     1       2.560  -1.195  -1.004  0.00  0.00    -0.163 NA
ENDROOT
BRANCH   1  10
ATOM     10  C   UNL     1       0.560  -0.078   0.064  0.00  0.00    +0.256 C 
ATOM     11  N   UNL     1      -0.356   0.346  -0.861  0.00  0.00    -0.196 N 
ATOM     12  H   UNL     1      -0.157   0.261  -1.860  0.00  0.00    +0.182 HD
ATOM     13  O   UNL     1       0.178  -0.546   1.145  0.00  0.00    -0.272 OA
BRANCH  11  14
ATOM     14  O   UNL     1      -1.706   0.116  -0.476  0.00  0.00    -0.295 OA
ATOM     15  H   UNL     1      -1.610  -0.273   0.424  0.00  0.00    +0.241 HD
ENDBRANCH  11  14
ENDBRANCH   1  10
BRANCH   9  16
ATOM     16  S   UNL     1       1.798  -1.875  -2.344  0.00  0.00    +0.062 S 
ATOM     17  O   UNL     1       2.751  -2.690  -3.062  0.00  0.00    -0.153 OA
ATOM     18  O   UNL     1       1.091  -0.793  -3.002  0.00  0.00    -0.153 OA
BRANCH  16  19
ATOM     19  C   UNL     1       0.536  -2.982  -1.772  0.00  0.00    +0.106 A 
ATOM     20  C   UNL     1       0.826  -4.029  -0.900  0.00  0.00    +0.032 A 
ATOM     21  C   UNL     1      -0.183  -4.948  -0.570  0.00  0.00    +0.047 A 
ATOM     22  C   UNL     1      -1.468  -4.818  -1.109  0.00  0.00    +0.120 A 
ATOM     23  C   UNL     1      -1.746  -3.763  -1.976  0.00  0.00    +0.047 A 
ATOM     24  C   UNL     1      -0.748  -2.856  -2.320  0.00  0.00    +0.032 A 
BRANCH  22  25
ATOM     25  O   UNL     1      -2.539  -5.617  -0.825  0.00  0.00    -0.495 OA
ATOM     26  C   UNL     1      -2.253  -6.979  -0.537  0.00  0.00    +0.277 C 
ENDBRANCH  22  25
ENDBRANCH  16  19
ENDBRANCH   9  16
TORSDOF 5
