REMARK  Name = 
REMARK  8 active torsions:
REMARK  status: ('A' for Active; 'I' for Inactive)
REMARK    1  A    between atoms: C_1  and  C_2
REMARK    2  A    between atoms: C_2  and  C_3
REMARK    3  A    between atoms: C_6  and  C_7
REMARK    4  A    between atoms: C_6  and  C_8
REMARK    5  A    between atoms: C_13  and  C_15
REMARK    6  A    between atoms: C_15  and  C_17
REMARK    7  A    between atoms: C_24  and  C_27
REMARK    8  A    between atoms: C_27  and  O_28
REMARK                            x       y       z     vdW  Elec       q    Type
REMARK                         _______ _______ _______ _____ _____    ______ ____
ROOT
ATOM      1  C   UNL     1       4.444   3.050   4.559  0.00  0.00    +0.193 C 
ATOM      2  O   UNL     1       3.749   4.005   4.900  0.00  0.00    -0.287 OA
ENDROOT
BRANCH   1   8
ATOM      3  C   UNL     1       1.023   0.144  -0.125  0.00  0.00    +0.016 C 
ATOM      4  C   UNL     1       2.568   0.074  -0.119  0.00  0.00    -0.010 C 
ATOM      5  C   UNL     1       3.104   0.812   1.119  0.00  0.00    -0.038 A 
ATOM      6  C   UNL     1       2.979   2.216   1.192  0.00  0.00    +0.005 A 
ATOM      7  C   UNL     1       3.427   2.936   2.302  0.00  0.00    +0.012 A 
ATOM      8  C   UNL     1       4.048   2.274   3.356  0.00  0.00    +0.023 A 
ATOM      9  C   UNL     1       4.178   0.885   3.307  0.00  0.00    +0.016 A 
ATOM     10  C   UNL     1       3.672   0.129   2.221  0.00  0.00    -0.037 A 
ATOM     11  C   UNL     1       3.731  -1.403   2.299  0.00  0.00    -0.010 C 
ATOM     12  C   UNL     1       5.194  -1.869   2.144  0.00  0.00    +0.016 C 
ATOM     13  C   UNL     1       3.195  -1.903   3.663  0.00  0.00    +0.016 C 
ATOM     14  C   UNL     1       2.851  -2.066   1.216  0.00  0.00    +0.012 C 
ATOM     15  C   UNL     1       3.024  -1.402  -0.140  0.00  0.00    +0.012 C 
ATOM     16  C   UNL     1       3.084   0.712  -1.430  0.00  0.00    +0.016 C 
ENDBRANCH   1   8
BRANCH   1  17
ATOM     17  C   UNL     1       5.650   2.724   5.365  0.00  0.00    +0.023 A 
ATOM     18  C   UNL     1       5.642   3.029   6.730  0.00  0.00    +0.012 A 
ATOM     19  C   UNL     1       6.794   2.848   7.503  0.00  0.00    +0.009 A 
ATOM     20  C   UNL     1       7.984   2.391   6.915  0.00  0.00    -0.017 A 
ATOM     21  C   UNL     1       9.174   2.278   7.658  0.00  0.00    +0.023 A 
ATOM     22  C   UNL     1      10.364   1.883   7.031  0.00  0.00    +0.059 A 
ATOM     23  C   UNL     1      10.371   1.595   5.666  0.00  0.00    +0.015 A 
ATOM     24  C   UNL     1       9.190   1.679   4.926  0.00  0.00    +0.009 A 
ATOM     25  C   UNL     1       7.993   2.082   5.533  0.00  0.00    -0.017 A 
ATOM     26  C   UNL     1       6.819   2.234   4.774  0.00  0.00    +0.020 A 
BRANCH  22  27
ATOM     27  C   UNL     1      11.655   1.822   7.761  0.00  0.00    +0.337 C 
ATOM     28  O   UNL     1      12.718   2.121   7.246  0.00  0.00    -0.245 OA
BRANCH  27  29
ATOM     29  O   UNL     1      11.544   1.365   9.025  0.00  0.00    -0.477 OA
ATOM     30  H   UNL     1      10.676   0.989   9.252  0.00  0.00    +0.295 HD
ENDBRANCH  27  29
ENDBRANCH  22  27
ENDBRANCH   1  17
TORSDOF 4
