REMARK  Name = 
REMARK  7 active torsions:
REMARK  status: ('A' for Active; 'I' for Inactive)
REMARK    1  A    between atoms: C_2  and  N_25
REMARK    2  A    between atoms: N_4  and  C_5
REMARK    3  A    between atoms: C_9  and  O_10
REMARK    4  A    between atoms: O_10  and  C_11
REMARK    5  A    between atoms: C_19  and  S_21
REMARK    6  A    between atoms: S_21  and  N_22
REMARK    7  A    between atoms: N_25  and  C_26
REMARK                            x       y       z     vdW  Elec       q    Type
REMARK                         _______ _______ _______ _____ _____    ______ ____
ROOT
ATOM      1  C   UNL     1       2.124  -0.076   0.077  0.00  0.00    +0.105 C 
ATOM      2  C   UNL     1       2.519  -1.333  -0.661  0.00  0.00    +0.007 A 
ATOM      3  C   UNL     1       2.223  -2.690  -0.308  0.00  0.00    +0.043 A 
ATOM      4  C   UNL     1       2.783  -3.599  -1.189  0.00  0.00    +0.144 A 
ATOM      5  S   UNL     1       3.616  -2.816  -2.464  0.00  0.00    -0.048 S 
ATOM      6  C   UNL     1       3.259  -1.291  -1.825  0.00  0.00    +0.152 A 
ATOM      7  S   UNL     1       3.770   0.146  -2.718  0.00  0.00    +0.081 S 
ATOM      8  O   UNL     1       5.195   0.026  -2.913  0.00  0.00    -0.149 OA
ATOM      9  O   UNL     1       2.819   0.225  -3.807  0.00  0.00    -0.149 OA
ATOM     10  N   UNL     1       3.456   1.423  -1.604  0.00  0.00    -0.201 N 
ATOM     11  C   UNL     1       2.204   1.241  -0.776  0.00  0.00    +0.155 C 
ENDROOT
BRANCH  10  12
ATOM     12  C   UNL     1       3.592   2.720  -2.236  0.00  0.00    +0.055 A 
ATOM     13  C   UNL     1       2.531   3.298  -2.951  0.00  0.00    +0.070 A 
ATOM     14  C   UNL     1       2.682   4.537  -3.573  0.00  0.00    +0.122 A 
ATOM     15  C   UNL     1       3.924   5.172  -3.528  0.00  0.00    +0.046 A 
ATOM     16  C   UNL     1       5.004   4.572  -2.877  0.00  0.00    +0.005 A 
ATOM     17  C   UNL     1       4.840   3.343  -2.235  0.00  0.00    +0.025 A 
BRANCH  14  18
ATOM     18  O   UNL     1       1.704   5.217  -4.245  0.00  0.00    -0.495 OA
ATOM     19  C   UNL     1       0.417   4.612  -4.299  0.00  0.00    +0.277 C 
ENDBRANCH  14  18
ENDBRANCH  10  12
BRANCH   1  20
ATOM     20  N   UNL     1       2.818  -0.037   1.372  0.00  0.00    -0.311 NA
ATOM     21  H   UNL     1       2.624  -0.896   1.887  0.00  0.00    +0.122 HD
ATOM     22  C   UNL     1       4.259   0.160   1.306  0.00  0.00    +0.101 C 
ENDBRANCH   1  20
BRANCH   4  23
ATOM     23  S   UNL     1       2.771  -5.375  -1.248  0.00  0.00    +0.062 S 
ATOM     24  O   UNL     1       1.782  -5.763  -0.275  0.00  0.00    -0.153 OA
ATOM     25  O   UNL     1       4.154  -5.779  -1.187  0.00  0.00    -0.153 OA
BRANCH  23  26
ATOM     26  N   UNL     1       2.171  -5.798  -2.760  0.00  0.00    -0.203 NA
ATOM     27  H   UNL     1       1.187  -5.560  -2.867  0.00  0.00    +0.144 HD
ATOM     28  H   UNL     1       2.779  -5.490  -3.518  0.00  0.00    +0.144 HD
ENDBRANCH  23  26
ENDBRANCH   4  23
TORSDOF 5
