REMARK  Name = 
REMARK  5 active torsions:
REMARK  status: ('A' for Active; 'I' for Inactive)
REMARK    1  A    between atoms: C_1  and  N_2
REMARK    2  A    between atoms: N_2  and  C_3
REMARK    3  A    between atoms: N_2  and  C_4
REMARK    4  A    between atoms: C_4  and  C_5
REMARK    5  A    between atoms: C_5  and  O_6
REMARK                            x       y       z     vdW  Elec       q    Type
REMARK                         _______ _______ _______ _____ _____    ______ ____
ROOT
ATOM      1  C   UNL     1       3.052  -1.164  -0.816  0.00  0.00    +0.205 C 
ENDROOT
BRANCH   1   3
ATOM      2  C   UNL     1       1.143   0.042   0.010  0.00  0.00    +0.105 C 
ATOM      3  N   UNL     1       2.594  -0.146   0.178  0.00  0.00    -0.299 NA
ATOM      4  C   UNL     1       2.840  -0.620   1.553  0.00  0.00    +0.105 C 
ENDBRANCH   1   3
BRANCH   1   5
ATOM      5  C   UNL     1       4.575  -1.234  -0.868  0.00  0.00    +0.319 C 
ATOM      6  O   UNL     1       5.213  -2.204  -1.250  0.00  0.00    -0.250 OA
BRANCH   5   7
ATOM      7  O   UNL     1       5.156  -0.063  -0.495  0.00  0.00    -0.480 OA
ATOM      8  H   UNL     1       4.428   0.537  -0.205  0.00  0.00    +0.295 HD
ENDBRANCH   5   7
ENDBRANCH   1   5
TORSDOF 3
