REMARK  Name = 
REMARK  10 active torsions:
REMARK  status: ('A' for Active; 'I' for Inactive)
REMARK    1  A    between atoms: O_1  and  C_2
REMARK    2  A    between atoms: C_5  and  N_20
REMARK    3  A    between atoms: C_8  and  C_10
REMARK    4  A    between atoms: C_10  and  O_11
REMARK    5  A    between atoms: O_11  and  P_12
REMARK    6  A    between atoms: P_12  and  O_13
REMARK    7  A    between atoms: P_12  and  O_15
REMARK    8  A    between atoms: O_15  and  P_16
REMARK    9  A    between atoms: P_16  and  O_17
REMARK   10  A    between atoms: P_16  and  O_18
REMARK                            x       y       z     vdW  Elec       q    Type
REMARK                         _______ _______ _______ _____ _____    ______ ____
ROOT
ATOM      1  C   UNL     1       2.407   0.103  -0.051  0.00  0.00    +0.150 C 
ATOM      2  C   UNL     1       3.006  -1.177   0.536  0.00  0.00    +0.175 C 
ATOM      3  O   UNL     1       4.219  -0.794   1.230  0.00  0.00    -0.348 OA
ATOM      4  C   UNL     1       4.394   0.633   1.097  0.00  0.00    +0.225 C 
ATOM      5  C   UNL     1       2.992   1.169   0.843  0.00  0.00    +0.088 C 
ENDROOT
BRANCH   4   6
ATOM      6  N   UNL     1       5.367   0.869   0.039  0.00  0.00    -0.289 N 
ATOM      7  C   UNL     1       6.394   0.065  -0.342  0.00  0.00    +0.147 A 
ATOM      8  N   UNL     1       6.808  -1.111   0.142  0.00  0.00    -0.330 N 
ATOM      9  H   UNL     1       6.327  -1.606   0.894  0.00  0.00    +0.168 HD
ATOM     10  C   UNL     1       7.864  -1.703  -0.511  0.00  0.00    +0.202 A 
ATOM     11  N   UNL     1       8.500  -1.237  -1.545  0.00  0.00    -0.198 NA
ATOM     12  C   UNL     1       8.104  -0.020  -2.111  0.00  0.00    +0.301 A 
ATOM     13  O   UNL     1       8.640   0.445  -3.114  0.00  0.00    -0.263 OA
ATOM     14  C   UNL     1       6.990   0.655  -1.432  0.00  0.00    +0.172 A 
ATOM     15  N   UNL     1       6.370   1.855  -1.705  0.00  0.00    -0.229 NA
ATOM     16  C   UNL     1       5.437   1.974  -0.779  0.00  0.00    +0.203 A 
ENDBRANCH   4   6
BRANCH   1  17
ATOM     17  O   UNL     1       0.992   0.092  -0.019  0.00  0.00    -0.389 OA
ATOM     18  H   UNL     1       0.670   0.921  -0.419  0.00  0.00    +0.210 HD
ENDBRANCH   1  17
BRANCH   2  19
ATOM     19  C   UNL     1       3.323  -2.185  -0.568  0.00  0.00    +0.206 C 
BRANCH  19  20
ATOM     20  O   UNL     1       3.866  -3.375  -0.011  0.00  0.00    -0.284 OA
BRANCH  20  21
ATOM     21  P   UNL     1       4.269  -4.534  -1.230  0.00  0.00    +0.483 P 
ATOM     22  O   UNL     1       3.877  -5.676  -0.290  0.00  0.00    -0.227 OA
BRANCH  21  23
ATOM     23  O   UNL     1       5.829  -4.212  -0.913  0.00  0.00    -0.302 OA
ATOM     24  H   UNL     1       6.164  -4.852  -0.245  0.00  0.00    +0.222 HD
ENDBRANCH  21  23
BRANCH  21  25
ATOM     25  O   UNL     1       4.672  -5.694  -2.449  0.00  0.00    -0.186 OA
BRANCH  25  26
ATOM     26  P   UNL     1       5.909  -6.678  -2.440  0.00  0.00    +0.481 P 
ATOM     27  O   UNL     1       7.015  -6.459  -1.466  0.00  0.00    -0.227 OA
BRANCH  26  28
ATOM     28  O   UNL     1       6.327  -6.721  -3.983  0.00  0.00    -0.302 OA
ATOM     29  H   UNL     1       5.605  -7.073  -4.534  0.00  0.00    +0.222 HD
ENDBRANCH  26  28
BRANCH  26  30
ATOM     30  O   UNL     1       5.232  -8.115  -2.288  0.00  0.00    -0.302 OA
ATOM     31  H   UNL     1       4.984  -8.254  -1.353  0.00  0.00    +0.222 HD
ENDBRANCH  26  30
ENDBRANCH  25  26
ENDBRANCH  21  25
ENDBRANCH  20  21
ENDBRANCH  19  20
ENDBRANCH   2  19
TORSDOF 10
