REMARK  Name = 
REMARK  12 active torsions:
REMARK  status: ('A' for Active; 'I' for Inactive)
REMARK    1  A    between atoms: C_1  and  C_2
REMARK    2  A    between atoms: C_2  and  C_3
REMARK    3  A    between atoms: C_2  and  C_4
REMARK    4  A    between atoms: C_4  and  C_5
REMARK    5  A    between atoms: C_7  and  O_8
REMARK    6  A    between atoms: C_7  and  C_9
REMARK    7  A    between atoms: C_9  and  N_11
REMARK    8  A    between atoms: C_9  and  C_12
REMARK    9  A    between atoms: C_12  and  C_14
REMARK   10  A    between atoms: C_12  and  O_15
REMARK   11  A    between atoms: N_16  and  C_17
REMARK   12  A    between atoms: C_17  and  C_18
REMARK                            x       y       z     vdW  Elec       q    Type
REMARK                         _______ _______ _______ _____ _____    ______ ____
ROOT
ATOM      1  C   UNL     1       9.813  -3.949   1.739  0.00  0.00    +0.103 C 
ATOM      2  C   UNL     1       8.830  -4.821   1.000  0.00  0.00    +0.264 C 
ATOM      3  O   UNL     1       8.069  -5.606   1.517  0.00  0.00    -0.269 OA
ATOM      4  N   UNL     1       9.119  -4.589  -0.305  0.00  0.00    -0.241 N 
ATOM      5  C   UNL     1      10.097  -3.548  -0.412  0.00  0.00    +0.253 C 
ATOM      6  N   UNL     1      10.615  -3.288   0.956  0.00  0.00    -0.230 NA
ENDROOT
BRANCH   5   7
ATOM      7  O   UNL     1      11.138  -4.056  -1.226  0.00  0.00    -0.352 OA
ATOM      8  H   UNL     1      11.863  -4.150  -0.584  0.00  0.00    +0.214 HD
ENDBRANCH   5   7
BRANCH   1   9
ATOM      9  C   UNL     1       9.889  -3.967   3.234  0.00  0.00    +0.063 C 
BRANCH   9  11
ATOM     10  C   UNL     1      12.116  -5.201   3.325  0.00  0.00    +0.007 C 
ATOM     11  C   UNL     1      10.658  -5.176   3.790  0.00  0.00    -0.011 C 
ATOM     12  C   UNL     1      10.614  -5.161   5.321  0.00  0.00    +0.007 C 
ENDBRANCH   9  11
ENDBRANCH   1   9
BRANCH   4  13
ATOM     13  C   UNL     1       8.692  -5.436  -1.405  0.00  0.00    +0.183 C 
BRANCH  13  14
ATOM     14  C   UNL     1       7.616  -4.868  -2.310  0.00  0.00    +0.242 C 
ATOM     15  O   UNL     1       7.082  -3.772  -2.179  0.00  0.00    -0.299 OA
ENDBRANCH  13  14
ENDBRANCH   4  13
BRANCH   5  16
ATOM     16  C   UNL     1       9.589  -2.184  -1.052  0.00  0.00    +0.155 C 
BRANCH  16  17
ATOM     17  N   UNL     1      10.683  -1.156  -1.073  0.00  0.00    -0.320 NA
ATOM     18  H   UNL     1      10.852  -0.925  -0.088  0.00  0.00    +0.119 HD
ATOM     19  H   UNL     1      11.533  -1.628  -1.382  0.00  0.00    +0.119 HD
ENDBRANCH  16  17
BRANCH  16  20
ATOM     20  C   UNL     1       8.324  -1.588  -0.363  0.00  0.00    +0.135 C 
ATOM     21  C   UNL     1       7.758  -0.396  -1.139  0.00  0.00    +0.039 C 
BRANCH  20  22
ATOM     22  O   UNL     1       8.605  -1.169   0.979  0.00  0.00    -0.390 OA
ATOM     23  H   UNL     1       7.849  -0.634   1.276  0.00  0.00    +0.210 HD
ENDBRANCH  20  22
ENDBRANCH  16  20
ENDBRANCH   5  16
TORSDOF 9
