REMARK  Name = 
REMARK  11 active torsions:
REMARK  status: ('A' for Active; 'I' for Inactive)
REMARK    1  A    between atoms: O_1  and  C_2
REMARK    2  A    between atoms: C_2  and  C_3
REMARK    3  A    between atoms: C_6  and  O_8
REMARK    4  A    between atoms: C_9  and  O_11
REMARK    5  A    between atoms: C_12  and  O_14
REMARK    6  A    between atoms: O_14  and  C_15
REMARK    7  A    between atoms: C_17  and  O_19
REMARK    8  A    between atoms: C_20  and  O_22
REMARK    9  A    between atoms: C_23  and  O_25
REMARK   10  A    between atoms: C_27  and  C_29
REMARK   11  A    between atoms: C_29  and  O_30
REMARK                            x       y       z     vdW  Elec       q    Type
REMARK                         _______ _______ _______ _____ _____    ______ ____
ROOT
ATOM      1  C   UNL     1      -0.481  -3.250  -1.033  0.00  0.00    +0.183 C 
ATOM      2  C   UNL     1      -1.512  -4.368  -1.302  0.00  0.00    +0.178 C 
ATOM      3  O   UNL     1      -1.215  -5.112  -2.503  0.00  0.00    -0.341 OA
ATOM      4  C   UNL     1      -1.210  -4.289  -3.669  0.00  0.00    +0.279 C 
ATOM      5  C   UNL     1      -0.152  -3.176  -3.580  0.00  0.00    +0.201 C 
ATOM      6  C   UNL     1      -0.330  -2.361  -2.288  0.00  0.00    +0.179 C 
ENDROOT
BRANCH   4   7
ATOM      7  O   UNL     1      -2.492  -3.714  -3.892  0.00  0.00    -0.365 OA
ATOM      8  H   UNL     1      -2.777  -4.016  -4.773  0.00  0.00    +0.213 HD
ENDBRANCH   4   7
BRANCH   5   9
ATOM      9  O   UNL     1       1.171  -3.716  -3.673  0.00  0.00    -0.384 OA
ATOM     10  H   UNL     1       1.201  -4.505  -3.100  0.00  0.00    +0.210 HD
ENDBRANCH   5   9
BRANCH   6  11
ATOM     11  O   UNL     1      -1.468  -1.491  -2.407  0.00  0.00    -0.386 OA
ATOM     12  H   UNL     1      -2.225  -2.023  -2.724  0.00  0.00    +0.210 HD
ENDBRANCH   6  11
BRANCH   1  13
ATOM     13  O   UNL     1       0.758  -3.836  -0.601  0.00  0.00    -0.340 OA
BRANCH  13  16
ATOM     14  C   UNL     1       3.987  -3.109   0.867  0.00  0.00    +0.149 C 
ATOM     15  O   UNL     1       2.831  -3.803   0.389  0.00  0.00    -0.343 OA
ATOM     16  C   UNL     1       1.771  -2.952  -0.080  0.00  0.00    +0.282 C 
ATOM     17  C   UNL     1       1.305  -2.010   1.068  0.00  0.00    +0.199 C 
ATOM     18  C   UNL     1       2.526  -1.238   1.610  0.00  0.00    +0.150 C 
ATOM     19  C   UNL     1       3.620  -2.197   2.038  0.00  0.00    +0.068 C 
BRANCH  17  20
ATOM     20  O   UNL     1       0.306  -1.075   0.638  0.00  0.00    -0.384 OA
ATOM     21  H   UNL     1       0.736  -0.273   0.299  0.00  0.00    +0.210 HD
ENDBRANCH  17  20
BRANCH  18  22
ATOM     22  O   UNL     1       2.146  -0.409   2.706  0.00  0.00    -0.389 OA
ATOM     23  H   UNL     1       2.904   0.159   2.930  0.00  0.00    +0.210 HD
ENDBRANCH  18  22
BRANCH  14  24
ATOM     24  C   UNL     1       5.028  -4.149   1.284  0.00  0.00    +0.187 C 
BRANCH  24  25
ATOM     25  O   UNL     1       6.223  -3.530   1.755  0.00  0.00    -0.392 OA
ATOM     26  H   UNL     1       6.832  -4.246   2.014  0.00  0.00    +0.210 HD
ENDBRANCH  24  25
ENDBRANCH  14  24
ENDBRANCH  13  16
ENDBRANCH   1  13
BRANCH   2  27
ATOM     27  C   UNL     1      -1.592  -5.353  -0.127  0.00  0.00    +0.190 C 
BRANCH  27  28
ATOM     28  O   UNL     1      -2.689  -6.250  -0.324  0.00  0.00    -0.392 OA
ATOM     29  H   UNL     1      -2.575  -6.603  -1.229  0.00  0.00    +0.210 HD
ENDBRANCH  27  28
ENDBRANCH   2  27
TORSDOF 11
