REMARK  Name = 
REMARK  11 active torsions:
REMARK  status: ('A' for Active; 'I' for Inactive)
REMARK    1  A    between atoms: O_1  and  C_2
REMARK    2  A    between atoms: C_4  and  O_6
REMARK    3  A    between atoms: C_7  and  C_9
REMARK    4  A    between atoms: C_9  and  O_10
REMARK    5  A    between atoms: O_10  and  P_11
REMARK    6  A    between atoms: P_11  and  O_12
REMARK    7  A    between atoms: P_11  and  O_13
REMARK    8  A    between atoms: C_16  and  O_18
REMARK    9  A    between atoms: O_18  and  P_19
REMARK   10  A    between atoms: P_19  and  O_20
REMARK   11  A    between atoms: C_23  and  O_25
REMARK                            x       y       z     vdW  Elec       q    Type
REMARK                         _______ _______ _______ _____ _____    ______ ____
ROOT
ATOM      1  C   UNL     1       2.575  -0.068   0.135  0.00  0.00    +0.179 C 
ATOM      2  C   UNL     1       2.983   1.024  -0.869  0.00  0.00    +0.202 C 
ATOM      3  C   UNL     1       2.577   0.600  -2.300  0.00  0.00    +0.289 C 
ATOM      4  O   UNL     1       3.133  -0.693  -2.597  0.00  0.00    -0.340 OA
ATOM      5  C   UNL     1       2.612  -1.725  -1.735  0.00  0.00    +0.179 C 
ATOM      6  C   UNL     1       3.061  -1.456  -0.288  0.00  0.00    +0.177 C 
ENDROOT
BRANCH   1   7
ATOM      7  O   UNL     1       3.102   0.212   1.447  0.00  0.00    -0.386 OA
ATOM      8  H   UNL     1       2.929   1.167   1.579  0.00  0.00    +0.210 HD
ENDBRANCH   1   7
BRANCH   2   9
ATOM      9  O   UNL     1       2.344   2.244  -0.449  0.00  0.00    -0.384 OA
ATOM     10  H   UNL     1       2.350   2.823  -1.241  0.00  0.00    +0.210 HD
ENDBRANCH   2   9
BRANCH   6  11
ATOM     11  O   UNL     1       2.562  -2.425   0.649  0.00  0.00    -0.386 OA
ATOM     12  H   UNL     1       2.702  -2.012   1.526  0.00  0.00    +0.210 HD
ENDBRANCH   6  11
BRANCH   3  13
ATOM     13  O   UNL     1       2.977   1.596  -3.263  0.00  0.00    -0.295 OA
BRANCH  13  14
ATOM     14  P   UNL     1       2.464   1.137  -4.850  0.00  0.00    +0.212 P 
ATOM     15  O   UNL     1       2.005   0.725  -6.271  0.00  0.00    -0.517 OA
ATOM     16  O   UNL     1       2.714   2.607  -5.215  0.00  0.00    -0.437 OA
BRANCH  14  17
ATOM     17  O   UNL     1       0.908   1.063  -4.360  0.00  0.00    -0.344 OA
ATOM     18  H   UNL     1       0.516   1.080  -5.261  0.00  0.00    +0.218 HD
ENDBRANCH  14  17
ENDBRANCH  13  14
ENDBRANCH   3  13
BRANCH   5  19
ATOM     19  C   UNL     1       3.104  -3.089  -2.240  0.00  0.00    +0.206 C 
BRANCH  19  20
ATOM     20  O   UNL     1       2.468  -4.144  -1.537  0.00  0.00    -0.284 OA
BRANCH  20  21
ATOM     21  P   UNL     1       3.069  -5.613  -1.644  0.00  0.00    +0.472 P 
ATOM     22  O   UNL     1       4.421  -5.745  -2.268  0.00  0.00    -0.228 OA
BRANCH  21  23
ATOM     23  O   UNL     1       1.890  -6.394  -2.373  0.00  0.00    -0.303 OA
ATOM     24  H   UNL     1       1.901  -6.236  -3.333  0.00  0.00    +0.222 HD
ENDBRANCH  21  23
BRANCH  21  25
ATOM     25  O   UNL     1       2.937  -6.120  -0.135  0.00  0.00    -0.303 OA
ATOM     26  H   UNL     1       2.686  -5.360   0.434  0.00  0.00    +0.222 HD
ENDBRANCH  21  25
ENDBRANCH  20  21
ENDBRANCH  19  20
ENDBRANCH   5  19
TORSDOF 11
