REMARK  Name = 
REMARK  9 active torsions:
REMARK  status: ('A' for Active; 'I' for Inactive)
REMARK    1  A    between atoms: C_1  and  C_2
REMARK    2  A    between atoms: C_2  and  C_4
REMARK    3  A    between atoms: C_2  and  N_32
REMARK    4  A    between atoms: C_4  and  O_5
REMARK    5  A    between atoms: O_5  and  C_6
REMARK    6  A    between atoms: C_9  and  C_12
REMARK    7  A    between atoms: C_18  and  O_19
REMARK    8  A    between atoms: C_23  and  C_25
REMARK    9  A    between atoms: C_28  and  O_29
REMARK                            x       y       z     vdW  Elec       q    Type
REMARK                         _______ _______ _______ _____ _____    ______ ____
ROOT
ATOM      1  C   UNL     1       2.658   6.365  -5.110  0.00  0.00    +0.221 C 
ATOM      2  C   UNL     1       3.418   7.256  -4.075  0.00  0.00    +0.126 C 
ATOM      3  S   UNL     1       4.036   8.728  -4.999  0.00  0.00    -0.109 S 
ATOM      4  C   UNL     1       2.523   9.129  -5.849  0.00  0.00    +0.054 A 
ATOM      5  C   UNL     1       1.430   8.254  -5.935  0.00  0.00    +0.135 A 
ATOM      6  C   UNL     1       0.242   8.674  -6.546  0.00  0.00    +0.050 A 
ATOM      7  C   UNL     1       0.149   9.946  -7.106  0.00  0.00    +0.049 A 
ATOM      8  C   UNL     1       1.247  10.793  -7.046  0.00  0.00    +0.118 A 
ATOM      9  C   UNL     1       2.427  10.398  -6.426  0.00  0.00    +0.063 A 
ATOM     10  O   UNL     1       1.385   6.969  -5.452  0.00  0.00    -0.482 OA
ENDROOT
BRANCH   1  14
ATOM     11  C   UNL     1       4.555   4.992  -8.788  0.00  0.00    +0.121 A 
ATOM     12  C   UNL     1       3.170   5.018  -8.661  0.00  0.00    +0.046 A 
ATOM     13  C   UNL     1       2.578   5.437  -7.470  0.00  0.00    +0.011 A 
ATOM     14  C   UNL     1       3.358   5.866  -6.380  0.00  0.00    -0.006 A 
ATOM     15  C   UNL     1       4.751   5.788  -6.504  0.00  0.00    +0.011 A 
ATOM     16  C   UNL     1       5.344   5.372  -7.704  0.00  0.00    +0.046 A 
BRANCH  11  17
ATOM     17  O   UNL     1       5.003   4.578 -10.010  0.00  0.00    -0.490 OA
BRANCH  17  18
ATOM     18  C   UNL     1       6.420   4.530 -10.188  0.00  0.00    +0.247 C 
BRANCH  18  20
ATOM     19  C   UNL     1       6.151   2.645 -11.824  0.00  0.00    +0.027 C 
ATOM     20  C   UNL     1       6.739   4.055 -11.629  0.00  0.00    +0.091 C 
BRANCH  20  21
ATOM     21  N   UNL     1       8.192   4.085 -11.916  0.00  0.00    -0.296 NA
ATOM     22  C   UNL     1       8.802   5.402 -11.672  0.00  0.00    +0.085 C 
ATOM     23  C   UNL     1       9.911   5.567 -12.701  0.00  0.00    +0.017 C 
ATOM     24  C   UNL     1       9.937   4.256 -13.458  0.00  0.00    +0.017 C 
ATOM     25  C   UNL     1       8.523   3.730 -13.300  0.00  0.00    +0.085 C 
ENDBRANCH  20  21
ENDBRANCH  18  20
ENDBRANCH  17  18
ENDBRANCH  11  17
ENDBRANCH   1  14
BRANCH   2  26
ATOM     26  C   UNL     1       2.582   7.647  -2.836  0.00  0.00    -0.030 A 
ATOM     27  C   UNL     1       2.811   8.849  -2.137  0.00  0.00    +0.008 A 
ATOM     28  C   UNL     1       1.959   9.268  -1.112  0.00  0.00    +0.046 A 
ATOM     29  C   UNL     1       0.888   8.473  -0.739  0.00  0.00    +0.117 A 
ATOM     30  C   UNL     1       0.690   7.237  -1.335  0.00  0.00    +0.046 A 
ATOM     31  C   UNL     1       1.542   6.822  -2.364  0.00  0.00    +0.008 A 
BRANCH  29  32
ATOM     32  O   UNL     1       0.042   8.945   0.219  0.00  0.00    -0.507 OA
ATOM     33  H   UNL     1      -0.735   8.363   0.252  0.00  0.00    +0.292 HD
ENDBRANCH  29  32
ENDBRANCH   2  26
BRANCH   8  34
ATOM     34  O   UNL     1       1.211  12.047  -7.584  0.00  0.00    -0.507 OA
ATOM     35  H   UNL     1       0.338  12.189  -7.979  0.00  0.00    +0.292 HD
ENDBRANCH   8  34
TORSDOF 8
