REMARK  Name = 
REMARK  12 active torsions:
REMARK  status: ('A' for Active; 'I' for Inactive)
REMARK    1  A    between atoms: O_1  and  C_2
REMARK    2  A    between atoms: C_2  and  C_3
REMARK    3  A    between atoms: C_6  and  O_8
REMARK    4  A    between atoms: O_8  and  C_9
REMARK    5  A    between atoms: C_11  and  O_13
REMARK    6  A    between atoms: C_14  and  O_16
REMARK    7  A    between atoms: C_17  and  O_19
REMARK    8  A    between atoms: C_21  and  C_23
REMARK    9  A    between atoms: C_23  and  O_24
REMARK   10  A    between atoms: C_25  and  O_27
REMARK   11  A    between atoms: C_28  and  O_30
REMARK   12  A    between atoms: C_31  and  O_33
REMARK                            x       y       z     vdW  Elec       q    Type
REMARK                         _______ _______ _______ _____ _____    ______ ____
ROOT
ATOM      1  O   UNL     1       0.283   0.511  -1.015  0.00  0.00    -0.340 OA
ENDROOT
BRANCH   1   6
ATOM      2  C   UNL     1       2.210  -1.006  -2.338  0.00  0.00    +0.178 C 
ATOM      3  C   UNL     1       3.525  -0.236  -2.134  0.00  0.00    +0.177 C 
ATOM      4  C   UNL     1       3.257   1.087  -1.392  0.00  0.00    +0.179 C 
ATOM      5  C   UNL     1       2.135   1.866  -2.082  0.00  0.00    +0.201 C 
ATOM      6  C   UNL     1       0.884   0.979  -2.220  0.00  0.00    +0.282 C 
ATOM      7  O   UNL     1       1.234  -0.172  -2.999  0.00  0.00    -0.341 OA
BRANCH   3   8
ATOM      8  O   UNL     1       4.472  -1.048  -1.430  0.00  0.00    -0.386 OA
ATOM      9  H   UNL     1       4.238  -1.047  -0.486  0.00  0.00    +0.210 HD
ENDBRANCH   3   8
BRANCH   4  10
ATOM     10  O   UNL     1       4.443   1.898  -1.377  0.00  0.00    -0.386 OA
ATOM     11  H   UNL     1       4.160   2.774  -1.049  0.00  0.00    +0.210 HD
ENDBRANCH   4  10
BRANCH   5  12
ATOM     12  O   UNL     1       1.904   3.093  -1.381  0.00  0.00    -0.384 OA
ATOM     13  H   UNL     1       1.383   3.677  -1.968  0.00  0.00    +0.210 HD
ENDBRANCH   5  12
BRANCH   2  14
ATOM     14  C   UNL     1       2.430  -2.272  -3.177  0.00  0.00    +0.190 C 
BRANCH  14  15
ATOM     15  O   UNL     1       1.251  -3.081  -3.143  0.00  0.00    -0.392 OA
ATOM     16  H   UNL     1       1.401  -3.824  -3.751  0.00  0.00    +0.210 HD
ENDBRANCH  14  15
ENDBRANCH   2  14
ENDBRANCH   1   6
BRANCH   1  17
ATOM     17  C   UNL     1      -0.219   1.435  -0.044  0.00  0.00    +0.183 C 
ATOM     18  C   UNL     1      -0.929   0.591   1.050  0.00  0.00    +0.178 C 
ATOM     19  O   UNL     1      -2.127  -0.041   0.536  0.00  0.00    -0.341 OA
ATOM     20  C   UNL     1      -3.089   0.888   0.036  0.00  0.00    +0.279 C 
ATOM     21  C   UNL     1      -2.510   1.745  -1.099  0.00  0.00    +0.201 C 
ATOM     22  C   UNL     1      -1.235   2.450  -0.605  0.00  0.00    +0.179 C 
BRANCH  20  23
ATOM     23  O   UNL     1      -3.556   1.730   1.082  0.00  0.00    -0.365 OA
ATOM     24  H   UNL     1      -4.415   2.081   0.782  0.00  0.00    +0.213 HD
ENDBRANCH  20  23
BRANCH  21  25
ATOM     25  O   UNL     1      -2.250   0.946  -2.255  0.00  0.00    -0.384 OA
ATOM     26  H   UNL     1      -1.711   0.178  -1.966  0.00  0.00    +0.210 HD
ENDBRANCH  21  25
BRANCH  22  27
ATOM     27  O   UNL     1      -1.543   3.444   0.384  0.00  0.00    -0.386 OA
ATOM     28  H   UNL     1      -2.163   3.051   1.036  0.00  0.00    +0.210 HD
ENDBRANCH  22  27
BRANCH  18  29
ATOM     29  C   UNL     1      -0.033  -0.534   1.587  0.00  0.00    +0.190 C 
BRANCH  29  30
ATOM     30  O   UNL     1      -0.725  -1.245   2.615  0.00  0.00    -0.392 OA
ATOM     31  H   UNL     1      -1.601  -1.456   2.236  0.00  0.00    +0.210 HD
ENDBRANCH  29  30
ENDBRANCH  18  29
ENDBRANCH   1  17
TORSDOF 12
