REMARK  Name = 
REMARK  5 active torsions:
REMARK  status: ('A' for Active; 'I' for Inactive)
REMARK    1  A    between atoms: C_1  and  C_2
REMARK    2  A    between atoms: C_2  and  C_3
REMARK    3  A    between atoms: C_2  and  C_4
REMARK    4  A    between atoms: C_4  and  C_5
REMARK    5  A    between atoms: C_5  and  O_6
REMARK                            x       y       z     vdW  Elec       q    Type
REMARK                         _______ _______ _______ _____ _____    ______ ____
ROOT
ATOM      1  C   UNL     1       3.011   0.627  -1.199  0.00  0.00    +0.031 C 
ENDROOT
BRANCH   1   3
ATOM      2  C   UNL     1       0.928   0.012   0.135  0.00  0.00    +0.007 C 
ATOM      3  C   UNL     1       2.456   0.000   0.092  0.00  0.00    -0.015 C 
ATOM      4  C   UNL     1       2.964  -1.437   0.232  0.00  0.00    +0.007 C 
ENDBRANCH   1   3
BRANCH   1   5
ATOM      5  C   UNL     1       2.655   2.100  -1.370  0.00  0.00    +0.156 C 
BRANCH   5   6
ATOM      6  O   UNL     1       3.233   2.598  -2.571  0.00  0.00    -0.395 OA
ATOM      7  H   UNL     1       4.197   2.500  -2.495  0.00  0.00    +0.209 HD
ENDBRANCH   5   6
ENDBRANCH   1   5
TORSDOF 3
