REMARK  Name = 
REMARK  3 active torsions:
REMARK  status: ('A' for Active; 'I' for Inactive)
REMARK    1  A    between atoms: C_4  and  O_5
REMARK    2  A    between atoms: O_5  and  C_6
REMARK    3  A    between atoms: C_6  and  C_7
REMARK                            x       y       z     vdW  Elec       q    Type
REMARK                         _______ _______ _______ _____ _____    ______ ____
ROOT
ATOM      1  N   UNL     1       1.183  -0.011   0.258  0.00  0.00    -0.327 N 
ATOM      2  H   UNL     1       0.797   0.865  -0.067  0.00  0.00    +0.145 HD
ATOM      3  H   UNL     1       0.795  -0.864  -0.117  0.00  0.00    +0.145 HD
ATOM      4  C   UNL     1       2.559   0.006   0.129  0.00  0.00    +0.218 A 
ATOM      5  N   UNL     1       3.131   1.210   0.060  0.00  0.00    -0.193 NA
ATOM      6  C   UNL     1       4.470   1.167  -0.027  0.00  0.00    +0.186 A 
ATOM      7  C   UNL     1       5.183  -0.011  -0.060  0.00  0.00    +0.147 A 
ATOM      8  N   UNL     1       6.494   0.363  -0.126  0.00  0.00    -0.339 N 
ATOM      9  H   UNL     1       7.290  -0.258  -0.150  0.00  0.00    +0.167 HD
ATOM     10  C   UNL     1       6.525   1.732  -0.134  0.00  0.00    +0.199 A 
ATOM     11  C   UNL     1       4.519  -1.208  -0.019  0.00  0.00    +0.246 A 
ATOM     12  N   UNL     1       5.314   2.245  -0.084  0.00  0.00    -0.216 NA
ATOM     13  N   UNL     1       3.176  -1.191   0.070  0.00  0.00    -0.178 NA
ENDROOT
BRANCH  11  14
ATOM     14  O   UNL     1       5.236  -2.380  -0.043  0.00  0.00    -0.473 OA
BRANCH  14  15
ATOM     15  C   UNL     1       4.430  -3.564  -0.053  0.00  0.00    +0.253 C 
BRANCH  15  16
ATOM     16  C   UNL     1       5.396  -4.750  -0.019  0.00  0.00    +0.111 C 
ATOM     17  N   UNL     1       6.226  -4.851  -1.193  0.00  0.00    -0.309 N 
ATOM     18  H   UNL     1       6.774  -4.092  -1.580  0.00  0.00    +0.149 HD
ATOM     19  C   UNL     1       6.617  -6.154  -1.424  0.00  0.00    +0.213 C 
ATOM     20  O   UNL     1       7.491  -6.498  -2.199  0.00  0.00    -0.276 OA
ATOM     21  C   UNL     1       5.826  -7.048  -0.501  0.00  0.00    +0.098 C 
ATOM     22  C   UNL     1       4.727  -6.115   0.013  0.00  0.00    +0.035 C 
ENDBRANCH  15  16
ENDBRANCH  14  15
ENDBRANCH  11  14
TORSDOF 3
