REMARK  Name = 
REMARK  6 active torsions:
REMARK  status: ('A' for Active; 'I' for Inactive)
REMARK    1  A    between atoms: C_1  and  C_2
REMARK    2  A    between atoms: C_2  and  C_3
REMARK    3  A    between atoms: C_18  and  C_19
REMARK    4  A    between atoms: C_19  and  O_20
REMARK    5  A    between atoms: O_20  and  S_21
REMARK    6  A    between atoms: S_21  and  N_22
REMARK                            x       y       z     vdW  Elec       q    Type
REMARK                         _______ _______ _______ _____ _____    ______ ____
ROOT
ATOM      1  C   UNL     1       0.986   0.007  -0.290  0.00  0.00    +0.074 C 
ATOM      2  C   UNL     1       2.507   0.048  -0.260  0.00  0.00    +0.169 C 
ATOM      3  O   UNL     1       2.949   1.346  -0.681  0.00  0.00    -0.313 OA
ATOM      4  C   UNL     1       3.620   1.135  -1.931  0.00  0.00    +0.228 C 
ATOM      5  C   UNL     1       4.156  -0.280  -1.775  0.00  0.00    +0.217 C 
ATOM      6  C   UNL     1       4.607  -0.915  -3.086  0.00  0.00    +0.219 C 
ATOM      7  C   UNL     1       3.864  -0.473  -4.359  0.00  0.00    +0.211 C 
ATOM      8  C   UNL     1       3.155   0.871  -4.278  0.00  0.00    +0.200 C 
ATOM      9  O   UNL     1       2.949  -1.521  -4.669  0.00  0.00    -0.207 OA
ATOM     10  S   UNL     1       3.605  -2.935  -4.212  0.00  0.00    +0.211 S 
ATOM     11  O   UNL     1       4.464  -3.385  -5.288  0.00  0.00    -0.118 OA
ATOM     12  O   UNL     1       2.574  -3.767  -3.639  0.00  0.00    -0.118 OA
ATOM     13  O   UNL     1       4.568  -2.348  -3.037  0.00  0.00    -0.207 OA
ATOM     14  O   UNL     1       2.647   1.175  -2.984  0.00  0.00    -0.342 OA
ATOM     15  O   UNL     1       3.050  -0.951  -1.148  0.00  0.00    -0.338 OA
ATOM     16  C   UNL     1       3.018  -0.185   1.162  0.00  0.00    +0.074 C 
ENDROOT
BRANCH   4  17
ATOM     17  C   UNL     1       4.696   2.221  -2.092  0.00  0.00    +0.262 C 
BRANCH  17  18
ATOM     18  O   UNL     1       4.049   3.487  -2.207  0.00  0.00    -0.220 OA
BRANCH  18  19
ATOM     19  S   UNL     1       4.970   4.773  -2.515  0.00  0.00    +0.149 S 
ATOM     20  O   UNL     1       5.451   4.648  -3.870  0.00  0.00    -0.130 OA
ATOM     21  O   UNL     1       5.850   4.981  -1.396  0.00  0.00    -0.130 OA
BRANCH  19  22
ATOM     22  N   UNL     1       3.852   6.017  -2.497  0.00  0.00    -0.183 NA
ATOM     23  H   UNL     1       3.110   5.858  -3.176  0.00  0.00    +0.146 HD
ATOM     24  H   UNL     1       3.513   6.185  -1.552  0.00  0.00    +0.146 HD
ENDBRANCH  19  22
ENDBRANCH  18  19
ENDBRANCH  17  18
ENDBRANCH   4  17
TORSDOF 4
