REMARK  Name = 
REMARK  14 active torsions:
REMARK  status: ('A' for Active; 'I' for Inactive)
REMARK    1  A    between atoms: C_1  and  C_2
REMARK    2  A    between atoms: C_2  and  C_3
REMARK    3  A    between atoms: C_2  and  C_4
REMARK    4  A    between atoms: C_2  and  C_5
REMARK    5  A    between atoms: C_6  and  C_7
REMARK    6  A    between atoms: C_7  and  CA_8
REMARK    7  A    between atoms: CA_8  and  N_10
REMARK    8  A    between atoms: CA_8  and  C_11
REMARK    9  A    between atoms: C_11  and  O_12
REMARK   10  A    between atoms: C_14  and  O_15
REMARK   11  A    between atoms: O_15  and  C_16
REMARK   12  A    between atoms: C_16  and  P_17
REMARK   13  A    between atoms: P_17  and  O_18
REMARK   14  A    between atoms: P_17  and  O_19
REMARK                            x       y       z     vdW  Elec       q    Type
REMARK                         _______ _______ _______ _____ _____    ______ ____
ROOT
ATOM      1  C   UNL     1      -0.256   3.464  -0.864  0.00  0.00    +0.150 A 
ATOM      2  O   UNL     1      -1.218   3.660  -1.827  0.00  0.00    -0.355 OA
ATOM      3  N   UNL     1      -2.063   2.569  -1.912  0.00  0.00    -0.040 NA
ATOM      4  C   UNL     1      -1.606   1.699  -1.020  0.00  0.00    +0.259 A 
ATOM      5  C   UNL     1      -0.441   2.184  -0.334  0.00  0.00    +0.060 A 
ENDROOT
BRANCH   1   7
ATOM      6  C   UNL     1       1.878   4.542  -1.672  0.00  0.00    +0.019 C 
ATOM      7  C   UNL     1       0.705   4.642  -0.677  0.00  0.00    +0.023 C 
ATOM      8  C   UNL     1      -0.010   5.989  -0.948  0.00  0.00    +0.019 C 
ATOM      9  C   UNL     1       1.272   4.737   0.752  0.00  0.00    +0.019 C 
ENDBRANCH   1   7
BRANCH   4  10
ATOM     10  O   UNL     1      -2.197   0.486  -0.848  0.00  0.00    -0.462 OA
BRANCH  10  11
ATOM     11  C   UNL     1      -3.528   0.270  -1.419  0.00  0.00    +0.357 C 
BRANCH  11  12
ATOM     12  P   UNL     1      -4.468  -0.438  -0.018  0.00  0.00    +0.365 P 
ATOM     13  O   UNL     1      -5.263  -1.037   1.168  0.00  0.00    -0.255 OA
BRANCH  12  14
ATOM     14  O   UNL     1      -3.422  -1.722  -0.044  0.00  0.00    -0.322 OA
ATOM     15  H   UNL     1      -2.574  -1.611  -0.520  0.00  0.00    +0.220 HD
ENDBRANCH  12  14
BRANCH  12  16
ATOM     16  O   UNL     1      -5.473  -0.971  -1.213  0.00  0.00    -0.322 OA
ATOM     17  H   UNL     1      -6.402  -0.711  -1.081  0.00  0.00    +0.220 HD
ENDBRANCH  12  16
ENDBRANCH  11  12
ENDBRANCH  10  11
ENDBRANCH   4  10
BRANCH   5  18
ATOM     18  C   UNL     1       0.310   1.473   0.762  0.00  0.00    +0.074 C 
BRANCH  18  19
ATOM     19  CA  UNL     1       1.520   0.618   0.339  0.00  0.00    +0.165 C 
BRANCH  19  20
ATOM     20  N   UNL     1       2.602   1.343  -0.384  0.00  0.00    -0.318 NA
ATOM     21  H1  UNL     1       2.901   2.131   0.196  0.00  0.00    +0.119 HD
ATOM     22  H2  UNL     1       3.430   0.734  -0.414  0.00  0.00    +0.119 HD
ENDBRANCH  19  20
BRANCH  19  23
ATOM     23  C   UNL     1       1.038  -0.544  -0.530  0.00  0.00    +0.322 C 
ATOM     24  OXT UNL     1       0.367  -1.465  -0.121  0.00  0.00    -0.249 OA
BRANCH  23  25
ATOM     25  O   UNL     1       1.406  -0.394  -1.823  0.00  0.00    -0.480 OA
ATOM     26  H   UNL     1       1.891   0.463  -1.886  0.00  0.00    +0.295 HD
ENDBRANCH  23  25
ENDBRANCH  19  23
ENDBRANCH  18  19
ENDBRANCH   5  18
TORSDOF 11
