REMARK  Name = 
REMARK  8 active torsions:
REMARK  status: ('A' for Active; 'I' for Inactive)
REMARK    1  A    between atoms: C_2  and  C_3
REMARK    2  A    between atoms: C_2  and  C_5
REMARK    3  A    between atoms: C_2  and  C_9
REMARK    4  A    between atoms: C_3  and  S_4
REMARK    5  A    between atoms: C_5  and  C_6
REMARK    6  A    between atoms: C_6  and  C_7
REMARK    7  A    between atoms: C_6  and  C_8
REMARK    8  A    between atoms: C_9  and  O_10
REMARK                            x       y       z     vdW  Elec       q    Type
REMARK                         _______ _______ _______ _____ _____    ______ ____
ROOT
ATOM      1  C   UNL     1       1.635   0.032   0.015  0.00  0.00    +0.107 C 
ENDROOT
BRANCH   1   2
ATOM      2  C   UNL     1       2.331   1.372  -0.132  0.00  0.00    +0.309 C 
ATOM      3  O   UNL     1       3.535   1.504  -0.281  0.00  0.00    -0.251 OA
BRANCH   2   4
ATOM      4  O   UNL     1       1.491   2.430  -0.093  0.00  0.00    -0.480 OA
ATOM      5  H   UNL     1       0.546   2.201  -0.017  0.00  0.00    +0.295 HD
ENDBRANCH   2   4
ENDBRANCH   1   2
BRANCH   1   6
ATOM      6  C   UNL     1       1.855  -0.796  -1.258  0.00  0.00    +0.080 C 
BRANCH   6   7
ATOM      7  S   UNL     1       1.016  -0.079  -2.708  0.00  0.00    -0.177 S 
ATOM      8  H   UNL     1       1.959   0.836  -2.994  0.00  0.00    +0.102 HD
ENDBRANCH   6   7
ENDBRANCH   1   6
BRANCH   1   9
ATOM      9  C   UNL     1       2.214  -0.715   1.234  0.00  0.00    +0.018 C 
BRANCH   9  10
ATOM     10  C   UNL     1       1.996  -0.022   2.596  0.00  0.00    -0.016 C 
ATOM     11  C   UNL     1       2.690  -0.829   3.699  0.00  0.00    +0.007 C 
ATOM     12  C   UNL     1       0.514   0.148   2.934  0.00  0.00    +0.007 C 
ENDBRANCH   9  10
ENDBRANCH   1   9
TORSDOF 6
