REMARK  Name = 
REMARK  13 active torsions:
REMARK  status: ('A' for Active; 'I' for Inactive)
REMARK    1  A    between atoms: N_8  and  C_9
REMARK    2  A    between atoms: C_12  and  O_14
REMARK    3  A    between atoms: C_15  and  C_17
REMARK    4  A    between atoms: C_17  and  O_18
REMARK    5  A    between atoms: O_18  and  P_19
REMARK    6  A    between atoms: P_19  and  O_20
REMARK    7  A    between atoms: P_19  and  O_22
REMARK    8  A    between atoms: O_22  and  P_23
REMARK    9  A    between atoms: P_23  and  O_24
REMARK   10  A    between atoms: P_23  and  O_26
REMARK   11  A    between atoms: O_26  and  P_27
REMARK   12  A    between atoms: P_27  and  O_28
REMARK   13  A    between atoms: P_27  and  O_29
REMARK                            x       y       z     vdW  Elec       q    Type
REMARK                         _______ _______ _______ _____ _____    ______ ____
ROOT
ATOM      1  C   UNL     1       5.847 -13.561   6.164  0.00  0.00    +0.225 C 
ATOM      2  O   UNL     1       5.542 -12.392   5.372  0.00  0.00    -0.348 OA
ATOM      3  C   UNL     1       5.173 -11.342   6.298  0.00  0.00    +0.175 C 
ATOM      4  C   UNL     1       5.389 -11.901   7.713  0.00  0.00    +0.150 C 
ATOM      5  C   UNL     1       6.382 -13.013   7.469  0.00  0.00    +0.088 C 
ENDROOT
BRANCH   1  17
ATOM      6  N   UNL     1       5.648 -18.672   7.226  0.00  0.00    -0.329 N 
ATOM      7  H   UNL     1       5.457 -19.596   6.863  0.00  0.00    +0.145 HD
ATOM      8  H   UNL     1       4.842 -18.248   7.674  0.00  0.00    +0.145 HD
ATOM      9  C   UNL     1       6.317 -17.808   6.426  0.00  0.00    +0.195 A 
ATOM     10  N   UNL     1       7.239 -18.367   5.563  0.00  0.00    -0.293 N 
ATOM     11  H   UNL     1       7.421 -19.357   5.586  0.00  0.00    +0.172 HD
ATOM     12  C   UNL     1       8.029 -17.646   4.676  0.00  0.00    +0.280 A 
ATOM     13  O   UNL     1       8.848 -18.193   3.947  0.00  0.00    -0.265 OA
ATOM     14  C   UNL     1       7.759 -16.226   4.736  0.00  0.00    +0.172 A 
ATOM     15  N   UNL     1       8.298 -15.176   4.038  0.00  0.00    -0.229 NA
ATOM     16  C   UNL     1       7.664 -14.113   4.495  0.00  0.00    +0.203 A 
ATOM     17  N   UNL     1       6.747 -14.439   5.458  0.00  0.00    -0.288 N 
ATOM     18  C   UNL     1       6.803 -15.795   5.626  0.00  0.00    +0.171 A 
ATOM     19  N   UNL     1       6.061 -16.527   6.490  0.00  0.00    -0.196 NA
ENDBRANCH   1  17
BRANCH   4  20
ATOM     20  O   UNL     1       5.882 -10.964   8.652  0.00  0.00    -0.389 OA
ATOM     21  H   UNL     1       6.627 -10.475   8.264  0.00  0.00    +0.210 HD
ENDBRANCH   4  20
BRANCH   3  22
ATOM     22  C   UNL     1       3.726 -10.942   6.022  0.00  0.00    +0.206 C 
BRANCH  22  23
ATOM     23  O   UNL     1       3.284  -9.945   6.928  0.00  0.00    -0.284 OA
BRANCH  23  24
ATOM     24  P   UNL     1       1.632  -9.503   6.670  0.00  0.00    +0.483 P 
ATOM     25  O   UNL     1       1.822  -8.323   7.619  0.00  0.00    -0.227 OA
BRANCH  24  26
ATOM     26  O   UNL     1       1.168 -10.720   7.657  0.00  0.00    -0.302 OA
ATOM     27  H   UNL     1       1.173 -10.346   8.562  0.00  0.00    +0.222 HD
ENDBRANCH  24  26
BRANCH  24  28
ATOM     28  O   UNL     1      -0.021  -9.060   6.413  0.00  0.00    -0.186 OA
BRANCH  28  29
ATOM     29  P   UNL     1      -0.068  -7.927   5.106  0.00  0.00    +0.492 P 
ATOM     30  O   UNL     1      -1.530  -7.569   4.843  0.00  0.00    -0.226 OA
BRANCH  29  31
ATOM     31  O   UNL     1       0.015  -6.620   6.236  0.00  0.00    -0.302 OA
ATOM     32  H   UNL     1      -0.892  -6.533   6.595  0.00  0.00    +0.222 HD
ENDBRANCH  29  31
BRANCH  29  33
ATOM     33  O   UNL     1      -0.151  -9.234   3.976  0.00  0.00    -0.186 OA
BRANCH  33  34
ATOM     34  P   UNL     1       0.219  -8.650   2.390  0.00  0.00    +0.481 P 
ATOM     35  O   UNL     1       0.550  -8.126   0.971  0.00  0.00    -0.227 OA
BRANCH  34  36
ATOM     36  O   UNL     1       0.140 -10.225   1.956  0.00  0.00    -0.302 OA
ATOM     37  H   UNL     1      -0.112 -10.777   2.718  0.00  0.00    +0.222 HD
ENDBRANCH  34  36
BRANCH  34  38
ATOM     38  O   UNL     1       1.790  -8.700   2.849  0.00  0.00    -0.302 OA
ATOM     39  H   UNL     1       2.272  -8.799   1.994  0.00  0.00    +0.222 HD
ENDBRANCH  34  38
ENDBRANCH  33  34
ENDBRANCH  29  33
ENDBRANCH  28  29
ENDBRANCH  24  28
ENDBRANCH  23  24
ENDBRANCH  22  23
ENDBRANCH   3  22
TORSDOF 13
