REMARK  Name = 
REMARK  9 active torsions:
REMARK  status: ('A' for Active; 'I' for Inactive)
REMARK    1  A    between atoms: O_1  and  C_2
REMARK    2  A    between atoms: C_4  and  O_6
REMARK    3  A    between atoms: C_7  and  N_18
REMARK    4  A    between atoms: C_10  and  C_12
REMARK    5  A    between atoms: C_12  and  O_13
REMARK    6  A    between atoms: O_13  and  P_14
REMARK    7  A    between atoms: P_14  and  O_15
REMARK    8  A    between atoms: C_22  and  C_24
REMARK    9  A    between atoms: C_24  and  O_25
REMARK                            x       y       z     vdW  Elec       q    Type
REMARK                         _______ _______ _______ _____ _____    ______ ____
ROOT
ATOM      1  C   UNL     1       2.497  -0.066  -0.043  0.00  0.00    +0.183 C 
ATOM      2  C   UNL     1       3.098  -1.306   0.632  0.00  0.00    +0.182 C 
ATOM      3  O   UNL     1       4.306  -0.887   1.308  0.00  0.00    -0.309 OA
ATOM      4  C   UNL     1       4.451   0.530   1.127  0.00  0.00    +0.439 C 
ATOM      5  C   UNL     1       3.056   1.076   0.781  0.00  0.00    +0.244 C 
ENDROOT
BRANCH   4   6
ATOM      6  N   UNL     1       5.434   0.820   0.031  0.00  0.00    -0.173 N 
ATOM      7  C   UNL     1       6.005  -0.196  -0.669  0.00  0.00    +0.326 A 
ATOM      8  C   UNL     1       6.786   0.064  -1.791  0.00  0.00    +0.122 A 
ATOM      9  C   UNL     1       7.051   1.380  -2.156  0.00  0.00    +0.027 A 
ATOM     10  C   UNL     1       6.517   2.409  -1.386  0.00  0.00    +0.071 A 
ATOM     11  C   UNL     1       5.715   2.107  -0.287  0.00  0.00    +0.311 A 
BRANCH   8  12
ATOM     12  C   UNL     1       7.334  -1.103  -2.502  0.00  0.00    +0.343 C 
ATOM     13  O   UNL     1       7.604  -2.130  -1.906  0.00  0.00    -0.245 OA
BRANCH  12  14
ATOM     14  O   UNL     1       7.464  -0.948  -3.830  0.00  0.00    -0.477 OA
ATOM     15  H   UNL     1       7.057  -0.164  -4.243  0.00  0.00    +0.295 HD
ENDBRANCH  12  14
ENDBRANCH   8  12
ENDBRANCH   4   6
BRANCH   1  16
ATOM     16  O   UNL     1       3.041   0.054  -1.372  0.00  0.00    -0.386 OA
ATOM     17  H   UNL     1       2.603  -0.648  -1.896  0.00  0.00    +0.210 HD
ENDBRANCH   1  16
BRANCH   5  18
ATOM     18  O   UNL     1       2.321   1.330   1.978  0.00  0.00    -0.380 OA
ATOM     19  H   UNL     1       1.362   1.229   1.809  0.00  0.00    +0.210 HD
ENDBRANCH   5  18
BRANCH   2  20
ATOM     20  C   UNL     1       2.142  -1.978   1.602  0.00  0.00    +0.202 C 
BRANCH  20  21
ATOM     21  O   UNL     1       0.958  -2.261   0.884  0.00  0.00    -0.325 OA
BRANCH  21  22
ATOM     22  P   UNL     1      -0.109  -3.212   1.638  0.00  0.00    +0.210 P 
ATOM     23  O   UNL     1      -1.375  -3.195   0.836  0.00  0.00    -0.517 OA
ATOM     24  O   UNL     1      -0.047  -2.993   3.117  0.00  0.00    -0.437 OA
BRANCH  22  25
ATOM     25  O   UNL     1       0.547  -4.634   1.271  0.00  0.00    -0.344 OA
ATOM     26  H   UNL     1      -0.132  -5.033   0.695  0.00  0.00    +0.218 HD
ENDBRANCH  22  25
ENDBRANCH  21  22
ENDBRANCH  20  21
ENDBRANCH   2  20
TORSDOF 9
