REMARK  Name = 
REMARK  5 active torsions:
REMARK  status: ('A' for Active; 'I' for Inactive)
REMARK    1  A    between atoms: N_1  and  S_2
REMARK    2  A    between atoms: S_2  and  C_5
REMARK    3  A    between atoms: C_8  and  C_11
REMARK    4  A    between atoms: N_13  and  C_14
REMARK    5  A    between atoms: C_14  and  C_15
REMARK                            x       y       z     vdW  Elec       q    Type
REMARK                         _______ _______ _______ _____ _____    ______ ____
ROOT
ATOM      1  C   UNL     1       3.341   1.230   1.236  0.00  0.00    +0.105 A 
ATOM      2  C   UNL     1       4.215   0.817   2.244  0.00  0.00    +0.029 A 
ATOM      3  C   UNL     1       4.663   1.737   3.197  0.00  0.00    +0.015 A 
ATOM      4  C   UNL     1       4.234   3.072   3.151  0.00  0.00    +0.037 A 
ATOM      5  C   UNL     1       3.322   3.460   2.152  0.00  0.00    +0.015 A 
ATOM      6  C   UNL     1       2.873   2.544   1.196  0.00  0.00    +0.029 A 
ENDROOT
BRANCH   4   7
ATOM      7  C   UNL     1       4.747   4.133   4.076  0.00  0.00    +0.244 C 
ATOM      8  N   UNL     1       5.612   3.749   5.078  0.00  0.00    -0.307 N 
ATOM      9  H   UNL     1       5.772   2.779   5.292  0.00  0.00    +0.149 HD
ATOM     10  O   UNL     1       4.411   5.301   3.905  0.00  0.00    -0.270 OA
BRANCH   8  11
ATOM     11  C   UNL     1       6.204   4.709   5.982  0.00  0.00    +0.142 C 
BRANCH  11  12
ATOM     12  C   UNL     1       5.398   4.866   7.238  0.00  0.00    +0.005 A 
ATOM     13  C   UNL     1       5.630   4.043   8.341  0.00  0.00    +0.128 A 
ATOM     14  F   UNL     1       6.575   3.092   8.280  0.00  0.00    -0.205 F 
ATOM     15  C   UNL     1       4.897   4.183   9.517  0.00  0.00    +0.038 A 
ATOM     16  C   UNL     1       3.903   5.158   9.598  0.00  0.00    +0.003 A 
ATOM     17  C   UNL     1       3.644   5.977   8.499  0.00  0.00    +0.000 A 
ATOM     18  C   UNL     1       4.383   5.829   7.323  0.00  0.00    +0.008 A 
ENDBRANCH  11  12
ENDBRANCH   8  11
ENDBRANCH   4   7
BRANCH   1  19
ATOM     19  S   UNL     1       2.876   0.094  -0.038  0.00  0.00    +0.056 S 
ATOM     20  O   UNL     1       3.587  -1.149   0.150  0.00  0.00    -0.153 OA
ATOM     21  O   UNL     1       1.445   0.156  -0.218  0.00  0.00    -0.153 OA
BRANCH  19  22
ATOM     22  N   UNL     1       3.564   0.801  -1.395  0.00  0.00    -0.204 NA
ATOM     23  H   UNL     1       4.377   0.265  -1.698  0.00  0.00    +0.144 HD
ATOM     24  H   UNL     1       2.855   0.921  -2.118  0.00  0.00    +0.144 HD
ENDBRANCH  19  22
ENDBRANCH   1  19
TORSDOF 5
