REMARK  Name = 
REMARK  12 active torsions:
REMARK  status: ('A' for Active; 'I' for Inactive)
REMARK    1  A    between atoms: C_2  and  O_3
REMARK    2  A    between atoms: C_6  and  C_7
REMARK    3  A    between atoms: C_6  and  C_8
REMARK    4  A    between atoms: C_11  and  O_13
REMARK    5  A    between atoms: C_14  and  O_16
REMARK    6  A    between atoms: O_16  and  C_17
REMARK    7  A    between atoms: C_17  and  C_18
REMARK    8  A    between atoms: C_20  and  C_21
REMARK    9  A    between atoms: C_23  and  C_24
REMARK   10  A    between atoms: C_23  and  C_32
REMARK   11  A    between atoms: C_28  and  O_29
REMARK   12  A    between atoms: C_30  and  C_31
REMARK                            x       y       z     vdW  Elec       q    Type
REMARK                         _______ _______ _______ _____ _____    ______ ____
ROOT
ATOM      1  C   UNL     1      -0.000  -0.000   0.000  0.00  0.00    +0.124 C 
ATOM      2  C   UNL     1      -0.000  -0.000  -0.000  0.00  0.00    +0.038 C 
ATOM      3  C   UNL     1      -0.000  -0.000  -0.000  0.00  0.00    +0.017 C 
ATOM      4  C   UNL     1      -0.000  -0.000   0.000  0.00  0.00    +0.039 C 
ATOM      5  C   UNL     1      -0.000  -0.000   0.000  0.00  0.00    +0.162 C 
ATOM      6  C   UNL     1      -0.000  -0.000   0.000  0.00  0.00    +0.240 C 
ATOM      7  C   UNL     1      -0.000  -0.000   0.000  0.00  0.00    +0.143 C 
ATOM      8  C   UNL     1      -0.000  -0.000   0.000  0.00  0.00    +0.049 C 
ATOM      9  O   UNL     1      -0.000  -0.000  -0.000  0.00  0.00    -0.356 OA
ATOM     10  C   UNL     1       0.000  -0.000   0.000  0.00  0.00    +0.092 C 
ATOM     11  C   UNL     1      -0.000  -0.000   0.000  0.00  0.00    +0.046 C 
ATOM     12  C   UNL     1      -0.000  -0.000   0.000  0.00  0.00    +0.116 C 
ATOM     13  C   UNL     1      -0.000  -0.000   0.000  0.00  0.00    +0.171 C 
ATOM     14  O   UNL     1      -0.000  -0.000   0.000  0.00  0.00    -0.294 OA
ATOM     15  C   UNL     1      -0.000  -0.000   0.000  0.00  0.00    -0.029 C 
ATOM     16  C   UNL     1      -0.000  -0.000   0.000  0.00  0.00    +0.011 C 
ATOM     17  C   UNL     1      -0.000  -0.000   0.000  0.00  0.00    +0.011 C 
ATOM     18  C   UNL     1      -0.000  -0.000   0.000  0.00  0.00    +0.009 C 
ATOM     19  C   UNL     1      -0.000  -0.000  -0.000  0.00  0.00    +0.164 C 
ATOM     20  C   UNL     1      -0.000  -0.000   0.000  0.00  0.00    +0.032 C 
ENDROOT
BRANCH   1  21
ATOM     21  O   UNL     1      -0.000  -0.000   0.000  0.00  0.00    -0.391 OA
ATOM     22  H   UNL     1       0.000   0.000   0.000  0.00  0.00    +0.210 HD
ENDBRANCH   1  21
BRANCH   5  23
ATOM     23  O   UNL     1      -0.000  -0.000   0.000  0.00  0.00    -0.388 OA
ATOM     24  H   UNL     1       0.000   0.000   0.000  0.00  0.00    +0.210 HD
ENDBRANCH   5  23
BRANCH  10  25
ATOM     25  C   UNL     1      -0.000  -0.000  -0.000  0.00  0.00    -0.000 C 
ATOM     26  C   UNL     1      -0.000  -0.000  -0.000  0.00  0.00    +0.007 C 
ENDBRANCH  10  25
BRANCH  19  27
ATOM     27  O   UNL     1      -0.000  -0.000  -0.000  0.00  0.00    -0.377 OA
ATOM     28  H   UNL     1       0.000   0.000   0.000  0.00  0.00    +0.211 HD
ENDBRANCH  19  27
BRANCH   6  29
ATOM     29  O   UNL     1      -0.000  -0.000   0.000  0.00  0.00    -0.456 OA
BRANCH  29  30
ATOM     30  C   UNL     1      -0.000  -0.000   0.000  0.00  0.00    +0.304 C 
ATOM     31  O   UNL     1      -0.000  -0.000   0.000  0.00  0.00    -0.251 OA
ATOM     32  C   UNL     1      -0.000  -0.000   0.000  0.00  0.00    +0.136 C 
ENDBRANCH  29  30
ENDBRANCH   6  29
TORSDOF 6
