REMARK  Name = 
REMARK  5 active torsions:
REMARK  status: ('A' for Active; 'I' for Inactive)
REMARK    1  A    between atoms: C_1  and  C_2
REMARK    2  A    between atoms: C_5  and  S_13
REMARK    3  A    between atoms: CA_8  and  C_10
REMARK    4  A    between atoms: C_10  and  O_11
REMARK    5  A    between atoms: S_13  and  O_14
REMARK                            x       y       z     vdW  Elec       q    Type
REMARK                         _______ _______ _______ _____ _____    ______ ____
ROOT
ATOM      1  C   UNL     1       0.951  -0.023  -0.100  0.00  0.00    +0.010 C 
ATOM      2  C   UNL     1       2.472  -0.030  -0.036  0.00  0.00    +0.017 C 
ATOM      3  CA  UNL     1       3.038  -1.295   0.603  0.00  0.00    +0.168 C 
ATOM      4  N   UNL     1       4.309  -0.898   1.300  0.00  0.00    -0.281 NA
ATOM      5  H   UNL     1       4.176  -1.094   2.302  0.00  0.00    +0.125 HD
ATOM      6  C   UNL     1       4.419   0.602   1.184  0.00  0.00    +0.228 C 
ATOM      7  C   UNL     1       3.020   1.084   0.837  0.00  0.00    +0.050 C 
ENDROOT
BRANCH   6   8
ATOM      8  S   UNL     1       5.041   1.527   2.650  0.00  0.00    +0.096 S 
ATOM      9  O   UNL     1       4.280   1.142   3.819  0.00  0.00    -0.146 OA
ATOM     10  O   UNL     1       5.293   2.908   2.315  0.00  0.00    -0.146 OA
BRANCH   8  11
ATOM     11  O   UNL     1       6.482   0.810   2.793  0.00  0.00    -0.253 OA
ATOM     12  H   UNL     1       6.971   1.238   3.528  0.00  0.00    +0.245 HD
ENDBRANCH   8  11
ENDBRANCH   6   8
BRANCH   3  13
ATOM     13  C   UNL     1       3.360  -2.359  -0.456  0.00  0.00    +0.322 C 
ATOM     14  OXT UNL     1       2.543  -2.867  -1.208  0.00  0.00    -0.249 OA
BRANCH  13  15
ATOM     15  O   UNL     1       4.682  -2.669  -0.471  0.00  0.00    -0.480 OA
ATOM     16  H   UNL     1       5.104  -2.108   0.226  0.00  0.00    +0.295 HD
ENDBRANCH  13  15
ENDBRANCH   3  13
TORSDOF 4
