REMARK  Name = 
REMARK  1 active torsions:
REMARK  status: ('A' for Active; 'I' for Inactive)
REMARK    1  A    between atoms: C_2  and  C_14
REMARK                            x       y       z     vdW  Elec       q    Type
REMARK                         _______ _______ _______ _____ _____    ______ ____
ROOT
ATOM      1  C   UNL     1       2.116  -0.087   0.002  0.00  0.00    +0.118 C 
ATOM      2  N   UNL     1       2.663   1.231   0.384  0.00  0.00    -0.330 N 
ATOM      3  H   UNL     1       2.194   1.672   1.173  0.00  0.00    +0.147 HD
ATOM      4  C   UNL     1       4.063   1.182   0.662  0.00  0.00    +0.108 A 
ATOM      5  C   UNL     1       4.783   2.341   0.934  0.00  0.00    +0.144 A 
ATOM      6  N   UNL     1       6.103   2.357   1.162  0.00  0.00    -0.198 NA
ATOM      7  C   UNL     1       6.729   1.178   1.108  0.00  0.00    +0.216 A 
ATOM      8  N   UNL     1       6.139  -0.008   0.943  0.00  0.00    -0.198 NA
ATOM      9  N   UNL     1       8.100   1.182   1.268  0.00  0.00    -0.327 N 
ATOM     10  H   UNL     1       8.412   0.282   1.604  0.00  0.00    +0.145 HD
ATOM     11  H   UNL     1       8.390   2.005   1.775  0.00  0.00    +0.145 HD
ATOM     12  N   UNL     1       4.109   3.570   1.048  0.00  0.00    -0.341 N 
ATOM     13  H   UNL     1       4.811   4.299   1.124  0.00  0.00    +0.144 HD
ATOM     14  H   UNL     1       3.493   3.687   0.245  0.00  0.00    +0.144 HD
ATOM     15  C   UNL     1       4.818   0.004   0.718  0.00  0.00    +0.147 A 
ATOM     16  N   UNL     1       4.215  -1.249   0.529  0.00  0.00    -0.325 N 
ATOM     17  H   UNL     1       4.798  -1.985   0.911  0.00  0.00    +0.148 HD
ATOM     18  C   UNL     1       2.782  -1.241   0.804  0.00  0.00    +0.130 C 
ENDROOT
BRANCH   1  19
ATOM     19  C   UNL     1       0.603  -0.100   0.104  0.00  0.00    -0.026 A 
ATOM     20  C   UNL     1      -0.165  -0.311  -1.055  0.00  0.00    +0.005 A 
ATOM     21  C   UNL     1      -1.557  -0.388  -0.989  0.00  0.00    +0.000 A 
ATOM     22  C   UNL     1      -2.202  -0.246   0.236  0.00  0.00    +0.000 A 
ATOM     23  C   UNL     1      -1.457  -0.021   1.393  0.00  0.00    +0.000 A 
ATOM     24  C   UNL     1      -0.064   0.052   1.330  0.00  0.00    +0.005 A 
ENDBRANCH   1  19
TORSDOF 1
