REMARK  Name = 
REMARK  12 active torsions:
REMARK  status: ('A' for Active; 'I' for Inactive)
REMARK    1  A    between atoms: O_1  and  C_2
REMARK    2  A    between atoms: C_2  and  C_3
REMARK    3  A    between atoms: C_3  and  O_5
REMARK    4  A    between atoms: C_3  and  C_6
REMARK    5  A    between atoms: C_6  and  O_8
REMARK    6  A    between atoms: C_6  and  C_9
REMARK    7  A    between atoms: C_9  and  O_11
REMARK    8  A    between atoms: C_9  and  C_12
REMARK    9  A    between atoms: C_12  and  O_13
REMARK   10  A    between atoms: O_13  and  P_14
REMARK   11  A    between atoms: P_14  and  O_15
REMARK   12  A    between atoms: P_14  and  O_16
REMARK                            x       y       z     vdW  Elec       q    Type
REMARK                         _______ _______ _______ _____ _____    ______ ____
ROOT
ATOM      1  C   UNL     1       4.821   2.222  -1.811  0.00  0.00    +0.172 C 
ENDROOT
BRANCH   1   2
ATOM      2  O   UNL     1       4.278   3.498  -1.471  0.00  0.00    -0.387 OA
ATOM      3  H   UNL     1       3.314   3.433  -1.406  0.00  0.00    +0.210 HD
ENDBRANCH   1   2
BRANCH   1   4
ATOM      4  C   UNL     1       4.326   1.086  -0.886  0.00  0.00    +0.176 C 
BRANCH   4   5
ATOM      5  O   UNL     1       4.719   1.396   0.464  0.00  0.00    -0.387 OA
ATOM      6  H   UNL     1       5.399   0.756   0.738  0.00  0.00    +0.210 HD
ENDBRANCH   4   5
BRANCH   4   7
ATOM      7  C   UNL     1       2.801   0.863  -0.891  0.00  0.00    +0.171 C 
BRANCH   7   8
ATOM      8  O   UNL     1       2.502  -0.288  -0.073  0.00  0.00    -0.387 OA
ATOM      9  H   UNL     1       1.530  -0.383  -0.124  0.00  0.00    +0.210 HD
ENDBRANCH   7   8
BRANCH   7  10
ATOM     10  C   UNL     1       2.216   0.580  -2.277  0.00  0.00    +0.189 C 
BRANCH  10  11
ATOM     11  O   UNL     1       0.805   0.391  -2.138  0.00  0.00    -0.392 OA
ATOM     12  H   UNL     1       0.460   0.160  -3.018  0.00  0.00    +0.210 HD
ENDBRANCH  10  11
ENDBRANCH   7  10
ENDBRANCH   4   7
ENDBRANCH   1   4
BRANCH   1  13
ATOM     13  C   UNL     1       6.355   2.310  -1.721  0.00  0.00    +0.206 C 
BRANCH  13  14
ATOM     14  O   UNL     1       6.869   3.314  -2.602  0.00  0.00    -0.284 OA
BRANCH  14  15
ATOM     15  P   UNL     1       8.599   3.335  -2.575  0.00  0.00    +0.472 P 
ATOM     16  O   UNL     1      10.147   3.353  -2.552  0.00  0.00    -0.228 OA
BRANCH  15  17
ATOM     17  O   UNL     1       8.439   4.215  -1.205  0.00  0.00    -0.303 OA
ATOM     18  H   UNL     1       8.429   5.149  -1.486  0.00  0.00    +0.222 HD
ENDBRANCH  15  17
BRANCH  15  19
ATOM     19  O   UNL     1       8.457   4.642  -3.554  0.00  0.00    -0.303 OA
ATOM     20  H   UNL     1       8.304   4.382  -4.478  0.00  0.00    +0.222 HD
ENDBRANCH  15  19
ENDBRANCH  14  15
ENDBRANCH  13  14
ENDBRANCH   1  13
TORSDOF 12
