REMARK  Name = 
REMARK  11 active torsions:
REMARK  status: ('A' for Active; 'I' for Inactive)
REMARK    1  A    between atoms: O_1  and  C_2
REMARK    2  A    between atoms: C_2  and  C_4
REMARK    3  A    between atoms: C_2  and  C_10
REMARK    4  A    between atoms: C_4  and  O_5
REMARK    5  A    between atoms: O_5  and  P_6
REMARK    6  A    between atoms: P_6  and  O_7
REMARK    7  A    between atoms: P_6  and  O_8
REMARK    8  A    between atoms: C_13  and  O_15
REMARK    9  A    between atoms: C_16  and  O_18
REMARK   10  A    between atoms: C_19  and  O_21
REMARK   11  A    between atoms: C_22  and  O_24
REMARK                            x       y       z     vdW  Elec       q    Type
REMARK                         _______ _______ _______ _____ _____    ______ ____
ROOT
ATOM      1  C   UNL     1       2.942   1.263   0.746  0.00  0.00    +0.183 C 
ATOM      2  C   UNL     1       2.615   2.582   0.021  0.00  0.00    +0.177 C 
ATOM      3  C   UNL     1       3.267   2.594  -1.361  0.00  0.00    +0.179 C 
ATOM      4  C   UNL     1       4.749   2.237  -1.308  0.00  0.00    +0.201 C 
ATOM      5  C   UNL     1       4.921   0.930  -0.514  0.00  0.00    +0.279 C 
ATOM      6  O   UNL     1       4.364   1.032   0.783  0.00  0.00    -0.340 OA
ENDROOT
BRANCH   2   7
ATOM      7  O   UNL     1       1.204   2.706  -0.149  0.00  0.00    -0.386 OA
ATOM      8  H   UNL     1       1.086   3.485  -0.728  0.00  0.00    +0.210 HD
ENDBRANCH   2   7
BRANCH   3   9
ATOM      9  O   UNL     1       3.082   3.892  -1.957  0.00  0.00    -0.386 OA
ATOM     10  H   UNL     1       3.718   3.923  -2.703  0.00  0.00    +0.210 HD
ENDBRANCH   3   9
BRANCH   4  11
ATOM     11  O   UNL     1       5.194   2.151  -2.676  0.00  0.00    -0.384 OA
ATOM     12  H   UNL     1       5.592   1.273  -2.805  0.00  0.00    +0.210 HD
ENDBRANCH   4  11
BRANCH   5  13
ATOM     13  O   UNL     1       6.311   0.643  -0.375  0.00  0.00    -0.365 OA
ATOM     14  H   UNL     1       6.362  -0.171   0.125  0.00  0.00    +0.213 HD
ENDBRANCH   5  13
BRANCH   1  15
ATOM     15  C   UNL     1       2.411   1.256   2.197  0.00  0.00    +0.172 C 
BRANCH  15  16
ATOM     16  O   UNL     1       3.066   2.280   2.960  0.00  0.00    -0.387 OA
ATOM     17  H   UNL     1       4.025   2.146   2.850  0.00  0.00    +0.210 HD
ENDBRANCH  15  16
BRANCH  15  18
ATOM     18  C   UNL     1       2.670  -0.106   2.849  0.00  0.00    +0.206 C 
BRANCH  18  19
ATOM     19  O   UNL     1       2.030  -0.199   4.127  0.00  0.00    -0.284 OA
BRANCH  19  20
ATOM     20  P   UNL     1       2.279  -1.768   4.814  0.00  0.00    +0.472 P 
ATOM     21  O   UNL     1       2.502  -3.171   5.428  0.00  0.00    -0.228 OA
BRANCH  20  22
ATOM     22  O   UNL     1       0.971  -1.387   5.726  0.00  0.00    -0.303 OA
ATOM     23  H   UNL     1       0.207  -1.165   5.157  0.00  0.00    +0.222 HD
ENDBRANCH  20  22
BRANCH  20  24
ATOM     24  O   UNL     1       3.340  -0.966   5.760  0.00  0.00    -0.303 OA
ATOM     25  H   UNL     1       2.823  -0.365   6.308  0.00  0.00    +0.222 HD
ENDBRANCH  20  24
ENDBRANCH  19  20
ENDBRANCH  18  19
ENDBRANCH  15  18
ENDBRANCH   1  15
TORSDOF 11
