REMARK  Name = 
REMARK  13 active torsions:
REMARK  status: ('A' for Active; 'I' for Inactive)
REMARK    1  A    between atoms: C_1  and  C_2
REMARK    2  A    between atoms: N_4  and  C_5
REMARK    3  A    between atoms: C_5  and  C_7
REMARK    4  A    between atoms: C_5  and  B_15
REMARK    5  A    between atoms: C_7  and  C_8
REMARK    6  A    between atoms: B_15  and  O_16
REMARK    7  A    between atoms: B_15  and  O_17
REMARK    8  A    between atoms: B_15  and  O_18
REMARK    9  A    between atoms: O_18  and  C_19
REMARK   10  A    between atoms: C_19  and  C_20
REMARK   11  A    between atoms: C_20  and  N_22
REMARK   12  A    between atoms: C_20  and  C_23
REMARK   13  A    between atoms: C_23  and  O_24
REMARK                            x       y       z     vdW  Elec       q    Type
REMARK                         _______ _______ _______ _____ _____    ______ ____
ROOT
ATOM      1  B   UNK     1       9.120  -4.779  -1.095  0.00  0.00    +0.000 B 
ENDROOT
BRANCH   1   2
ATOM      2  O   UNK     1       9.156  -4.999   0.371  0.00  0.00    +0.000 OA
ATOM      3  H   UNK     1       8.342  -4.595   0.765  0.00  0.00    +0.000 HD
ENDBRANCH   1   2
BRANCH   1   4
ATOM      4  O   UNK     1       8.519  -3.452  -1.388  0.00  0.00    +0.000 OA
ATOM      5  H   UNK     1       7.593  -3.456  -1.035  0.00  0.00    +0.000 HD
ENDBRANCH   1   4
BRANCH   1   6
ATOM      6  C   UNK     1       8.257  -5.974  -1.816  0.00  0.00    +0.000 C 
BRANCH   6   9
ATOM      7  C   UNK     1       4.650  -5.828  -0.413  0.00  0.00    +0.000 C 
ATOM      8  C   UNK     1       6.135  -6.054  -0.438  0.00  0.00    +0.000 C 
ATOM      9  N   UNK     1       6.814  -5.854  -1.602  0.00  0.00    +0.000 N 
ATOM     10  H   UNK     1       6.254  -5.596  -2.428  0.00  0.00    +0.000 HD
ATOM     11  O   UNK     1       6.709  -6.415   0.578  0.00  0.00    +0.000 OA
ENDBRANCH   6   9
BRANCH   6  12
ATOM     12  C   UNK     1       8.820  -7.374  -1.474  0.00  0.00    +0.000 C 
BRANCH  12  13
ATOM     13  C   UNK     1       7.990  -8.434  -2.135  0.00  0.00    +0.000 A 
ATOM     14  C   UNK     1       7.264  -9.338  -1.347  0.00  0.00    +0.000 A 
ATOM     15  C   UNK     1       6.414 -10.268  -1.947  0.00  0.00    +0.000 A 
ATOM     16  C   UNK     1       6.299 -10.316  -3.339  0.00  0.00    +0.000 A 
ATOM     17 CL   UNK     1       5.198 -11.458  -4.085  0.00  0.00    +0.000 Cl
ATOM     18  C   UNK     1       7.046  -9.440  -4.134  0.00  0.00    +0.000 A 
ATOM     19  C   UNK     1       7.893  -8.504  -3.537  0.00  0.00    +0.000 A 
ENDBRANCH  12  13
ENDBRANCH   6  12
ENDBRANCH   1   6
BRANCH   1  20
ATOM     20  O   UNK     1      10.546  -4.798  -1.568  0.00  0.00    +0.000 OA
BRANCH  20  21
ATOM     21  C   UNK     1      10.688  -4.496  -2.945  0.00  0.00    +0.000 C 
BRANCH  21  22
ATOM     22  C   UNK     1      12.170  -4.441  -3.327  0.00  0.00    +0.000 C 
BRANCH  22  23
ATOM     23  N   UNK     1      12.824  -5.710  -3.004  0.00  0.00    +0.000 NA
ATOM     24  H   UNK     1      12.355  -6.486  -3.528  0.00  0.00    +0.000 HD
ATOM     25  H   UNK     1      13.818  -5.675  -3.326  0.00  0.00    +0.000 HD
ENDBRANCH  22  23
BRANCH  22  26
ATOM     26  C   UNK     1      12.872  -3.304  -2.627  0.00  0.00    +0.000 C 
ATOM     27  O   UNK     1      12.945  -3.284  -1.409  0.00  0.00    +0.000 OA
BRANCH  26  28
ATOM     28  O   UNK     1      13.425  -2.297  -3.336  0.00  0.00    +0.000 OA
ATOM     29  H   UNK     1      13.383  -2.269  -4.301  0.00  0.00    +0.000 HD
ENDBRANCH  26  28
ENDBRANCH  22  26
ENDBRANCH  21  22
ENDBRANCH  20  21
ENDBRANCH   1  20
TORSDOF 12
