REMARK  Name = 
REMARK  17 active torsions:
REMARK  status: ('A' for Active; 'I' for Inactive)
REMARK    1  A    between atoms: C_2  and  C_3
REMARK    2  A    between atoms: C_2  and  C_7
REMARK    3  A    between atoms: C_2  and  C_11
REMARK    4  A    between atoms: C_3  and  C_4
REMARK    5  A    between atoms: C_4  and  C_5
REMARK    6  A    between atoms: C_5  and  O_6
REMARK    7  A    between atoms: N_9  and  O_10
REMARK    8  A    between atoms: C_11  and  C_13
REMARK    9  A    between atoms: C_11  and  C_17
REMARK   10  A    between atoms: C_13  and  C_14
REMARK   11  A    between atoms: C_14  and  C_15
REMARK   12  A    between atoms: C_14  and  C_16
REMARK   13  A    between atoms: N_19  and  C_20
REMARK   14  A    between atoms: N_26  and  C_27
REMARK   15  A    between atoms: C_27  and  C_28
REMARK   16  A    between atoms: C_28  and  O_29
REMARK   17  A    between atoms: O_29  and  C_30
REMARK                            x       y       z     vdW  Elec       q    Type
REMARK                         _______ _______ _______ _____ _____    ______ ____
ROOT
ATOM      1  C   UNL     1       2.737  -1.157   0.691  0.00  0.00    +0.087 C 
ENDROOT
BRANCH   1   2
ATOM      2  C   UNL     1       4.271  -1.214   0.781  0.00  0.00    +0.217 C 
ATOM      3  N   UNL     1       4.884  -2.398   1.087  0.00  0.00    -0.304 N 
ATOM      4  H   UNL     1       4.387  -3.272   1.203  0.00  0.00    +0.149 HD
ATOM      5  O   UNL     1       4.959  -0.201   0.666  0.00  0.00    -0.275 OA
BRANCH   3   6
ATOM      6  C   UNL     1       6.341  -2.440   1.229  0.00  0.00    +0.159 C 
ATOM      7  C   UNL     1       6.940  -3.711   0.616  0.00  0.00    +0.236 C 
ATOM      8  O   UNL     1       6.361  -4.793   0.649  0.00  0.00    -0.274 OA
ATOM      9  N   UNL     1       8.300  -3.562   0.378  0.00  0.00    -0.298 N 
ATOM     10  C   UNL     1       9.233  -4.094   1.348  0.00  0.00    +0.108 C 
ATOM     11  C   UNL     1       8.774  -3.870   2.794  0.00  0.00    +0.019 C 
ATOM     12  C   UNL     1       8.199  -2.469   3.057  0.00  0.00    +0.004 C 
ATOM     13  C   UNL     1       6.706  -2.337   2.719  0.00  0.00    +0.032 C 
BRANCH   9  14
ATOM     14  C   UNL     1       8.792  -2.867  -0.814  0.00  0.00    +0.136 C 
BRANCH  14  15
ATOM     15  C   UNL     1       9.573  -3.780  -1.767  0.00  0.00    +0.178 C 
BRANCH  15  16
ATOM     16  O   UNL     1       8.695  -4.767  -2.307  0.00  0.00    -0.381 OA
ATOM     17  C   UNL     1       9.379  -5.684  -3.148  0.00  0.00    +0.194 C 
ENDBRANCH  15  16
ENDBRANCH  14  15
ENDBRANCH   9  14
ENDBRANCH   3   6
ENDBRANCH   1   2
BRANCH   1  18
ATOM     18  C   UNL     1       2.299   0.059  -0.196  0.00  0.00    +0.089 C 
BRANCH  18  19
ATOM     19  C   UNL     1       0.784   0.139  -0.324  0.00  0.00    +0.239 C 
ATOM     20  N   UNL     1       0.340   0.466  -1.584  0.00  0.00    -0.197 N 
ATOM     21  H   UNL     1       0.870   0.233  -2.416  0.00  0.00    +0.182 HD
ATOM     22  O   UNL     1       0.008   0.003   0.621  0.00  0.00    -0.273 OA
BRANCH  20  23
ATOM     23  O   UNL     1      -1.069   0.477  -1.734  0.00  0.00    -0.295 OA
ATOM     24  H   UNL     1      -1.380   0.320  -0.814  0.00  0.00    +0.241 HD
ENDBRANCH  20  23
ENDBRANCH  18  19
BRANCH  18  25
ATOM     25  C   UNL     1       2.772   1.489   0.232  0.00  0.00    +0.016 C 
BRANCH  25  26
ATOM     26  C   UNL     1       2.360   1.929   1.640  0.00  0.00    +0.028 C 
BRANCH  26  27
ATOM     27  C   UNL     1       3.047   3.227   2.060  0.00  0.00    +0.156 C 
BRANCH  27  28
ATOM     28  O   UNL     1       2.544   3.651   3.322  0.00  0.00    -0.395 OA
ATOM     29  H   UNL     1       1.578   3.748   3.236  0.00  0.00    +0.209 HD
ENDBRANCH  27  28
ENDBRANCH  26  27
ENDBRANCH  25  26
ENDBRANCH  18  25
ENDBRANCH   1  18
BRANCH   1  30
ATOM     30  C   UNL     1       2.042  -2.499   0.310  0.00  0.00    +0.016 C 
BRANCH  30  31
ATOM     31  C   UNL     1       2.142  -3.052  -1.131  0.00  0.00    -0.016 C 
ATOM     32  C   UNL     1       1.253  -4.303  -1.242  0.00  0.00    +0.007 C 
ATOM     33  C   UNL     1       3.553  -3.436  -1.569  0.00  0.00    +0.007 C 
ENDBRANCH  30  31
ENDBRANCH   1  30
TORSDOF 14
