REMARK  Name = 
REMARK  6 active torsions:
REMARK  status: ('A' for Active; 'I' for Inactive)
REMARK    1  A    between atoms: C_1  and  C_2
REMARK    2  A    between atoms: N_4  and  C_5
REMARK    3  A    between atoms: C_7  and  O_9
REMARK    4  A    between atoms: C_10  and  O_12
REMARK    5  A    between atoms: C_13  and  C_15
REMARK    6  A    between atoms: C_15  and  O_16
REMARK                            x       y       z     vdW  Elec       q    Type
REMARK                         _______ _______ _______ _____ _____    ______ ____
ROOT
ATOM      1  C   UNL     1       4.626  -0.674  -1.194  0.00  0.00    +0.213 C 
ATOM      2  C   UNL     1       4.571   0.495  -0.207  0.00  0.00    +0.331 C 
ATOM      3  O   UNL     1       4.490   0.294   1.006  0.00  0.00    -0.249 OA
ATOM      4  O   UNL     1       4.524   1.756  -0.689  0.00  0.00    -0.455 OA
ATOM      5  C   UNL     1       5.120   2.079  -1.963  0.00  0.00    +0.233 C 
ATOM      6  C   UNL     1       4.706   1.075  -3.023  0.00  0.00    +0.188 C 
ATOM      7  C   UNL     1       5.164  -0.310  -2.582  0.00  0.00    +0.178 C 
ENDROOT
BRANCH   1  10
ATOM      8  C   UNL     1       6.323  -3.953  -0.195  0.00  0.00    +0.109 C 
ATOM      9  C   UNL     1       5.537  -3.004  -1.054  0.00  0.00    +0.211 C 
ATOM     10  N   UNL     1       5.428  -1.735  -0.544  0.00  0.00    -0.301 N 
ATOM     11  H   UNL     1       5.600  -1.615   0.454  0.00  0.00    +0.150 HD
ATOM     12  O   UNL     1       5.069  -3.326  -2.141  0.00  0.00    -0.276 OA
ENDBRANCH   1  10
BRANCH   6  13
ATOM     13  O   UNL     1       5.322   1.373  -4.279  0.00  0.00    -0.385 OA
ATOM     14  H   UNL     1       5.105   0.607  -4.851  0.00  0.00    +0.210 HD
ENDBRANCH   6  13
BRANCH   7  15
ATOM     15  O   UNL     1       4.692  -1.211  -3.602  0.00  0.00    -0.387 OA
ATOM     16  H   UNL     1       4.839  -2.129  -3.272  0.00  0.00    +0.210 HD
ENDBRANCH   7  15
BRANCH   5  17
ATOM     17  C   UNL     1       4.707   3.511  -2.322  0.00  0.00    +0.203 C 
BRANCH  17  18
ATOM     18  O   UNL     1       3.290   3.625  -2.434  0.00  0.00    -0.391 OA
ATOM     19  H   UNL     1       2.927   3.458  -1.545  0.00  0.00    +0.210 HD
ENDBRANCH  17  18
ENDBRANCH   5  17
TORSDOF 5
