REMARK  Name = 
REMARK  11 active torsions:
REMARK  status: ('A' for Active; 'I' for Inactive)
REMARK    1  A    between atoms: C_1  and  C_2
REMARK    2  A    between atoms: C_2  and  O_3
REMARK    3  A    between atoms: O_3  and  C_4
REMARK    4  A    between atoms: C_6  and  O_7
REMARK    5  A    between atoms: O_7  and  C_8
REMARK    6  A    between atoms: C_11  and  C_12
REMARK    7  A    between atoms: C_14  and  C_37
REMARK    8  A    between atoms: C_16  and  C_30
REMARK    9  A    between atoms: N_24  and  C_25
REMARK   10  A    between atoms: C_25  and  C_26
REMARK   11  A    between atoms: C_26  and  O_27
REMARK                            x       y       z     vdW  Elec       q    Type
REMARK                         _______ _______ _______ _____ _____    ______ ____
ROOT
ATOM      1  C   UNL     1       3.886  -3.950  -0.044  0.00  0.00    +0.328 C 
ATOM      2  N   UNL     1       4.196  -5.339   0.113  0.00  0.00    -0.128 N 
ATOM      3  C   UNL     1       5.145  -5.944   0.957  0.00  0.00    +0.397 C 
ATOM      4  N   UNL     1       5.246  -7.351   1.037  0.00  0.00    -0.263 N 
ATOM      5  C   UNL     1       5.878  -7.903   2.251  0.00  0.00    +0.127 C 
ATOM      6  C   UNL     1       6.371  -9.371   2.104  0.00  0.00    +0.103 C 
ATOM      7  N   UNL     1       5.421 -10.332   1.478  0.00  0.00    -0.297 NA
ATOM      8  C   UNL     1       5.032  -9.751   0.191  0.00  0.00    +0.103 C 
ATOM      9  C   UNL     1       4.453  -8.345   0.314  0.00  0.00    +0.127 C 
ATOM     10  O   UNL     1       5.890  -5.253   1.661  0.00  0.00    -0.223 OA
ATOM     11  C   UNL     1       3.080  -5.983  -0.546  0.00  0.00    +0.261 C 
ATOM     12  C   UNL     1       1.934  -4.982  -0.366  0.00  0.00    +0.303 C 
ATOM     13  N   UNL     1       2.647  -3.698  -0.373  0.00  0.00    -0.069 NA
ENDROOT
BRANCH  11  14
ATOM     14  C   UNL     1       3.343  -6.334  -2.017  0.00  0.00    +0.000 A 
ATOM     15  C   UNL     1       2.337  -7.002  -2.735  0.00  0.00    +0.009 A 
ATOM     16  C   UNL     1       2.527  -7.358  -4.070  0.00  0.00    +0.015 A 
ATOM     17  C   UNL     1       3.735  -7.068  -4.698  0.00  0.00    +0.018 A 
ATOM     18 BR   UNL     1       3.959  -7.478  -6.528  0.00  0.00    -0.050 Br
ATOM     19  C   UNL     1       4.771  -6.469  -3.989  0.00  0.00    +0.015 A 
ATOM     20  C   UNL     1       4.578  -6.106  -2.653  0.00  0.00    +0.009 A 
ENDBRANCH  11  14
BRANCH  12  21
ATOM     21  C   UNL     1       1.141  -5.268   0.914  0.00  0.00    +0.005 A 
ATOM     22  C   UNL     1       0.567  -6.536   1.134  0.00  0.00    +0.009 A 
ATOM     23  C   UNL     1      -0.118  -6.831   2.316  0.00  0.00    +0.016 A 
ATOM     24  C   UNL     1      -0.270  -5.842   3.282  0.00  0.00    +0.018 A 
ATOM     25 BR   UNL     1      -1.213  -6.226   4.874  0.00  0.00    -0.050 Br
ATOM     26  C   UNL     1       0.263  -4.573   3.078  0.00  0.00    +0.016 A 
ATOM     27  C   UNL     1       0.962  -4.284   1.905  0.00  0.00    +0.009 A 
ENDBRANCH  12  21
BRANCH   1  29
ATOM     28  C   UNL     1       4.424  -1.486   0.167  0.00  0.00    +0.139 A 
ATOM     29  C   UNL     1       4.873  -2.823   0.021  0.00  0.00    +0.107 A 
ATOM     30  C   UNL     1       6.227  -3.033  -0.272  0.00  0.00    +0.023 A 
ATOM     31  C   UNL     1       7.116  -1.950  -0.376  0.00  0.00    +0.047 A 
ATOM     32  C   UNL     1       6.672  -0.637  -0.204  0.00  0.00    +0.124 A 
ATOM     33  C   UNL     1       5.331  -0.415   0.087  0.00  0.00    +0.092 A 
BRANCH  32  34
ATOM     34  O   UNL     1       7.628   0.330  -0.355  0.00  0.00    -0.495 OA
ATOM     35  C   UNL     1       7.192   1.684  -0.264  0.00  0.00    +0.277 C 
ENDBRANCH  32  34
BRANCH  28  36
ATOM     36  O   UNL     1       3.095  -1.245   0.432  0.00  0.00    -0.491 OA
BRANCH  36  38
ATOM     37  C   UNL     1       1.076  -0.381  -0.550  0.00  0.00    +0.048 C 
ATOM     38  C   UNL     1       2.527  -0.093  -0.200  0.00  0.00    +0.226 C 
ENDBRANCH  36  38
ENDBRANCH  28  36
ENDBRANCH   1  29
BRANCH   7  39
ATOM     39  C   UNL     1       4.275 -10.629   2.369  0.00  0.00    +0.112 C 
BRANCH  39  40
ATOM     40  C   UNL     1       3.231 -11.594   1.764  0.00  0.00    +0.171 C 
BRANCH  40  41
ATOM     41  O   UNL     1       3.848 -12.769   1.253  0.00  0.00    -0.394 OA
ATOM     42  H   UNL     1       4.680 -12.474   0.833  0.00  0.00    +0.209 HD
ENDBRANCH  40  41
ENDBRANCH  39  40
ENDBRANCH   7  39
TORSDOF 9
