REMARK  Name = 
REMARK  17 active torsions:
REMARK  status: ('A' for Active; 'I' for Inactive)
REMARK    1  A    between atoms: O_1  and  C_2
REMARK    2  A    between atoms: C_2  and  C_3
REMARK    3  A    between atoms: C_3  and  O_5
REMARK    4  A    between atoms: C_3  and  C_6
REMARK    5  A    between atoms: C_6  and  O_8
REMARK    6  A    between atoms: C_6  and  C_9
REMARK    7  A    between atoms: C_9  and  O_11
REMARK    8  A    between atoms: C_9  and  C_12
REMARK    9  A    between atoms: C_12  and  N_13
REMARK   10  A    between atoms: N_16  and  C_17
REMARK   11  A    between atoms: C_17  and  C_18
REMARK   12  A    between atoms: C_18  and  C_19
REMARK   13  A    between atoms: C_19  and  C_20
REMARK   14  A    between atoms: C_20  and  O_21
REMARK   15  A    between atoms: O_21  and  P_22
REMARK   16  A    between atoms: P_22  and  O_23
REMARK   17  A    between atoms: P_22  and  O_24
REMARK                            x       y       z     vdW  Elec       q    Type
REMARK                         _______ _______ _______ _____ _____    ______ ____
ROOT
ATOM      1  N   UNL     1       6.802   4.239   0.365  0.00  0.00    -0.275 N 
ATOM      2  C   UNL     1       6.154   5.429   0.198  0.00  0.00    +0.149 A 
ATOM      3  N   UNL     1       4.903   5.625  -0.285  0.00  0.00    -0.292 N 
ATOM      4  H   UNL     1       4.386   4.831  -0.655  0.00  0.00    +0.172 HD
ATOM      5  C   UNL     1       4.367   6.870  -0.433  0.00  0.00    +0.328 A 
ATOM      6  N   UNL     1       5.166   7.915  -0.027  0.00  0.00    -0.273 N 
ATOM      7  H   UNL     1       4.798   8.843  -0.174  0.00  0.00    +0.173 HD
ATOM      8  C   UNL     1       6.467   7.816   0.414  0.00  0.00    +0.280 A 
ATOM      9  O   UNL     1       7.156   8.803   0.625  0.00  0.00    -0.265 OA
ATOM     10  O   UNL     1       3.258   7.060  -0.919  0.00  0.00    -0.247 OA
ATOM     11  C   UNL     1       6.950   6.432   0.572  0.00  0.00    +0.152 A 
ATOM     12  N   UNL     1       8.149   5.919   1.016  0.00  0.00    -0.286 N 
ATOM     13  C   UNL     1       8.098   4.509   0.870  0.00  0.00    +0.331 A 
ATOM     14  O   UNL     1       8.979   3.701   1.115  0.00  0.00    -0.246 OA
ENDROOT
BRANCH  12  15
ATOM     15  C   UNL     1       9.328   6.612   1.470  0.00  0.00    +0.127 C 
BRANCH  15  16
ATOM     16  C   UNL     1       9.147   7.503   2.695  0.00  0.00    +0.024 C 
BRANCH  16  17
ATOM     17  C   UNL     1       8.525   6.822   3.909  0.00  0.00    +0.030 C 
BRANCH  17  18
ATOM     18  C   UNL     1       8.347   7.859   5.009  0.00  0.00    +0.172 C 
BRANCH  18  19
ATOM     19  O   UNL     1       7.727   7.265   6.137  0.00  0.00    -0.287 OA
BRANCH  19  20
ATOM     20  P   UNL     1       7.492   8.418   7.405  0.00  0.00    +0.472 P 
ATOM     21  O   UNL     1       7.282   9.450   8.540  0.00  0.00    -0.228 OA
BRANCH  20  22
ATOM     22  O   UNL     1       6.448   7.301   7.992  0.00  0.00    -0.303 OA
ATOM     23  H   UNL     1       5.768   7.102   7.323  0.00  0.00    +0.222 HD
ENDBRANCH  20  22
BRANCH  20  24
ATOM     24  O   UNL     1       8.821   7.700   8.032  0.00  0.00    -0.303 OA
ATOM     25  H   UNL     1       8.559   6.786   8.252  0.00  0.00    +0.222 HD
ENDBRANCH  20  24
ENDBRANCH  19  20
ENDBRANCH  18  19
ENDBRANCH  17  18
ENDBRANCH  16  17
ENDBRANCH  15  16
ENDBRANCH  12  15
BRANCH   1  26
ATOM     26  C   UNL     1       6.294   2.905   0.123  0.00  0.00    +0.162 C 
BRANCH  26  27
ATOM     27  C   UNL     1       6.052   2.581  -1.361  0.00  0.00    +0.165 C 
BRANCH  27  28
ATOM     28  O   UNL     1       5.036   3.473  -1.887  0.00  0.00    -0.387 OA
ATOM     29  H   UNL     1       5.126   3.444  -2.857  0.00  0.00    +0.210 HD
ENDBRANCH  27  28
BRANCH  27  30
ATOM     30  C   UNL     1       5.532   1.151  -1.631  0.00  0.00    +0.175 C 
BRANCH  30  31
ATOM     31  O   UNL     1       5.484   0.970  -3.060  0.00  0.00    -0.387 OA
ATOM     32  H   UNL     1       4.643   1.356  -3.363  0.00  0.00    +0.210 HD
ENDBRANCH  30  31
BRANCH  30  33
ATOM     33  C   UNL     1       6.300  -0.022  -1.004  0.00  0.00    +0.171 C 
BRANCH  33  34
ATOM     34  O   UNL     1       6.263   0.049   0.425  0.00  0.00    -0.387 OA
ATOM     35  H   UNL     1       6.938  -0.597   0.723  0.00  0.00    +0.210 HD
ENDBRANCH  33  34
BRANCH  33  36
ATOM     36  C   UNL     1       7.751  -0.160  -1.471  0.00  0.00    +0.189 C 
BRANCH  36  37
ATOM     37  O   UNL     1       8.323  -1.271  -0.770  0.00  0.00    -0.392 OA
ATOM     38  H   UNL     1       9.201  -1.432  -1.160  0.00  0.00    +0.210 HD
ENDBRANCH  36  37
ENDBRANCH  33  36
ENDBRANCH  30  33
ENDBRANCH  27  30
ENDBRANCH  26  27
ENDBRANCH   1  26
TORSDOF 17
