REMARK  Name = 
REMARK  9 active torsions:
REMARK  status: ('A' for Active; 'I' for Inactive)
REMARK    1  A    between atoms: C_2  and  C_3
REMARK    2  A    between atoms: C_2  and  N_13
REMARK    3  A    between atoms: C_2  and  B_17
REMARK    4  A    between atoms: C_3  and  C_4
REMARK    5  A    between atoms: C_8  and  C_10
REMARK    6  A    between atoms: C_10  and  O_11
REMARK    7  A    between atoms: C_14  and  C_15
REMARK    8  A    between atoms: B_17  and  O_18
REMARK    9  A    between atoms: B_17  and  O_19
REMARK                            x       y       z     vdW  Elec       q    Type
REMARK                         _______ _______ _______ _____ _____    ______ ____
ROOT
ATOM      1  C   UNL     1       2.112   0.030  -0.113  0.00  0.00    +0.000 C 
ENDROOT
BRANCH   1   2
ATOM      2  N   UNL     1       2.634  -0.939  -1.073  0.00  0.00    +0.000 N 
ATOM      3  H   UNL     1       3.656  -1.008  -1.192  0.00  0.00    +0.000 HD
ATOM      4  C   UNL     1       1.833  -1.723  -1.852  0.00  0.00    +0.000 C 
ATOM      5  O   UNL     1       0.615  -1.674  -1.751  0.00  0.00    +0.000 OA
ATOM      6  C   UNL     1       2.428  -2.648  -2.877  0.00  0.00    +0.000 C 
ENDBRANCH   1   2
BRANCH   1   7
ATOM      7  B   UNL     1       2.539   1.509  -0.628  0.00  0.00    +0.000 B 
BRANCH   7   8
ATOM      8  O   UNL     1       1.504   2.491  -0.964  0.00  0.00    +0.000 OA
ATOM      9  H   UNL     1       0.719   1.975  -1.279  0.00  0.00    +0.000 HD
ENDBRANCH   7   8
BRANCH   7  10
ATOM     10  O   UNL     1       3.943   1.928  -0.684  0.00  0.00    +0.000 OA
ATOM     11  H   UNL     1       4.491   1.106  -0.683  0.00  0.00    +0.000 HD
ENDBRANCH   7  10
ENDBRANCH   1   7
BRANCH   1  12
ATOM     12  C   UNL     1       2.640  -0.285   1.311  0.00  0.00    +0.000 C 
BRANCH  12  13
ATOM     13  C   UNL     1       2.148   0.618   2.441  0.00  0.00    +0.000 A 
ATOM     14  C   UNL     1       2.671   0.424   3.735  0.00  0.00    +0.000 A 
ATOM     15  C   UNL     1       2.282   1.247   4.817  0.00  0.00    +0.000 A 
ATOM     16  C   UNL     1       1.355   2.276   4.578  0.00  0.00    +0.000 A 
ATOM     17  C   UNL     1       0.817   2.462   3.309  0.00  0.00    +0.000 A 
ATOM     18  C   UNL     1       1.199   1.644   2.256  0.00  0.00    +0.000 A 
BRANCH  15  19
ATOM     19  C   UNL     1       2.863   1.020   6.177  0.00  0.00    +0.000 C 
ATOM     20  O   UNL     1       3.632   0.089   6.355  0.00  0.00    +0.000 OA
BRANCH  19  21
ATOM     21  O   UNL     1       2.567   1.809   7.237  0.00  0.00    +0.000 OA
ATOM     22  H   UNL     1       1.988   2.580   7.206  0.00  0.00    +0.000 HD
ENDBRANCH  19  21
ENDBRANCH  15  19
ENDBRANCH  12  13
ENDBRANCH   1  12
TORSDOF 8
