REMARK  Name = 
REMARK  7 active torsions:
REMARK  status: ('A' for Active; 'I' for Inactive)
REMARK    1  A    between atoms: N_9  and  C_10
REMARK    2  A    between atoms: C_13  and  O_15
REMARK    3  A    between atoms: C_16  and  C_18
REMARK    4  A    between atoms: C_18  and  O_19
REMARK    5  A    between atoms: O_19  and  P_20
REMARK    6  A    between atoms: P_20  and  O_21
REMARK    7  A    between atoms: P_20  and  O_22
REMARK                            x       y       z     vdW  Elec       q    Type
REMARK                         _______ _______ _______ _____ _____    ______ ____
ROOT
ATOM      1  N   UNL     1       9.491   2.083   2.582  0.00  0.00    -0.329 N 
ATOM      2  H   UNL     1       9.941   1.442   3.220  0.00  0.00    +0.145 HD
ATOM      3  H   UNL     1       9.219   2.961   3.015  0.00  0.00    +0.145 HD
ATOM      4  C   UNL     1       8.555   1.600   1.732  0.00  0.00    +0.195 A 
ATOM      5  N   UNL     1       8.687   0.293   1.338  0.00  0.00    -0.294 N 
ATOM      6  H   UNL     1       9.470  -0.257   1.654  0.00  0.00    +0.172 HD
ATOM      7  C   UNL     1       7.823  -0.326   0.465  0.00  0.00    +0.278 A 
ATOM      8  O   UNL     1       7.937  -1.489   0.104  0.00  0.00    -0.265 OA
ATOM      9  C   UNL     1       6.745   0.550   0.018  0.00  0.00    +0.151 A 
ATOM     10  N   UNL     1       5.706   0.302  -0.826  0.00  0.00    -0.300 N 
ATOM     11  H   UNL     1       5.516  -0.566  -1.305  0.00  0.00    +0.171 HD
ATOM     12  C   UNL     1       4.936   1.475  -0.913  0.00  0.00    +0.331 A 
ATOM     13  N   UNL     1       5.583   2.409  -0.063  0.00  0.00    -0.250 N 
ATOM     14  O   UNL     1       3.919   1.620  -1.569  0.00  0.00    -0.246 OA
ATOM     15  C   UNL     1       6.699   1.805   0.472  0.00  0.00    +0.172 A 
ATOM     16  N   UNL     1       7.587   2.369   1.333  0.00  0.00    -0.196 NA
ENDROOT
BRANCH  13  17
ATOM     17  C   UNL     1       5.096   3.742   0.125  0.00  0.00    +0.228 C 
ATOM     18  O   UNL     1       5.683   4.639  -0.841  0.00  0.00    -0.348 OA
ATOM     19  C   UNL     1       5.689   5.964  -0.261  0.00  0.00    +0.175 C 
ATOM     20  C   UNL     1       5.085   5.843   1.144  0.00  0.00    +0.150 C 
ATOM     21  C   UNL     1       5.330   4.392   1.476  0.00  0.00    +0.088 C 
BRANCH  20  22
ATOM     22  O   UNL     1       5.683   6.687   2.113  0.00  0.00    -0.389 OA
ATOM     23  H   UNL     1       6.650   6.587   2.063  0.00  0.00    +0.210 HD
ENDBRANCH  20  22
BRANCH  19  24
ATOM     24  C   UNL     1       4.904   6.922  -1.162  0.00  0.00    +0.206 C 
BRANCH  24  25
ATOM     25  O   UNL     1       4.854   8.226  -0.602  0.00  0.00    -0.284 OA
BRANCH  25  26
ATOM     26  P   UNL     1       3.897   9.338  -1.519  0.00  0.00    +0.472 P 
ATOM     27  O   UNL     1       3.040  10.333  -2.340  0.00  0.00    -0.228 OA
BRANCH  26  28
ATOM     28  O   UNL     1       5.039  10.437  -1.112  0.00  0.00    -0.303 OA
ATOM     29  H   UNL     1       5.799  10.429  -1.712  0.00  0.00    +0.222 HD
ENDBRANCH  26  28
BRANCH  26  30
ATOM     30  O   UNL     1       3.011   9.484  -0.151  0.00  0.00    -0.303 OA
ATOM     31  H   UNL     1       2.283   8.847  -0.095  0.00  0.00    +0.222 HD
ENDBRANCH  26  30
ENDBRANCH  25  26
ENDBRANCH  24  25
ENDBRANCH  19  24
ENDBRANCH  13  17
TORSDOF 7
