REMARK  Name = 
REMARK  18 active torsions:
REMARK  status: ('A' for Active; 'I' for Inactive)
REMARK    1  A    between atoms: C_1  and  C_2
REMARK    2  A    between atoms: C_6  and  O_8
REMARK    3  A    between atoms: C_9  and  N_11
REMARK    4  A    between atoms: C_12  and  C_14
REMARK    5  A    between atoms: C_14  and  C_16
REMARK    6  A    between atoms: C_14  and  C_51
REMARK    7  A    between atoms: C_16  and  C_17
REMARK    8  A    between atoms: C_17  and  O_19
REMARK    9  A    between atoms: C_17  and  C_20
REMARK   10  A    between atoms: C_20  and  N_21
REMARK   11  A    between atoms: C_26  and  C_28
REMARK   12  A    between atoms: N_30  and  C_31
REMARK   13  A    between atoms: C_31  and  C_32
REMARK   14  A    between atoms: C_31  and  C_33
REMARK   15  A    between atoms: C_31  and  C_34
REMARK   16  A    between atoms: C_35  and  C_37
REMARK   17  A    between atoms: N_44  and  C_45
REMARK   18  A    between atoms: C_51  and  C_52
REMARK                            x       y       z     vdW  Elec       q    Type
REMARK                         _______ _______ _______ _____ _____    ______ ____
ROOT
ATOM      1  N   UNL     1       2.974  -5.829   4.018  0.00  0.00    -0.286 NA
ATOM      2  C   UNL     1       2.162  -6.244   2.819  0.00  0.00    +0.161 C 
ATOM      3  C   UNL     1       0.739  -6.741   3.177  0.00  0.00    +0.136 C 
ATOM      4  N   UNL     1       0.785  -7.821   4.181  0.00  0.00    -0.293 N 
ATOM      5  C   UNL     1       0.288  -9.114   3.994  0.00  0.00    +0.267 C 
ATOM      6  O   UNL     1       0.600 -10.054   4.727  0.00  0.00    -0.268 OA
ATOM      7  C   UNL     1       1.590  -7.530   5.364  0.00  0.00    +0.123 C 
ATOM      8  C   UNL     1       2.965  -6.941   5.003  0.00  0.00    +0.104 C 
ENDROOT
BRANCH   5   9
ATOM      9  C   UNL     1      -0.663  -9.392   2.883  0.00  0.00    +0.145 A 
ATOM     10  N   UNL     1      -1.537  -8.421   2.530  0.00  0.00    -0.226 NA
ATOM     11  C   UNL     1      -2.328  -8.729   1.477  0.00  0.00    +0.170 A 
ATOM     12 CL   UNL     1      -3.240  -7.357   0.956  0.00  0.00    -0.058 Cl
ATOM     13  C   UNL     1      -2.327  -9.975   0.803  0.00  0.00    +0.159 A 
ATOM     14  N   UNL     1      -3.120 -10.241  -0.305  0.00  0.00    -0.310 N 
ATOM     15  C   UNL     1      -4.576 -10.072  -0.174  0.00  0.00    +0.122 C 
ATOM     16  C   UNL     1      -5.351 -11.402  -0.320  0.00  0.00    +0.103 C 
ATOM     17  N   UNL     1      -4.957 -12.244  -1.466  0.00  0.00    -0.302 NA
ATOM     18  C   UNL     1      -5.320 -11.620  -2.739  0.00  0.00    +0.105 C 
ATOM     19  C   UNL     1      -3.500 -12.485  -1.368  0.00  0.00    +0.103 C 
ATOM     20  C   UNL     1      -2.633 -11.212  -1.296  0.00  0.00    +0.122 C 
ATOM     21  N   UNL     1      -1.474 -10.944   1.227  0.00  0.00    -0.235 NA
ATOM     22  C   UNL     1      -0.652 -10.632   2.267  0.00  0.00    +0.146 A 
ENDBRANCH   5   9
BRANCH   2  23
ATOM     23  C   UNL     1       2.867  -7.360   2.005  0.00  0.00    +0.232 C 
ATOM     24  N   UNL     1       4.245  -7.358   2.080  0.00  0.00    -0.309 N 
ATOM     25  H   UNL     1       4.627  -6.735   2.791  0.00  0.00    +0.149 HD
ATOM     26  O   UNL     1       2.234  -8.157   1.312  0.00  0.00    -0.274 OA
BRANCH  24  27
ATOM     27  C   UNL     1       5.101  -8.409   1.510  0.00  0.00    +0.026 C 
ATOM     28  C   UNL     1       4.758  -9.788   2.104  0.00  0.00    +0.031 C 
ATOM     29  C   UNL     1       6.568  -8.098   1.855  0.00  0.00    +0.031 C 
ATOM     30  C   UNL     1       4.963  -8.445  -0.021  0.00  0.00    +0.031 C 
ENDBRANCH  24  27
ENDBRANCH   2  23
BRANCH   1  31
ATOM     31  C   UNL     1       2.386  -4.587   4.581  0.00  0.00    +0.116 C 
BRANCH  31  32
ATOM     32  C   UNL     1       3.114  -3.964   5.794  0.00  0.00    +0.129 C 
BRANCH  32  33
ATOM     33  O   UNL     1       2.303  -2.881   6.248  0.00  0.00    -0.391 OA
ATOM     34  H   UNL     1       2.502  -2.723   7.192  0.00  0.00    +0.210 HD
ENDBRANCH  32  33
BRANCH  32  35
ATOM     35  C   UNL     1       4.521  -3.471   5.425  0.00  0.00    +0.045 C 
BRANCH  35  36
ATOM     36  C   UNL     1       5.360  -2.945   6.611  0.00  0.00    +0.082 C 
BRANCH  36  39
ATOM     37  N   UNL     1       4.616  -0.611   6.397  0.00  0.00    -0.309 N 
ATOM     38  H   UNL     1       5.054  -0.644   5.486  0.00  0.00    +0.149 HD
ATOM     39  C   UNL     1       4.728  -1.699   7.227  0.00  0.00    +0.217 C 
ATOM     40  O   UNL     1       4.308  -1.704   8.382  0.00  0.00    -0.275 OA
BRANCH  37  43
ATOM     41  C   UNL     1       1.600   1.563   6.478  0.00  0.00    +0.009 C 
ATOM     42  C   UNL     1       2.472   0.498   7.150  0.00  0.00    +0.009 C 
ATOM     43  C   UNL     1       3.962   0.653   6.769  0.00  0.00    +0.104 C 
ATOM     44  C   UNL     1       4.639   1.349   7.971  0.00  0.00    +0.135 C 
ATOM     45  C   UNL     1       3.540   1.630   8.992  0.00  0.00    +0.033 C 
ATOM     46  C   UNL     1       2.424   0.651   8.671  0.00  0.00    +0.008 C 
BRANCH  44  47
ATOM     47  O   UNL     1       5.245   2.571   7.550  0.00  0.00    -0.390 OA
ATOM     48  H   UNL     1       5.568   3.020   8.351  0.00  0.00    +0.210 HD
ENDBRANCH  44  47
ENDBRANCH  37  43
ENDBRANCH  36  39
BRANCH  36  49
ATOM     49  C   UNL     1       5.570  -4.000   7.729  0.00  0.00    +0.048 C 
BRANCH  49  50
ATOM     50  C   UNL     1       6.258  -5.272   7.294  0.00  0.00    -0.047 A 
ATOM     51  C   UNL     1       5.622  -6.511   7.443  0.00  0.00    +0.003 A 
ATOM     52  C   UNL     1       6.234  -7.687   7.004  0.00  0.00    +0.000 A 
ATOM     53  C   UNL     1       7.511  -7.639   6.454  0.00  0.00    +0.000 A 
ATOM     54  C   UNL     1       8.176  -6.419   6.344  0.00  0.00    +0.000 A 
ATOM     55  C   UNL     1       7.550  -5.239   6.762  0.00  0.00    +0.003 A 
ENDBRANCH  49  50
ENDBRANCH  36  49
ENDBRANCH  35  36
ENDBRANCH  32  35
ENDBRANCH  31  32
ENDBRANCH   1  31
TORSDOF 13
