REMARK  Name = 
REMARK  8 active torsions:
REMARK  status: ('A' for Active; 'I' for Inactive)
REMARK    1  A    between atoms: C_1  and  C_2
REMARK    2  A    between atoms: C_2  and  C_3
REMARK    3  A    between atoms: C_2  and  C_4
REMARK    4  A    between atoms: C_4  and  C_5
REMARK    5  A    between atoms: C_5  and  N_7
REMARK    6  A    between atoms: C_5  and  P_8
REMARK    7  A    between atoms: P_8  and  O_9
REMARK    8  A    between atoms: P_8  and  O_10
REMARK                            x       y       z     vdW  Elec       q    Type
REMARK                         _______ _______ _______ _____ _____    ______ ____
ROOT
ATOM      1  C   UNL     1       4.493   1.325   0.258  0.00  0.00    +0.166 C 
ENDROOT
BRANCH   1   2
ATOM      2  N   UNL     1       3.627   2.341   0.935  0.00  0.00    -0.318 NA
ATOM      3  H   UNL     1       4.178   2.852   1.622  0.00  0.00    +0.119 HD
ATOM      4  H   UNL     1       3.310   3.031   0.245  0.00  0.00    +0.119 HD
ENDBRANCH   1   2
BRANCH   1   5
ATOM      5  P   UNL     1       3.557   0.464  -1.058  0.00  0.00    +0.344 P 
ATOM      6  O   UNL     1       2.765  -0.265  -2.171  0.00  0.00    -0.257 OA
BRANCH   5   7
ATOM      7  O   UNL     1       3.292   1.965  -1.726  0.00  0.00    -0.323 OA
ATOM      8  H   UNL     1       4.036   2.590  -1.721  0.00  0.00    +0.220 HD
ENDBRANCH   5   7
BRANCH   5   9
ATOM      9  O   UNL     1       2.264   0.508  -0.018  0.00  0.00    -0.323 OA
ATOM     10  H   UNL     1       2.321   1.282   0.593  0.00  0.00    +0.220 HD
ENDBRANCH   5   9
ENDBRANCH   1   5
BRANCH   1  11
ATOM     11  C   UNL     1       5.059   0.356   1.316  0.00  0.00    +0.034 C 
BRANCH  11  13
ATOM     12  C   UNL     1       7.161  -0.234  -0.028  0.00  0.00    +0.007 C 
ATOM     13  C   UNL     1       5.952  -0.765   0.756  0.00  0.00    -0.015 C 
ATOM     14  C   UNL     1       6.439  -1.662   1.900  0.00  0.00    +0.007 C 
ENDBRANCH  11  13
ENDBRANCH   1  11
TORSDOF 6
