REMARK  Name = 
REMARK  18 active torsions:
REMARK  status: ('A' for Active; 'I' for Inactive)
REMARK    1  A    between atoms: C_1  and  C_2
REMARK    2  A    between atoms: N_4  and  C_5
REMARK    3  A    between atoms: C_7  and  O_9
REMARK    4  A    between atoms: C_10  and  O_12
REMARK    5  A    between atoms: C_13  and  C_15
REMARK    6  A    between atoms: C_15  and  O_16
REMARK    7  A    between atoms: C_18  and  O_20
REMARK    8  A    between atoms: O_20  and  P_21
REMARK    9  A    between atoms: P_21  and  O_22
REMARK   10  A    between atoms: P_21  and  O_24
REMARK   11  A    between atoms: O_24  and  P_25
REMARK   12  A    between atoms: P_25  and  O_26
REMARK   13  A    between atoms: P_25  and  O_28
REMARK   14  A    between atoms: O_28  and  C_29
REMARK   15  A    between atoms: C_29  and  C_30
REMARK   16  A    between atoms: C_33  and  N_41
REMARK   17  A    between atoms: C_35  and  O_37
REMARK   18  A    between atoms: C_38  and  O_40
REMARK                            x       y       z     vdW  Elec       q    Type
REMARK                         _______ _______ _______ _____ _____    ______ ____
ROOT
ATOM      1  O   UNL     1       9.057   4.381   3.838  0.00  0.00    -0.186 OA
ENDROOT
BRANCH   1   2
ATOM      2  P   UNL     1       9.020   4.813   2.163  0.00  0.00    +0.483 P 
ATOM      3  O   UNL     1       7.914   3.934   1.569  0.00  0.00    -0.227 OA
BRANCH   2   4
ATOM      4  O   UNL     1       7.770   5.964   2.488  0.00  0.00    -0.302 OA
ATOM      5  H   UNL     1       6.956   5.470   2.252  0.00  0.00    +0.222 HD
ENDBRANCH   2   4
BRANCH   2   6
ATOM      6  O   UNL     1      10.270   3.663   1.839  0.00  0.00    -0.284 OA
BRANCH   6   7
ATOM      7  C   UNL     1      10.153   2.887   0.644  0.00  0.00    +0.206 C 
BRANCH   7   8
ATOM      8  C   UNL     1       9.987   3.722  -0.627  0.00  0.00    +0.178 C 
ATOM      9  C   UNL     1       9.757   2.816  -1.829  0.00  0.00    +0.178 C 
ATOM     10  C   UNL     1      10.519   3.492  -2.962  0.00  0.00    +0.195 C 
ATOM     11  C   UNL     1      11.154   4.750  -2.319  0.00  0.00    +0.255 C 
ATOM     12  O   UNL     1      11.178   4.474  -0.901  0.00  0.00    -0.346 OA
BRANCH  11  13
ATOM     13  N   UNL     1      12.511   5.092  -2.782  0.00  0.00    -0.271 N 
ATOM     14  C   UNL     1      12.800   5.005  -4.142  0.00  0.00    +0.331 A 
ATOM     15  O   UNL     1      11.996   4.632  -4.995  0.00  0.00    -0.246 OA
ATOM     16  N   UNL     1      14.069   5.363  -4.513  0.00  0.00    -0.275 N 
ATOM     17  H   UNL     1      14.298   5.285  -5.490  0.00  0.00    +0.173 HD
ATOM     18  C   UNL     1      14.993   5.971  -3.717  0.00  0.00    +0.254 A 
ATOM     19  O   UNL     1      16.075   6.374  -4.126  0.00  0.00    -0.268 OA
ATOM     20  C   UNL     1      14.599   6.146  -2.313  0.00  0.00    +0.088 A 
ATOM     21  C   UNL     1      13.403   5.706  -1.915  0.00  0.00    +0.098 A 
ENDBRANCH  11  13
BRANCH  10  22
ATOM     22  O   UNL     1       9.674   3.771  -4.077  0.00  0.00    -0.385 OA
ATOM     23  H   UNL     1      10.272   4.124  -4.775  0.00  0.00    +0.210 HD
ENDBRANCH  10  22
BRANCH   9  24
ATOM     24  O   UNL     1       8.366   2.639  -2.059  0.00  0.00    -0.386 OA
ATOM     25  H   UNL     1       8.266   2.352  -2.987  0.00  0.00    +0.210 HD
ENDBRANCH   9  24
ENDBRANCH   7   8
ENDBRANCH   6   7
ENDBRANCH   2   6
ENDBRANCH   1   2
BRANCH   1  26
ATOM     26  P   UNL     1      10.628   3.783   4.247  0.00  0.00    +0.486 P 
ATOM     27  O   UNL     1      11.326   5.039   3.691  0.00  0.00    -0.227 OA
BRANCH  26  28
ATOM     28  O   UNL     1      12.199   3.185   4.656  0.00  0.00    -0.302 OA
ATOM     29  H   UNL     1      12.717   3.270   3.832  0.00  0.00    +0.222 HD
ENDBRANCH  26  28
BRANCH  26  30
ATOM     30  O   UNL     1      10.420   4.146   5.833  0.00  0.00    -0.254 OA
BRANCH  30  32
ATOM     31  C   UNL     1       9.524   3.937   8.058  0.00  0.00    +0.160 C 
ATOM     32  C   UNL     1       9.703   3.258   6.667  0.00  0.00    +0.285 C 
ATOM     33  O   UNL     1      10.329   1.969   6.775  0.00  0.00    -0.341 OA
ATOM     34  C   UNL     1      11.601   1.986   7.461  0.00  0.00    +0.178 C 
ATOM     35  C   UNL     1      11.388   2.440   8.907  0.00  0.00    +0.176 C 
ATOM     36  C   UNL     1      10.825   3.862   8.881  0.00  0.00    +0.171 C 
BRANCH  31  39
ATOM     37  C   UNL     1       7.599   7.212   7.797  0.00  0.00    +0.109 C 
ATOM     38  C   UNL     1       7.795   5.721   7.858  0.00  0.00    +0.210 C 
ATOM     39  N   UNL     1       9.104   5.341   7.960  0.00  0.00    -0.305 N 
ATOM     40  H   UNL     1       9.821   6.031   7.772  0.00  0.00    +0.149 HD
ATOM     41  O   UNL     1       6.866   4.926   7.873  0.00  0.00    -0.276 OA
ENDBRANCH  31  39
BRANCH  36  42
ATOM     42  O   UNL     1      10.601   4.325  10.221  0.00  0.00    -0.387 OA
ATOM     43  H   UNL     1       9.934   3.731  10.615  0.00  0.00    +0.210 HD
ENDBRANCH  36  42
BRANCH  35  44
ATOM     44  O   UNL     1      10.475   1.574   9.599  0.00  0.00    -0.387 OA
ATOM     45  H   UNL     1       9.868   1.184   8.940  0.00  0.00    +0.210 HD
ENDBRANCH  35  44
BRANCH  34  46
ATOM     46  C   UNL     1      12.251   0.593   7.404  0.00  0.00    +0.190 C 
BRANCH  46  47
ATOM     47  O   UNL     1      12.516   0.193   6.058  0.00  0.00    -0.392 OA
ATOM     48  H   UNL     1      13.056   0.893   5.649  0.00  0.00    +0.210 HD
ENDBRANCH  46  47
ENDBRANCH  34  46
ENDBRANCH  30  32
ENDBRANCH  26  30
ENDBRANCH   1  26
TORSDOF 17
