REMARK  Name = 
REMARK  10 active torsions:
REMARK  status: ('A' for Active; 'I' for Inactive)
REMARK    1  A    between atoms: N_8  and  C_9
REMARK    2  A    between atoms: C_12  and  C_14
REMARK    3  A    between atoms: C_14  and  O_15
REMARK    4  A    between atoms: O_15  and  P_16
REMARK    5  A    between atoms: P_16  and  O_17
REMARK    6  A    between atoms: P_16  and  O_19
REMARK    7  A    between atoms: O_19  and  P_20
REMARK    8  A    between atoms: P_20  and  O_21
REMARK    9  A    between atoms: P_20  and  O_22
REMARK   10  A    between atoms: P_27  and  O_28
REMARK                            x       y       z     vdW  Elec       q    Type
REMARK                         _______ _______ _______ _____ _____    ______ ____
ROOT
ATOM      1  C   UNL     1       7.627  -3.532  -9.476  0.00  0.00    +0.254 C 
ATOM      2  C   UNL     1       7.879  -2.251  -8.659  0.00  0.00    +0.212 C 
ATOM      3  C   UNL     1       7.989  -2.770  -7.229  0.00  0.00    +0.195 C 
ATOM      4  O   UNL     1       6.641  -2.913  -6.760  0.00  0.00    -0.278 OA
ATOM      5  P   UNL     1       5.685  -1.871  -7.544  0.00  0.00    +0.476 P 
ATOM      6  O   UNL     1       4.381  -2.412  -8.020  0.00  0.00    -0.227 OA
ATOM      7  C   UNL     1       8.617  -4.126  -7.430  0.00  0.00    +0.179 C 
ATOM      8  O   UNL     1       6.751  -1.367  -8.647  0.00  0.00    -0.276 OA
ATOM      9  O   UNL     1       7.912  -4.644  -8.581  0.00  0.00    -0.346 OA
ENDROOT
BRANCH   1  21
ATOM     10  N   UNL     1       8.468   0.378 -13.079  0.00  0.00    -0.329 N 
ATOM     11  H   UNL     1       8.987   0.853 -13.805  0.00  0.00    +0.145 HD
ATOM     12  H   UNL     1       8.361   0.911 -12.222  0.00  0.00    +0.145 HD
ATOM     13  C   UNL     1       8.667  -0.950 -12.886  0.00  0.00    +0.195 A 
ATOM     14  N   UNL     1       9.164  -1.632 -13.981  0.00  0.00    -0.293 N 
ATOM     15  H   UNL     1       9.303  -1.161 -14.858  0.00  0.00    +0.172 HD
ATOM     16  C   UNL     1       9.436  -2.990 -14.006  0.00  0.00    +0.280 A 
ATOM     17  O   UNL     1       9.846  -3.547 -15.018  0.00  0.00    -0.265 OA
ATOM     18  C   UNL     1       9.153  -3.625 -12.737  0.00  0.00    +0.172 A 
ATOM     19  N   UNL     1       9.280  -4.932 -12.372  0.00  0.00    -0.229 NA
ATOM     20  C   UNL     1       8.807  -4.972 -11.147  0.00  0.00    +0.203 A 
ATOM     21  N   UNL     1       8.397  -3.732 -10.695  0.00  0.00    -0.285 N 
ATOM     22  C   UNL     1       8.646  -2.849 -11.714  0.00  0.00    +0.171 A 
ATOM     23  N   UNL     1       8.403  -1.512 -11.735  0.00  0.00    -0.196 NA
ENDBRANCH   1  21
BRANCH   5  24
ATOM     24  O   UNL     1       5.612  -0.697  -6.472  0.00  0.00    -0.302 OA
ATOM     25  H   UNL     1       5.079  -0.979  -5.705  0.00  0.00    +0.222 HD
ENDBRANCH   5  24
BRANCH   7  26
ATOM     26  C   UNL     1       8.475  -5.068  -6.230  0.00  0.00    +0.206 C 
BRANCH  26  27
ATOM     27  O   UNL     1       9.125  -6.282  -6.556  0.00  0.00    -0.284 OA
BRANCH  27  28
ATOM     28  P   UNL     1       9.134  -7.583  -5.568  0.00  0.00    +0.483 P 
ATOM     29  O   UNL     1       9.171  -7.130  -4.109  0.00  0.00    -0.227 OA
BRANCH  28  30
ATOM     30  O   UNL     1       7.407  -7.551  -5.476  0.00  0.00    -0.302 OA
ATOM     31  H   UNL     1       7.193  -7.743  -4.542  0.00  0.00    +0.222 HD
ENDBRANCH  28  30
BRANCH  28  32
ATOM     32  O   UNL     1      10.862  -7.614  -5.661  0.00  0.00    -0.186 OA
BRANCH  32  33
ATOM     33  P   UNL     1      11.360  -8.902  -6.703  0.00  0.00    +0.481 P 
ATOM     34  O   UNL     1      11.805 -10.055  -7.636  0.00  0.00    -0.227 OA
BRANCH  33  35
ATOM     35  O   UNL     1      12.884  -8.492  -6.255  0.00  0.00    -0.302 OA
ATOM     36  H   UNL     1      13.150  -8.910  -5.418  0.00  0.00    +0.222 HD
ENDBRANCH  33  35
BRANCH  33  37
ATOM     37  O   UNL     1      11.299  -7.786  -7.891  0.00  0.00    -0.302 OA
ATOM     38  H   UNL     1      12.203  -7.432  -7.996  0.00  0.00    +0.222 HD
ENDBRANCH  33  37
ENDBRANCH  32  33
ENDBRANCH  28  32
ENDBRANCH  27  28
ENDBRANCH  26  27
ENDBRANCH   7  26
TORSDOF 10
