REMARK  Name = 
REMARK  3 active torsions:
REMARK  status: ('A' for Active; 'I' for Inactive)
REMARK    1  A    between atoms: C_2  and  C_3
REMARK    2  A    between atoms: C_3  and  C_4
REMARK    3  A    between atoms: C_7  and  N_10
REMARK                            x       y       z     vdW  Elec       q    Type
REMARK                         _______ _______ _______ _____ _____    ______ ____
ROOT
ATOM      1  C   UNL     1       4.017   0.001  -1.607  0.00  0.00    -0.046 A 
ATOM      2  C   UNL     1       4.733  -1.188  -1.751  0.00  0.00    +0.005 A 
ATOM      3  C   UNL     1       6.097  -1.172  -2.083  0.00  0.00    +0.023 A 
ATOM      4  C   UNL     1       6.808   0.020  -2.287  0.00  0.00    +0.030 A 
ATOM      5  C   UNL     1       6.073   1.202  -2.108  0.00  0.00    +0.023 A 
ATOM      6  C   UNL     1       4.709   1.201  -1.767  0.00  0.00    +0.005 A 
ENDROOT
BRANCH   4   7
ATOM      7  N   UNL     1       8.139   0.031  -2.655  0.00  0.00    -0.327 N 
ATOM      8  C   UNL     1       8.800  -1.101  -3.336  0.00  0.00    +0.124 C 
ATOM      9  C   UNL     1       9.961  -1.640  -2.476  0.00  0.00    +0.126 C 
ATOM     10  N   UNL     1      10.861  -0.559  -2.071  0.00  0.00    -0.301 N 
ATOM     11  C   UNL     1      12.192  -0.538  -2.409  0.00  0.00    +0.328 C 
ATOM     12  O   UNL     1      12.966   0.388  -2.207  0.00  0.00    -0.279 OA
ATOM     13  C   UNL     1      10.218   0.596  -1.441  0.00  0.00    +0.126 C 
ATOM     14  C   UNL     1       9.056   1.135  -2.302  0.00  0.00    +0.124 C 
ENDBRANCH   4   7
BRANCH   1  15
ATOM     15  C   UNL     1       2.536  -0.032  -1.297  0.00  0.00    +0.052 C 
BRANCH  15  16
ATOM     16  C   UNL     1       1.647   0.668  -2.330  0.00  0.00    +0.111 C 
ATOM     17  C   UNL     1       0.169   0.572  -2.009  0.00  0.00    -0.014 A 
ATOM     18  C   UNL     1      -0.540   0.993  -0.898  0.00  0.00    +0.006 A 
ATOM     19  C   UNL     1      -1.927   0.797  -0.888  0.00  0.00    +0.000 A 
ATOM     20  C   UNL     1      -2.584   0.195  -1.977  0.00  0.00    +0.002 A 
ATOM     21  C   UNL     1      -1.863  -0.225  -3.095  0.00  0.00    +0.023 A 
ATOM     22  C   UNL     1      -0.499  -0.024  -3.078  0.00  0.00    +0.037 A 
ATOM     23  N   UNL     1       0.403  -0.361  -4.069  0.00  0.00    -0.285 N 
ATOM     24  H   UNL     1       0.181  -0.804  -4.948  0.00  0.00    +0.155 HD
ATOM     25  C   UNL     1       1.700  -0.007  -3.722  0.00  0.00    +0.225 C 
ATOM     26  O   UNL     1       2.673  -0.189  -4.432  0.00  0.00    -0.275 OA
ENDBRANCH  15  16
ENDBRANCH   1  15
TORSDOF 3
