REMARK  Name = 
REMARK  3 active torsions:
REMARK  status: ('A' for Active; 'I' for Inactive)
REMARK    1  A    between atoms: C_1  and  C_2
REMARK    2  A    between atoms: C_2  and  C_3
REMARK    3  A    between atoms: C_3  and  C_4
REMARK                            x       y       z     vdW  Elec       q    Type
REMARK                         _______ _______ _______ _____ _____    ______ ____
ROOT
ATOM      1  C   UNL     1       4.522   1.048   0.941  0.00  0.00    +0.210 C 
ATOM      2  O   UNL     1       5.210   0.315   0.242  0.00  0.00    -0.276 OA
ATOM      3  N   UNL     1       5.098   1.943   1.795  0.00  0.00    -0.329 N 
ATOM      4  H   UNL     1       6.108   1.978   1.828  0.00  0.00    +0.145 HD
ATOM      5  H   UNL     1       4.566   2.565   2.387  0.00  0.00    +0.145 HD
ENDROOT
BRANCH   1   6
ATOM      6  C   UNL     1       3.009   1.064   0.957  0.00  0.00    +0.095 C 
BRANCH   6   8
ATOM      7  C   UNL     1       0.893   0.076   0.014  0.00  0.00    +0.004 C 
ATOM      8  C   UNL     1       2.412   0.048  -0.013  0.00  0.00    +0.006 C 
ENDBRANCH   6   8
ENDBRANCH   1   6
TORSDOF 2
