REMARK  Name = 
REMARK  8 active torsions:
REMARK  status: ('A' for Active; 'I' for Inactive)
REMARK    1  A    between atoms: N_1  and  C_5
REMARK    2  A    between atoms: C_5  and  C_6
REMARK    3  A    between atoms: C_9  and  C_10
REMARK    4  A    between atoms: C_10  and  N_11
REMARK    5  A    between atoms: N_11  and  C_12
REMARK    6  A    between atoms: C_12  and  C_13
REMARK    7  A    between atoms: C_13  and  C_14
REMARK    8  A    between atoms: C_14  and  O_15
REMARK                            x       y       z     vdW  Elec       q    Type
REMARK                         _______ _______ _______ _____ _____    ______ ____
ROOT
ATOM      1  C   UNL     1       3.057  -0.144  -1.277  0.00  0.00    -0.003 A 
ATOM      2  C   UNL     1       3.206  -1.409  -1.866  0.00  0.00    +0.009 A 
ATOM      3  C   UNL     1       3.514  -1.526  -3.222  0.00  0.00    +0.005 A 
ATOM      4  C   UNL     1       3.679  -0.384  -4.016  0.00  0.00    -0.034 A 
ATOM      5  C   UNL     1       3.561   0.879  -3.419  0.00  0.00    +0.005 A 
ATOM      6  C   UNL     1       3.256   1.000  -2.063  0.00  0.00    +0.009 A 
ENDROOT
BRANCH   1   7
ATOM      7  C   UNL     1       2.580  -0.018   0.136  0.00  0.00    +0.164 C 
BRANCH   7   8
ATOM      8  N   UNL     1       1.098  -0.021   0.171  0.00  0.00    +0.222 N 
ATOM      9  H   UNL     1       0.736   0.075   1.125  0.00  0.00    +0.200 HD
ATOM     10  H   UNL     1       0.729  -0.888  -0.233  0.00  0.00    +0.200 HD
ATOM     11  H   UNL     1       0.728   0.754  -0.395  0.00  0.00    +0.200 HD
ENDBRANCH   7   8
ENDBRANCH   1   7
BRANCH   4  12
ATOM     12  C   UNL     1       3.881  -0.520  -5.507  0.00  0.00    +0.116 C 
BRANCH  12  13
ATOM     13  N   UNL     1       5.078   0.205  -5.962  0.00  0.00    -0.311 NA
ATOM     14  H   UNL     1       5.889  -0.247  -5.524  0.00  0.00    +0.122 HD
BRANCH  13  15
ATOM     15  C   UNL     1       5.247   0.108  -7.429  0.00  0.00    +0.092 C 
BRANCH  15  16
ATOM     16  C   UNL     1       4.155   0.833  -8.217  0.00  0.00    +0.135 C 
BRANCH  16  17
ATOM     17  C   UNL     1       4.012   2.306  -7.904  0.00  0.00    +0.306 C 
ATOM     18  O   UNL     1       3.512   3.103  -8.686  0.00  0.00    -0.251 OA
BRANCH  17  19
ATOM     19  O   UNL     1       4.379   2.669  -6.655  0.00  0.00    -0.481 OA
ATOM     20  H   UNL     1       4.743   1.901  -6.148  0.00  0.00    +0.295 HD
ENDBRANCH  17  19
ENDBRANCH  16  17
ENDBRANCH  15  16
ENDBRANCH  13  15
ENDBRANCH  12  13
ENDBRANCH   4  12
TORSDOF 8
