REMARK  Name = 
REMARK  0 active torsions:
REMARK  status: ('A' for Active; 'I' for Inactive)
REMARK                            x       y       z     vdW  Elec       q    Type
REMARK                         _______ _______ _______ _____ _____    ______ ____
ROOT
ATOM      1  N   UNL     1       1.128  -0.029  -0.112  0.00  0.00    -0.329 N 
ATOM      2  H   UNL     1       0.545   0.788  -0.029  0.00  0.00    +0.145 HD
ATOM      3  H   UNL     1       0.689  -0.941  -0.055  0.00  0.00    +0.145 HD
ATOM      4  C   UNL     1       2.477  -0.002  -0.084  0.00  0.00    +0.195 A 
ATOM      5  N   UNL     1       3.068   1.232  -0.069  0.00  0.00    -0.295 N 
ATOM      6  H   UNL     1       2.509   2.068  -0.077  0.00  0.00    +0.172 HD
ATOM      7  C   UNL     1       4.426   1.408  -0.060  0.00  0.00    +0.258 A 
ATOM      8  O   UNL     1       4.968   2.505  -0.056  0.00  0.00    -0.267 OA
ATOM      9  C   UNL     1       5.175   0.169  -0.058  0.00  0.00    +0.066 A 
ATOM     10  C   UNL     1       6.628  -0.045  -0.060  0.00  0.00    +0.091 C 
ATOM     11  C   UNL     1       6.528  -1.551  -0.066  0.00  0.00    +0.091 C 
ATOM     12  N   UNL     1       5.337  -2.067  -0.068  0.00  0.00    -0.240 NA
ATOM     13  C   UNL     1       4.507  -0.981  -0.064  0.00  0.00    +0.164 A 
ATOM     14  N   UNL     1       3.154  -1.109  -0.076  0.00  0.00    -0.197 NA
ENDROOT
TORSDOF 0
