REMARK  Name = 
REMARK  3 active torsions:
REMARK  status: ('A' for Active; 'I' for Inactive)
REMARK    1  A    between atoms: O_1  and  C_2
REMARK    2  A    between atoms: C_9  and  O_11
REMARK    3  A    between atoms: C_14  and  O_16
REMARK                            x       y       z     vdW  Elec       q    Type
REMARK                         _______ _______ _______ _____ _____    ______ ____
ROOT
ATOM      1  C   UNL     1       2.491  -0.056   0.067  0.00  0.00    +0.158 C 
ATOM      2  C   UNL     1       3.078  -1.365  -0.493  0.00  0.00    +0.164 C 
ATOM      3  C   UNL     1       3.200  -1.002  -1.967  0.00  0.00    +0.116 C 
ATOM      4  N   UNL     1       3.828   0.324  -1.900  0.00  0.00    -0.292 NA
ATOM      5  C   UNL     1       3.833   0.975  -3.204  0.00  0.00    +0.085 C 
ATOM      6  C   UNL     1       4.568   0.099  -4.236  0.00  0.00    +0.018 C 
ATOM      7  C   UNL     1       4.114  -1.369  -4.238  0.00  0.00    +0.034 C 
ATOM      8  C   UNL     1       4.052  -1.944  -2.817  0.00  0.00    +0.134 C 
ATOM      9  C   UNL     1       3.121   1.042  -0.827  0.00  0.00    +0.118 C 
ENDROOT
BRANCH   1  10
ATOM     10  O   UNL     1       1.066  -0.020  -0.095  0.00  0.00    -0.388 OA
ATOM     11  H   UNL     1       0.725   0.660   0.509  0.00  0.00    +0.210 HD
ENDBRANCH   1  10
BRANCH   2  12
ATOM     12  O   UNL     1       2.275  -2.511  -0.248  0.00  0.00    -0.388 OA
ATOM     13  H   UNL     1       2.631  -3.218  -0.822  0.00  0.00    +0.210 HD
ENDBRANCH   2  12
BRANCH   8  14
ATOM     14  O   UNL     1       3.504  -3.260  -2.823  0.00  0.00    -0.390 OA
ATOM     15  H   UNL     1       2.686  -3.237  -3.351  0.00  0.00    +0.210 HD
ENDBRANCH   8  14
TORSDOF 3
