REMARK  Name = 
REMARK  16 active torsions:
REMARK  status: ('A' for Active; 'I' for Inactive)
REMARK    1  A    between atoms: N_1  and  C_2
REMARK    2  A    between atoms: C_2  and  C_4
REMARK    3  A    between atoms: C_2  and  C_32
REMARK    4  A    between atoms: C_4  and  C_5
REMARK    5  A    between atoms: C_5  and  C_6
REMARK    6  A    between atoms: N_8  and  C_9
REMARK    7  A    between atoms: C_9  and  C_11
REMARK    8  A    between atoms: C_9  and  C_25
REMARK    9  A    between atoms: C_11  and  S_12
REMARK   10  A    between atoms: S_12  and  C_13
REMARK   11  A    between atoms: C_16  and  N_22
REMARK   12  A    between atoms: C_18  and  N_19
REMARK   13  A    between atoms: N_27  and  CA_28
REMARK   14  A    between atoms: CA_28  and  C_29
REMARK   15  A    between atoms: C_29  and  O_30
REMARK   16  A    between atoms: C_32  and  O_33
REMARK                            x       y       z     vdW  Elec       q    Type
REMARK                         _______ _______ _______ _____ _____    ______ ____
ROOT
ATOM      1  C   UNK A   1       3.197   5.761  -3.287  0.00  0.00    +0.169 C 
ENDROOT
BRANCH   1   2
ATOM      2  C   UNK A   1       2.520   6.182  -4.604  0.00  0.00    +0.235 C 
ATOM      3  N   GLY A   2       2.551   7.531  -4.882  0.00  0.00    -0.303 N 
ATOM      4  H   GLY A   2       2.761   8.174  -4.119  0.00  0.00    +0.149 HD
ATOM      5  O   UNK A   1       2.165   5.347  -5.432  0.00  0.00    -0.274 OA
BRANCH   3   6
ATOM      6  CA  GLY A   2       2.053   8.089  -6.133  0.00  0.00    +0.224 C 
BRANCH   6   7
ATOM      7  C   GLY A   2       3.144   8.821  -6.909  0.00  0.00    +0.322 C 
ATOM      8  OXT GLY A   2       2.963   9.366  -7.988  0.00  0.00    -0.249 OA
BRANCH   7   9
ATOM      9  O   GLY A   2       4.350   8.835  -6.287  0.00  0.00    -0.480 OA
ATOM     10  H   GLY A   2       4.297   8.377  -5.425  0.00  0.00    +0.295 HD
ENDBRANCH   7   9
ENDBRANCH   6   7
ENDBRANCH   3   6
ENDBRANCH   1   2
BRANCH   1  12
ATOM     11  C   UNK A   1       3.283   7.896  -1.921  0.00  0.00    +0.214 C 
ATOM     12  N   UNK A   1       2.834   6.617  -2.143  0.00  0.00    -0.303 N 
ATOM     13  H   UNK A   1       2.287   6.174  -1.414  0.00  0.00    +0.149 HD
ATOM     14  O   UNK A   1       3.973   8.497  -2.739  0.00  0.00    -0.276 OA
BRANCH  11  15
ATOM     15  C   UNK A   1       2.773   8.492  -0.622  0.00  0.00    +0.098 C 
BRANCH  15  16
ATOM     16  C   UNK A   1       2.902  10.017  -0.590  0.00  0.00    +0.039 C 
BRANCH  16  17
ATOM     17  C   UNK A   1       2.243  10.689   0.621  0.00  0.00    +0.161 C 
BRANCH  17  18
ATOM     18  N   UNK A   1       2.839  10.283   1.923  0.00  0.00    -0.318 NA
ATOM     19  H   UNK A   1       2.910   9.262   1.965  0.00  0.00    +0.119 HD
ATOM     20  H   UNK A   1       3.812  10.604   1.941  0.00  0.00    +0.119 HD
ENDBRANCH  17  18
BRANCH  17  21
ATOM     21  C   UNK A   1       0.724  10.440   0.679  0.00  0.00    +0.322 C 
ATOM     22  O   UNK A   1      -0.010  10.304  -0.287  0.00  0.00    -0.249 OA
BRANCH  21  23
ATOM     23  O   UNK A   1       0.288  10.388   1.965  0.00  0.00    -0.480 OA
ATOM     24  H   UNK A   1       1.091  10.498   2.534  0.00  0.00    +0.295 HD
ENDBRANCH  21  23
ENDBRANCH  17  21
ENDBRANCH  16  17
ENDBRANCH  15  16
ENDBRANCH  11  15
ENDBRANCH   1  12
BRANCH   1  25
ATOM     25  C   UNK A   1       4.704   5.624  -3.582  0.00  0.00    +0.106 C 
BRANCH  25  26
ATOM     26  S   UNK A   1       5.633   5.191  -2.077  0.00  0.00    -0.116 S 
BRANCH  26  27
ATOM     27  C   UNK A   1       7.336   5.006  -2.606  0.00  0.00    +0.086 A 
ATOM     28  C   UNK A   1       8.300   4.560  -1.682  0.00  0.00    +0.293 A 
ATOM     29  C   UNK A   1       9.610   4.201  -2.053  0.00  0.00    +0.169 A 
ATOM     30  C   UNK A   1       9.978   4.343  -3.387  0.00  0.00    +0.280 A 
ATOM     31  C   UNK A   1       9.083   4.892  -4.317  0.00  0.00    +0.086 A 
ATOM     32  C   UNK A   1       7.771   5.213  -3.927  0.00  0.00    +0.028 A 
BRANCH  30  33
ATOM     33  N   UNK A   1      11.304   3.884  -3.823  0.00  0.00    +0.080 N 
ATOM     34  O   UNK A   1      12.030   3.350  -2.973  0.00  0.00    +0.041 OA
ATOM     35  O   UNK A   1      11.606   4.039  -5.014  0.00  0.00    -0.576 OA
ENDBRANCH  30  33
BRANCH  28  36
ATOM     36  N   UNK A   1       7.978   4.461  -0.271  0.00  0.00    +0.081 N 
ATOM     37  O   UNK A   1       7.996   3.329   0.227  0.00  0.00    +0.041 OA
ATOM     38  O   UNK A   1       7.776   5.520   0.339  0.00  0.00    -0.576 OA
ENDBRANCH  28  36
ENDBRANCH  26  27
ENDBRANCH  25  26
ENDBRANCH   1  25
TORSDOF 16
