REMARK  Name = 
REMARK  17 active torsions:
REMARK  status: ('A' for Active; 'I' for Inactive)
REMARK    1  A    between atoms: C_1  and  C_2
REMARK    2  A    between atoms: C_5  and  O_7
REMARK    3  A    between atoms: O_7  and  C_8
REMARK    4  A    between atoms: C_10  and  C_12
REMARK    5  A    between atoms: C_12  and  O_13
REMARK    6  A    between atoms: C_15  and  O_17
REMARK    7  A    between atoms: C_18  and  O_20
REMARK    8  A    between atoms: C_21  and  O_23
REMARK    9  A    between atoms: C_24  and  O_26
REMARK   10  A    between atoms: C_27  and  O_29
REMARK   11  A    between atoms: C_30  and  N_32
REMARK   12  A    between atoms: N_32  and  C_33
REMARK   13  A    between atoms: C_36  and  C_37
REMARK   14  A    between atoms: C_37  and  O_38
REMARK   15  A    between atoms: C_39  and  O_41
REMARK   16  A    between atoms: C_42  and  O_44
REMARK   17  A    between atoms: C_45  and  O_47
REMARK                            x       y       z     vdW  Elec       q    Type
REMARK                         _______ _______ _______ _____ _____    ______ ____
ROOT
ATOM      1  C   UNL     1      -5.300   4.769   0.011  0.00  0.00    +0.039 C 
ATOM      2  C   UNL     1      -5.477   3.720  -1.079  0.00  0.00    +0.138 C 
ATOM      3  C   UNL     1      -4.407   2.568  -1.214  0.00  0.00    +0.114 C 
ATOM      4  C   UNL     1      -3.645   2.496  -2.570  0.00  0.00    +0.167 C 
ATOM      5  C   UNL     1      -4.365   3.200  -3.714  0.00  0.00    +0.200 C 
ATOM      6  C   UNL     1      -4.840   4.590  -3.246  0.00  0.00    +0.282 C 
ATOM      7  O   UNL     1      -5.831   4.445  -2.255  0.00  0.00    -0.344 OA
ENDROOT
BRANCH   4   8
ATOM      8  O   UNL     1      -2.297   2.984  -2.449  0.00  0.00    -0.387 OA
ATOM      9  H   UNL     1      -2.341   3.960  -2.418  0.00  0.00    +0.210 HD
ENDBRANCH   4   8
BRANCH   5  10
ATOM     10  O   UNL     1      -5.449   2.381  -4.166  0.00  0.00    -0.384 OA
ATOM     11  H   UNL     1      -6.039   2.932  -4.709  0.00  0.00    +0.210 HD
ENDBRANCH   5  10
BRANCH   3  12
ATOM     12  N   UNL     1      -3.504   2.432  -0.037  0.00  0.00    -0.300 NA
ATOM     13  H   UNL     1      -2.750   3.126  -0.180  0.00  0.00    +0.123 HD
BRANCH  12  14
ATOM     14  C   UNL     1      -2.780   1.130   0.031  0.00  0.00    +0.109 C 
ATOM     15  C   UNL     1      -1.585   1.160   1.022  0.00  0.00    +0.166 C 
ATOM     16  C   UNL     1      -1.944   0.917   2.499  0.00  0.00    +0.177 C 
ATOM     17  C   UNL     1      -2.990  -0.192   2.728  0.00  0.00    +0.173 C 
ATOM     18  C   UNL     1      -3.881  -0.546   1.570  0.00  0.00    -0.016 C 
ATOM     19  C   UNL     1      -3.745   0.038   0.362  0.00  0.00    -0.002 C 
BRANCH  17  20
ATOM     20  O   UNL     1      -2.315  -1.386   3.139  0.00  0.00    -0.385 OA
ATOM     21  H   UNL     1      -1.969  -1.814   2.335  0.00  0.00    +0.210 HD
ENDBRANCH  17  20
BRANCH  16  22
ATOM     22  O   UNL     1      -2.366   2.166   3.090  0.00  0.00    -0.386 OA
ATOM     23  H   UNL     1      -2.311   2.040   4.055  0.00  0.00    +0.210 HD
ENDBRANCH  16  22
BRANCH  15  24
ATOM     24  O   UNL     1      -0.895   2.423   0.922  0.00  0.00    -0.387 OA
ATOM     25  H   UNL     1      -1.430   3.013   1.497  0.00  0.00    +0.210 HD
ENDBRANCH  15  24
BRANCH  18  26
ATOM     26  C   UNL     1      -4.974  -1.537   1.888  0.00  0.00    +0.189 C 
BRANCH  26  27
ATOM     27  O   UNL     1      -5.797  -1.812   0.763  0.00  0.00    -0.391 OA
ATOM     28  H   UNL     1      -6.260  -0.984   0.549  0.00  0.00    +0.210 HD
ENDBRANCH  26  27
ENDBRANCH  18  26
ENDBRANCH  12  14
ENDBRANCH   3  12
BRANCH   6  29
ATOM     29  O   UNL     1      -3.697   5.367  -2.867  0.00  0.00    -0.340 OA
BRANCH  29  30
ATOM     30  C   UNL     1      -3.845   6.801  -2.743  0.00  0.00    +0.183 C 
ATOM     31  C   UNL     1      -2.451   7.346  -2.307  0.00  0.00    +0.179 C 
ATOM     32  C   UNL     1      -2.221   8.844  -2.549  0.00  0.00    +0.201 C 
ATOM     33  C   UNL     1      -2.727   9.233  -3.936  0.00  0.00    +0.279 C 
ATOM     34  O   UNL     1      -4.110   8.921  -4.018  0.00  0.00    -0.341 OA
ATOM     35  C   UNL     1      -4.375   7.505  -4.019  0.00  0.00    +0.178 C 
BRANCH  33  36
ATOM     36  O   UNL     1      -2.550  10.627  -4.151  0.00  0.00    -0.365 OA
ATOM     37  H   UNL     1      -1.720  10.860  -3.694  0.00  0.00    +0.213 HD
ENDBRANCH  33  36
BRANCH  32  38
ATOM     38  O   UNL     1      -0.817   9.155  -2.465  0.00  0.00    -0.384 OA
ATOM     39  H   UNL     1      -0.582   9.217  -1.523  0.00  0.00    +0.210 HD
ENDBRANCH  32  38
BRANCH  31  40
ATOM     40  O   UNL     1      -2.262   7.087  -0.900  0.00  0.00    -0.386 OA
ATOM     41  H   UNL     1      -1.322   7.235  -0.693  0.00  0.00    +0.210 HD
ENDBRANCH  31  40
BRANCH  35  42
ATOM     42  C   UNL     1      -3.926   6.917  -5.367  0.00  0.00    +0.190 C 
BRANCH  42  43
ATOM     43  O   UNL     1      -4.460   7.706  -6.430  0.00  0.00    -0.392 OA
ATOM     44  H   UNL     1      -4.449   8.637  -6.126  0.00  0.00    +0.210 HD
ENDBRANCH  42  43
ENDBRANCH  35  42
ENDBRANCH  29  30
ENDBRANCH   6  29
TORSDOF 16
