REMARK  Name = 
REMARK  5 active torsions:
REMARK  status: ('A' for Active; 'I' for Inactive)
REMARK    1  A    between atoms: N_1  and  S_2
REMARK    2  A    between atoms: S_2  and  C_5
REMARK    3  A    between atoms: C_8  and  C_11
REMARK    4  A    between atoms: N_13  and  C_14
REMARK    5  A    between atoms: C_14  and  C_15
REMARK                            x       y       z     vdW  Elec       q    Type
REMARK                         _______ _______ _______ _____ _____    ______ ____
ROOT
ATOM      1  C   UNL     1       4.851  -5.644   0.231  0.00  0.00    +0.244 C 
ATOM      2  N   UNL     1       3.942  -6.680   0.252  0.00  0.00    -0.307 N 
ATOM      3  H   UNL     1       2.989  -6.480  -0.022  0.00  0.00    +0.149 HD
ATOM      4  O   UNL     1       6.064  -5.805   0.187  0.00  0.00    -0.270 OA
ENDROOT
BRANCH   1   8
ATOM      5  C   UNL     1       3.233  -1.677   0.106  0.00  0.00    +0.105 A 
ATOM      6  C   UNL     1       2.491  -2.697   0.709  0.00  0.00    +0.029 A 
ATOM      7  C   UNL     1       3.013  -3.992   0.768  0.00  0.00    +0.015 A 
ATOM      8  C   UNL     1       4.273  -4.268   0.215  0.00  0.00    +0.037 A 
ATOM      9  C   UNL     1       5.022  -3.229  -0.355  0.00  0.00    +0.015 A 
ATOM     10  C   UNL     1       4.504  -1.932  -0.415  0.00  0.00    +0.029 A 
BRANCH   5  11
ATOM     11  S   UNL     1       2.553  -0.046   0.003  0.00  0.00    +0.056 S 
ATOM     12  O   UNL     1       1.165  -0.084   0.402  0.00  0.00    -0.153 OA
ATOM     13  O   UNL     1       3.501   0.888   0.560  0.00  0.00    -0.153 OA
BRANCH  11  14
ATOM     14  N   UNL     1       2.526   0.232  -1.654  0.00  0.00    -0.204 NA
ATOM     15  H   UNL     1       1.561   0.254  -1.984  0.00  0.00    +0.144 HD
ATOM     16  H   UNL     1       3.046   1.086  -1.863  0.00  0.00    +0.144 HD
ENDBRANCH  11  14
ENDBRANCH   5  11
ENDBRANCH   1   8
BRANCH   2  17
ATOM     17  C   UNL     1       4.377  -8.057   0.130  0.00  0.00    +0.145 C 
BRANCH  17  18
ATOM     18  C   UNL     1       3.364  -9.005   0.700  0.00  0.00    +0.040 A 
ATOM     19  C   UNL     1       3.686  -9.855   1.760  0.00  0.00    +0.134 A 
ATOM     20  F   UNL     1       4.919  -9.836   2.283  0.00  0.00    -0.205 F 
ATOM     21  C   UNL     1       2.751 -10.733   2.300  0.00  0.00    +0.077 A 
ATOM     22  C   UNL     1       1.471 -10.767   1.766  0.00  0.00    +0.129 A 
ATOM     23  F   UNL     1       0.563 -11.605   2.282  0.00  0.00    -0.205 F 
ATOM     24  C   UNL     1       1.117  -9.945   0.706  0.00  0.00    +0.077 A 
ATOM     25  C   UNL     1       2.067  -9.075   0.183  0.00  0.00    +0.134 A 
ATOM     26  F   UNL     1       1.715  -8.273  -0.833  0.00  0.00    -0.205 F 
ENDBRANCH  17  18
ENDBRANCH   2  17
TORSDOF 5
