REMARK  Name = 
REMARK  12 active torsions:
REMARK  status: ('A' for Active; 'I' for Inactive)
REMARK    1  A    between atoms: O_1  and  C_2
REMARK    2  A    between atoms: C_2  and  C_4
REMARK    3  A    between atoms: C_4  and  C_5
REMARK    4  A    between atoms: C_5  and  C_6
REMARK    5  A    between atoms: C_6  and  C_7
REMARK    6  A    between atoms: C_7  and  C_8
REMARK    7  A    between atoms: C_8  and  N_9
REMARK    8  A    between atoms: C_10  and  C_28
REMARK    9  A    between atoms: C_16  and  O_17
REMARK   10  A    between atoms: O_17  and  C_18
REMARK   11  A    between atoms: C_18  and  C_19
REMARK   12  A    between atoms: C_28  and  O_29
REMARK                            x       y       z     vdW  Elec       q    Type
REMARK                         _______ _______ _______ _____ _____    ______ ____
ROOT
ATOM      1  N   UNL     1       9.088  -3.011   0.132  0.00  0.00    -0.335 N 
ATOM      2  C   UNL     1      10.070  -3.996   0.136  0.00  0.00    +0.050 A 
ATOM      3  C   UNL     1      10.009  -5.403   0.157  0.00  0.00    +0.030 A 
ATOM      4  C   UNL     1      11.214  -6.123   0.110  0.00  0.00    +0.048 A 
ATOM      5  C   UNL     1      12.441  -5.470   0.059  0.00  0.00    +0.122 A 
ATOM      6  C   UNL     1      12.487  -4.077   0.148  0.00  0.00    +0.055 A 
ATOM      7  C   UNL     1      11.296  -3.339   0.145  0.00  0.00    +0.004 A 
ATOM      8  C   UNL     1      11.045  -1.954   0.156  0.00  0.00    +0.043 A 
ATOM      9  C   UNL     1       9.677  -1.750   0.123  0.00  0.00    +0.128 A 
ENDROOT
BRANCH   9  10
ATOM     10  C   UNL     1       8.991  -0.480   0.141  0.00  0.00    +0.353 C 
ATOM     11  O   UNL     1       7.897  -0.261   0.637  0.00  0.00    -0.243 OA
BRANCH  10  12
ATOM     12  O   UNL     1       9.704   0.494  -0.480  0.00  0.00    -0.476 OA
ATOM     13  H   UNL     1      10.511   0.164  -0.914  0.00  0.00    +0.295 HD
ENDBRANCH  10  12
ENDBRANCH   9  10
BRANCH   1  14
ATOM     14  C   UNL     1       7.662  -3.293   0.232  0.00  0.00    +0.122 C 
BRANCH  14  15
ATOM     15  C   UNL     1       6.770  -2.798  -0.903  0.00  0.00    +0.022 C 
BRANCH  15  16
ATOM     16  C   UNL     1       7.132  -3.274  -2.313  0.00  0.00    +0.002 C 
BRANCH  16  17
ATOM     17  C   UNL     1       6.116  -2.672  -3.293  0.00  0.00    +0.011 C 
BRANCH  17  18
ATOM     18  C   UNL     1       6.368  -3.036  -4.752  0.00  0.00    +0.120 C 
BRANCH  18  19
ATOM     19  C   UNL     1       5.329  -2.394  -5.650  0.00  0.00    +0.305 C 
ATOM     20  O   UNL     1       4.400  -1.697  -5.273  0.00  0.00    -0.251 OA
BRANCH  19  21
ATOM     21  O   UNL     1       5.533  -2.673  -6.958  0.00  0.00    -0.481 OA
ATOM     22  H   UNL     1       6.309  -3.240  -7.123  0.00  0.00    +0.295 HD
ENDBRANCH  19  21
ENDBRANCH  18  19
ENDBRANCH  17  18
ENDBRANCH  16  17
ENDBRANCH  15  16
ENDBRANCH  14  15
ENDBRANCH   1  14
BRANCH   5  23
ATOM     23  O   UNL     1      13.557  -6.257  -0.104  0.00  0.00    -0.487 OA
BRANCH  23  24
ATOM     24  C   UNL     1      14.672  -5.542  -0.645  0.00  0.00    +0.267 C 
BRANCH  24  25
ATOM     25  C   UNL     1      15.717  -6.473  -1.198  0.00  0.00    +0.026 A 
ATOM     26  C   UNL     1      16.840  -6.839  -0.437  0.00  0.00    +0.049 A 
ATOM     27 CL   UNL     1      17.034  -6.361   1.215  0.00  0.00    -0.083 Cl
ATOM     28  C   UNL     1      17.870  -7.599  -1.000  0.00  0.00    +0.020 A 
ATOM     29  C   UNL     1      17.786  -8.026  -2.322  0.00  0.00    +0.003 A 
ATOM     30  C   UNL     1      16.658  -7.714  -3.076  0.00  0.00    +0.020 A 
ATOM     31  C   UNL     1      15.628  -6.951  -2.518  0.00  0.00    +0.049 A 
ATOM     32 CL   UNL     1      14.271  -6.603  -3.536  0.00  0.00    -0.083 Cl
ENDBRANCH  24  25
ENDBRANCH  23  24
ENDBRANCH   5  23
TORSDOF 12
