REMARK  Name = 
REMARK  11 active torsions:
REMARK  status: ('A' for Active; 'I' for Inactive)
REMARK    1  A    between atoms: C_1  and  C_2
REMARK    2  A    between atoms: C_3  and  C_4
REMARK    3  A    between atoms: C_4  and  C_5
REMARK    4  A    between atoms: C_12  and  O_13
REMARK    5  A    between atoms: O_13  and  C_14
REMARK    6  A    between atoms: C_14  and  C_15
REMARK    7  A    between atoms: C_15  and  C_16
REMARK    8  A    between atoms: C_16  and  C_17
REMARK    9  A    between atoms: C_17  and  O_18
REMARK   10  A    between atoms: N_21  and  C_22
REMARK   11  A    between atoms: C_22  and  C_23
REMARK                            x       y       z     vdW  Elec       q    Type
REMARK                         _______ _______ _______ _____ _____    ______ ____
ROOT
ATOM      1  C   UNL     1       0.947  -0.311   0.101  0.00  0.00    +0.064 C 
ATOM      2  C   UNL     1       2.407  -0.035  -0.030  0.00  0.00    +0.021 A 
ATOM      3  N   UNL     1       3.329  -1.062  -0.146  0.00  0.00    -0.339 N 
ATOM      4  C   UNL     1       4.601  -0.539  -0.301  0.00  0.00    +0.050 A 
ATOM      5  C   UNL     1       5.836  -1.166  -0.532  0.00  0.00    +0.030 A 
ATOM      6  C   UNL     1       6.996  -0.383  -0.504  0.00  0.00    +0.048 A 
ATOM      7  C   UNL     1       6.932   0.986  -0.262  0.00  0.00    +0.121 A 
ATOM      8  C   UNL     1       5.689   1.602  -0.072  0.00  0.00    +0.056 A 
ATOM      9  C   UNL     1       4.500   0.840  -0.117  0.00  0.00    +0.007 A 
ATOM     10  C   UNL     1       3.108   1.169  -0.009  0.00  0.00    -0.010 A 
ENDROOT
BRANCH   3  11
ATOM     11  C   UNL     1       3.020  -2.497  -0.119  0.00  0.00    +0.157 C 
BRANCH  11  12
ATOM     12  C   UNL     1       3.118  -3.176   1.236  0.00  0.00    -0.028 A 
ATOM     13  C   UNL     1       2.749  -4.533   1.314  0.00  0.00    +0.005 A 
ATOM     14  C   UNL     1       2.948  -5.273   2.484  0.00  0.00    +0.000 A 
ATOM     15  C   UNL     1       3.512  -4.666   3.601  0.00  0.00    +0.000 A 
ATOM     16  C   UNL     1       3.833  -3.311   3.561  0.00  0.00    +0.000 A 
ATOM     17  C   UNL     1       3.629  -2.568   2.392  0.00  0.00    +0.005 A 
ENDBRANCH  11  12
ENDBRANCH   3  11
BRANCH   7  18
ATOM     18  O   UNL     1       8.013   1.824  -0.169  0.00  0.00    -0.492 OA
BRANCH  18  19
ATOM     19  C   UNL     1       9.214   1.366  -0.793  0.00  0.00    +0.229 C 
BRANCH  19  20
ATOM     20  C   UNL     1      10.140   2.557  -1.015  0.00  0.00    +0.052 C 
BRANCH  20  21
ATOM     21  C   UNL     1      10.634   3.175   0.291  0.00  0.00    +0.124 C 
BRANCH  21  22
ATOM     22  C   UNL     1      11.559   4.343   0.013  0.00  0.00    +0.305 C 
ATOM     23  O   UNL     1      12.250   4.459  -0.988  0.00  0.00    -0.251 OA
BRANCH  22  24
ATOM     24  O   UNL     1      11.584   5.247   1.016  0.00  0.00    -0.481 OA
ATOM     25  H   UNL     1      10.987   5.035   1.761  0.00  0.00    +0.295 HD
ENDBRANCH  22  24
ENDBRANCH  21  22
ENDBRANCH  20  21
ENDBRANCH  19  20
ENDBRANCH  18  19
ENDBRANCH   7  18
BRANCH  10  26
ATOM     26  C   UNL     1       2.558   2.560   0.187  0.00  0.00    +0.133 C 
BRANCH  26  27
ATOM     27  C   UNL     1       2.309   3.407  -1.053  0.00  0.00    +0.215 C 
ATOM     28  O   UNL     1       1.825   4.537  -0.972  0.00  0.00    -0.276 OA
ATOM     29  N   UNL     1       2.640   2.919  -2.278  0.00  0.00    -0.329 N 
ATOM     30  H   UNL     1       2.521   3.534  -3.070  0.00  0.00    +0.145 HD
ATOM     31  H   UNL     1       3.178   2.066  -2.393  0.00  0.00    +0.145 HD
ENDBRANCH  26  27
ENDBRANCH  10  26
TORSDOF 10
