REMARK  Name = 
REMARK  6 active torsions:
REMARK  status: ('A' for Active; 'I' for Inactive)
REMARK    1  A    between atoms: O_1  and  S_2
REMARK    2  A    between atoms: S_2  and  C_5
REMARK    3  A    between atoms: C_5  and  C_6
REMARK    4  A    between atoms: C_6  and  C_7
REMARK    5  A    between atoms: C_7  and  N_8
REMARK    6  A    between atoms: N_8  and  C_9
REMARK                            x       y       z     vdW  Elec       q    Type
REMARK                         _______ _______ _______ _____ _____    ______ ____
ROOT
ATOM      1  C   UNL     1       5.437  -2.953  -1.488  0.00  0.00    +0.083 C 
ENDROOT
BRANCH   1   2
ATOM      2  N   UNL     1       6.565  -3.091  -0.579  0.00  0.00    -0.313 NA
ATOM      3  H   UNL     1       6.239  -3.064   0.384  0.00  0.00    +0.122 HD
BRANCH   2   4
ATOM      4  C   UNL     1       7.481  -4.211  -0.790  0.00  0.00    +0.054 C 
ATOM      5  C   UNL     1       6.880  -5.614  -0.598  0.00  0.00    +0.019 C 
ATOM      6  C   UNL     1       6.513  -5.945   0.850  0.00  0.00    +0.002 C 
ATOM      7  C   UNL     1       7.644  -5.654   1.833  0.00  0.00    +0.000 C 
ATOM      8  C   UNL     1       8.213  -4.251   1.659  0.00  0.00    +0.002 C 
ATOM      9  C   UNL     1       8.643  -4.015   0.208  0.00  0.00    +0.019 C 
ENDBRANCH   2   4
ENDBRANCH   1   2
BRANCH   1  10
ATOM     10  C   UNL     1       4.828  -1.585  -1.164  0.00  0.00    +0.040 C 
BRANCH  10  11
ATOM     11  C   UNL     1       3.568  -1.266  -1.953  0.00  0.00    +0.199 C 
BRANCH  11  12
ATOM     12  S   UNL     1       2.936   0.337  -1.449  0.00  0.00    +0.080 S 
ATOM     13  O   UNL     1       2.461   0.283  -0.089  0.00  0.00    -0.147 OA
ATOM     14  O   UNL     1       3.815   1.391  -1.913  0.00  0.00    -0.147 OA
BRANCH  12  15
ATOM     15  O   UNL     1       1.630   0.384  -2.393  0.00  0.00    -0.254 OA
ATOM     16  H   UNL     1       1.178   1.245  -2.243  0.00  0.00    +0.244 HD
ENDBRANCH  12  15
ENDBRANCH  11  12
ENDBRANCH  10  11
ENDBRANCH   1  10
TORSDOF 6
