REMARK  Name = 
REMARK  7 active torsions:
REMARK  status: ('A' for Active; 'I' for Inactive)
REMARK    1  A    between atoms: O_1  and  C_2
REMARK    2  A    between atoms: C_3  and  C_4
REMARK    3  A    between atoms: C_4  and  C_6
REMARK    4  A    between atoms: C_4  and  C_9
REMARK    5  A    between atoms: C_13  and  N_14
REMARK    6  A    between atoms: N_14  and  S_15
REMARK    7  A    between atoms: S_15  and  C_18
REMARK                            x       y       z     vdW  Elec       q    Type
REMARK                         _______ _______ _______ _____ _____    ______ ____
ROOT
ATOM      1  C   UNL     1       2.458   2.409   0.935  0.00  0.00    +0.063 C 
ENDROOT
BRANCH   1  14
ATOM      2  C   UNL     1       2.558  -0.045   0.084  0.00  0.00    +0.134 A 
ATOM      3  C   UNL     1       3.392  -1.131  -0.398  0.00  0.00    +0.033 A 
ATOM      4  C   UNL     1       2.911  -2.556  -0.284  0.00  0.00    +0.042 C 
ATOM      5  C   UNL     1       2.909  -3.133   1.131  0.00  0.00    +0.005 C 
ATOM      6  C   UNL     1       4.180  -3.095   1.996  0.00  0.00    +0.000 C 
ATOM      7  C   UNL     1       5.455  -2.384   1.533  0.00  0.00    +0.000 C 
ATOM      8  C   UNL     1       5.978  -2.823   0.159  0.00  0.00    +0.008 C 
ATOM      9  C   UNL     1       5.741  -1.839  -1.008  0.00  0.00    +0.075 C 
ATOM     10  C   UNL     1       4.635  -0.835  -0.811  0.00  0.00    +0.116 A 
ATOM     11  O   UNL     1       5.042   0.501  -0.996  0.00  0.00    -0.427 OA
ATOM     12  C   UNL     1       4.130   1.502  -0.818  0.00  0.00    +0.344 A 
ATOM     13  O   UNL     1       4.274   2.595  -1.352  0.00  0.00    -0.245 OA
ATOM     14  C   UNL     1       3.003   1.227   0.115  0.00  0.00    +0.086 A 
BRANCH   2  15
ATOM     15  O   UNL     1       1.363  -0.463   0.615  0.00  0.00    -0.506 OA
ATOM     16  H   UNL     1       0.724   0.264   0.548  0.00  0.00    +0.292 HD
ENDBRANCH   2  15
ENDBRANCH   1  14
BRANCH   1  17
ATOM     17  C   UNL     1       3.495   3.470   1.352  0.00  0.00    -0.038 A 
ATOM     18  C   UNL     1       4.848   3.171   1.598  0.00  0.00    +0.028 A 
ATOM     19  C   UNL     1       5.769   4.196   1.826  0.00  0.00    +0.048 A 
ATOM     20  C   UNL     1       5.339   5.512   1.965  0.00  0.00    +0.024 A 
ATOM     21  C   UNL     1       3.989   5.818   1.805  0.00  0.00    +0.002 A 
ATOM     22  C   UNL     1       3.080   4.810   1.477  0.00  0.00    +0.004 A 
BRANCH  19  23
ATOM     23  N   UNL     1       7.161   3.910   1.853  0.00  0.00    -0.216 N 
ATOM     24  H   UNL     1       7.511   3.281   1.131  0.00  0.00    +0.174 HD
BRANCH  23  25
ATOM     25  S   UNL     1       7.961   3.732   3.323  0.00  0.00    +0.072 S 
ATOM     26  O   UNL     1       7.595   4.810   4.214  0.00  0.00    -0.150 OA
ATOM     27  O   UNL     1       9.346   3.458   3.005  0.00  0.00    -0.150 OA
BRANCH  25  28
ATOM     28  C   UNL     1       7.259   2.225   3.952  0.00  0.00    +0.108 A 
ATOM     29  C   UNL     1       6.101   2.279   4.731  0.00  0.00    +0.029 A 
ATOM     30  C   UNL     1       5.535   1.093   5.195  0.00  0.00    +0.002 A 
ATOM     31  C   UNL     1       6.133  -0.132   4.895  0.00  0.00    +0.000 A 
ATOM     32  C   UNL     1       7.311  -0.178   4.147  0.00  0.00    +0.002 A 
ATOM     33  C   UNL     1       7.881   1.003   3.675  0.00  0.00    +0.029 A 
ENDBRANCH  25  28
ENDBRANCH  23  25
ENDBRANCH  19  23
ENDBRANCH   1  17
BRANCH   1  34
ATOM     34  C   UNL     1       1.597   2.025   2.152  0.00  0.00    +0.001 C 
ATOM     35  C   UNL     1       1.689   2.611   3.553  0.00  0.00    +0.005 C 
ATOM     36  C   UNL     1       2.194   1.224   3.291  0.00  0.00    +0.005 C 
ENDBRANCH   1  34
TORSDOF 7
