REMARK  Name = 
REMARK  6 active torsions:
REMARK  status: ('A' for Active; 'I' for Inactive)
REMARK    1  A    between atoms: C_2  and  C_28
REMARK    2  A    between atoms: C_9  and  N_10
REMARK    3  A    between atoms: C_11  and  C_13
REMARK    4  A    between atoms: C_18  and  C_23
REMARK    5  A    between atoms: C_28  and  C_29
REMARK    6  A    between atoms: C_28  and  C_30
REMARK                            x       y       z     vdW  Elec       q    Type
REMARK                         _______ _______ _______ _____ _____    ______ ____
ROOT
ATOM      1  N   UNL     1       3.003   4.266   2.342  0.00  0.00    -0.281 N 
ATOM      2  H   UNL     1       3.208   4.721   3.220  0.00  0.00    +0.155 HD
ATOM      3  C   UNL     1       2.884   5.050   1.207  0.00  0.00    +0.248 C 
ATOM      4  O   UNL     1       2.865   4.638   0.049  0.00  0.00    -0.270 OA
ENDROOT
BRANCH   1   8
ATOM      5  C   UNL     1       1.939  -0.051   0.078  0.00  0.00    +0.087 C 
ATOM      6  C   UNL     1       2.507   0.694   1.281  0.00  0.00    -0.025 A 
ATOM      7  C   UNL     1       2.577   2.095   1.248  0.00  0.00    +0.028 A 
ATOM      8  C   UNL     1       2.994   2.849   2.347  0.00  0.00    +0.034 A 
ATOM      9  C   UNL     1       3.388   2.174   3.502  0.00  0.00    +0.023 A 
ATOM     10  C   UNL     1       3.398   0.773   3.533  0.00  0.00    +0.006 A 
ATOM     11  C   UNL     1       2.953   0.027   2.430  0.00  0.00    -0.041 A 
ATOM     12  C   UNL     1       3.044  -1.478   2.443  0.00  0.00    +0.050 C 
ATOM     13  C   UNL     1       2.242  -2.126   1.310  0.00  0.00    +0.086 C 
ATOM     14  N   UNL     1       2.445  -1.444   0.026  0.00  0.00    -0.309 NA
ATOM     15  H   UNL     1       3.448  -1.394  -0.158  0.00  0.00    +0.123 HD
BRANCH   5  16
ATOM     16  C   UNL     1       0.373  -0.009  -0.024  0.00  0.00    +0.004 C 
ATOM     17  C   UNL     1      -0.219   1.408  -0.028  0.00  0.00    +0.009 C 
ATOM     18  C   UNL     1      -0.120  -0.719  -1.295  0.00  0.00    +0.009 C 
ENDBRANCH   5  16
ENDBRANCH   1   8
BRANCH   3  19
ATOM     19  C   UNL     1       2.815   6.524   1.384  0.00  0.00    +0.038 A 
ATOM     20  C   UNL     1       3.222   7.302   0.289  0.00  0.00    +0.021 A 
ATOM     21  C   UNL     1       3.087   8.693   0.293  0.00  0.00    -0.017 A 
ATOM     22  C   UNL     1       2.555   9.330   1.433  0.00  0.00    -0.017 A 
ATOM     23  C   UNL     1       2.403  10.727   1.415  0.00  0.00    +0.024 A 
ATOM     24  C   UNL     1       2.762  11.471   0.282  0.00  0.00    +0.065 A 
ATOM     25  C   UNL     1       3.291  10.829  -0.839  0.00  0.00    +0.016 A 
ATOM     26  C   UNL     1       2.167   8.544   2.538  0.00  0.00    +0.009 A 
ATOM     27  C   UNL     1       3.454   9.445  -0.829  0.00  0.00    +0.009 A 
ATOM     28  C   UNL     1       2.285   7.147   2.513  0.00  0.00    +0.013 A 
BRANCH  24  29
ATOM     29  C   UNL     1       2.590  12.950   0.287  0.00  0.00    +0.308 C 
ATOM     30  N   UNL     1       2.342  13.637  -0.782  0.00  0.00    -0.099 NA
ATOM     31  H   UNL     1       2.227  13.032  -1.600  0.00  0.00    +0.363 HD
ATOM     32  N   UNL     1       2.702  13.649   1.451  0.00  0.00    -0.247 N 
ATOM     33  H   UNL     1       2.779  14.644   1.263  0.00  0.00    +0.288 HD
ATOM     34  H   UNL     1       3.409  13.321   2.098  0.00  0.00    +0.288 HD
ENDBRANCH  24  29
ENDBRANCH   3  19
TORSDOF 4
