REMARK  Name = 
REMARK  9 active torsions:
REMARK  status: ('A' for Active; 'I' for Inactive)
REMARK    1  A    between atoms: O_1  and  C_2
REMARK    2  A    between atoms: C_4  and  C_6
REMARK    3  A    between atoms: C_6  and  O_7
REMARK    4  A    between atoms: O_7  and  P_8
REMARK    5  A    between atoms: P_8  and  O_9
REMARK    6  A    between atoms: P_8  and  O_10
REMARK    7  A    between atoms: C_13  and  N_18
REMARK    8  A    between atoms: C_15  and  O_17
REMARK    9  A    between atoms: C_25  and  O_26
REMARK                            x       y       z     vdW  Elec       q    Type
REMARK                         _______ _______ _______ _____ _____    ______ ____
ROOT
ATOM      1  C   UNL     1       2.221   0.005   0.036  0.00  0.00    +0.178 C 
ATOM      2  C   UNL     1       2.801  -1.239   0.697  0.00  0.00    +0.195 C 
ATOM      3  C   UNL     1       4.010  -0.713   1.493  0.00  0.00    +0.252 C 
ATOM      4  O   UNL     1       4.016   0.725   1.353  0.00  0.00    -0.346 OA
ATOM      5  C   UNL     1       2.701   1.126   0.942  0.00  0.00    +0.178 C 
ENDROOT
BRANCH   3   6
ATOM      6  N   UNL     1       4.012  -1.044   2.915  0.00  0.00    -0.298 N 
ATOM      7  C   UNL     1       4.617  -0.338   3.926  0.00  0.00    +0.108 A 
ATOM      8  C   UNL     1       5.354   0.828   4.013  0.00  0.00    +0.146 A 
ATOM      9  N   UNL     1       5.786   1.213   5.233  0.00  0.00    -0.201 NA
ATOM     10  C   UNL     1       5.465   0.431   6.277  0.00  0.00    +0.318 A 
ATOM     11  N   UNL     1       4.771  -0.704   6.300  0.00  0.00    -0.174 NA
ATOM     12  C   UNL     1       4.358  -1.068   5.075  0.00  0.00    +0.184 A 
ATOM     13  N   UNL     1       3.656  -2.205   4.784  0.00  0.00    -0.216 NA
ATOM     14  C   UNL     1       3.492  -2.182   3.481  0.00  0.00    +0.204 A 
BRANCH  10  15
ATOM     15  O   UNL     1       5.934   0.896   7.464  0.00  0.00    -0.478 OA
ATOM     16  H   UNL     1       6.385   1.693   7.143  0.00  0.00    +0.295 HD
ENDBRANCH  10  15
ENDBRANCH   3   6
BRANCH   1  17
ATOM     17  O   UNL     1       0.799  -0.060  -0.010  0.00  0.00    -0.386 OA
ATOM     18  H   UNL     1       0.488   0.527  -0.721  0.00  0.00    +0.210 HD
ENDBRANCH   1  17
BRANCH   2  19
ATOM     19  O   UNL     1       3.204  -2.172  -0.316  0.00  0.00    -0.385 OA
ATOM     20  H   UNL     1       3.328  -3.045   0.095  0.00  0.00    +0.210 HD
ENDBRANCH   2  19
BRANCH   5  21
ATOM     21  C   UNL     1       2.740   2.465   0.208  0.00  0.00    +0.206 C 
BRANCH  21  22
ATOM     22  O   UNL     1       3.116   3.523   1.091  0.00  0.00    -0.284 OA
BRANCH  22  23
ATOM     23  P   UNL     1       3.139   5.058   0.293  0.00  0.00    +0.472 P 
ATOM     24  O   UNL     1       3.160   6.431  -0.422  0.00  0.00    -0.228 OA
BRANCH  23  25
ATOM     25  O   UNL     1       4.645   4.637  -0.190  0.00  0.00    -0.303 OA
ATOM     26  H   UNL     1       5.251   5.182   0.347  0.00  0.00    +0.222 HD
ENDBRANCH  23  25
BRANCH  23  27
ATOM     27  O   UNL     1       3.650   5.628   1.741  0.00  0.00    -0.303 OA
ATOM     28  H   UNL     1       2.923   5.680   2.385  0.00  0.00    +0.222 HD
ENDBRANCH  23  27
ENDBRANCH  22  23
ENDBRANCH  21  22
ENDBRANCH   5  21
TORSDOF 9
