REMARK  Name = 
REMARK  20 active torsions:
REMARK  status: ('A' for Active; 'I' for Inactive)
REMARK    1  A    between atoms: C_2  and  C_4
REMARK    2  A    between atoms: N_6  and  C_10
REMARK    3  A    between atoms: C_13  and  C_15
REMARK    4  A    between atoms: C_15  and  O_16
REMARK    5  A    between atoms: O_16  and  P_17
REMARK    6  A    between atoms: P_17  and  O_18
REMARK    7  A    between atoms: P_17  and  O_20
REMARK    8  A    between atoms: O_20  and  P_21
REMARK    9  A    between atoms: P_21  and  O_22
REMARK   10  A    between atoms: P_21  and  O_24
REMARK   11  A    between atoms: O_24  and  C_25
REMARK   12  A    between atoms: C_25  and  C_26
REMARK   13  A    between atoms: C_29  and  N_41
REMARK   14  A    between atoms: C_31  and  O_33
REMARK   15  A    between atoms: O_33  and  P_34
REMARK   16  A    between atoms: P_34  and  O_35
REMARK   17  A    between atoms: P_34  and  O_36
REMARK   18  A    between atoms: C_38  and  O_40
REMARK   19  A    between atoms: C_51  and  O_53
REMARK   20  A    between atoms: C_54  and  O_56
REMARK                            x       y       z     vdW  Elec       q    Type
REMARK                         _______ _______ _______ _____ _____    ______ ____
ROOT
ATOM      1  P   UNL     1      -3.871   5.439  -3.477  0.00  0.00    +0.483 P 
ATOM      2  O   UNL     1      -3.833   5.132  -4.970  0.00  0.00    -0.227 OA
ENDROOT
BRANCH   1   3
ATOM      3  O   UNL     1      -2.892   4.323  -2.793  0.00  0.00    -0.302 OA
ATOM      4  H   UNL     1      -2.670   3.672  -3.489  0.00  0.00    +0.222 HD
ENDBRANCH   1   3
BRANCH   1   5
ATOM      5  O   UNL     1      -2.554   6.544  -3.672  0.00  0.00    -0.284 OA
BRANCH   5   6
ATOM      6  C   UNL     1      -1.426   6.101  -4.441  0.00  0.00    +0.206 C 
BRANCH   6   7
ATOM      7  C   UNL     1      -0.428   7.248  -4.577  0.00  0.00    +0.178 C 
ATOM      8  C   UNL     1      -1.117   8.529  -5.033  0.00  0.00    +0.179 C 
ATOM      9  C   UNL     1      -1.460   9.294  -3.747  0.00  0.00    +0.211 C 
ATOM     10  C   UNL     1      -0.813   8.447  -2.644  0.00  0.00    +0.254 C 
ATOM     11  O   UNL     1       0.120   7.554  -3.288  0.00  0.00    -0.346 OA
BRANCH  10  12
ATOM     12  N   UNL     1      -0.072   9.239  -1.691  0.00  0.00    -0.285 N 
ATOM     13  C   UNL     1      -0.604   9.796  -0.565  0.00  0.00    +0.167 A 
ATOM     14  N   UNL     1      -1.876   9.750  -0.148  0.00  0.00    -0.216 NA
ATOM     15  C   UNL     1      -2.016  10.397   1.023  0.00  0.00    +0.225 A 
ATOM     16  N   UNL     1      -1.073  11.048   1.740  0.00  0.00    -0.219 NA
ATOM     17  C   UNL     1       0.199  11.055   1.271  0.00  0.00    +0.147 A 
ATOM     18  N   UNL     1       1.173  11.702   2.011  0.00  0.00    -0.341 N 
ATOM     19  H   UNL     1       2.003  11.940   1.481  0.00  0.00    +0.144 HD
ATOM     20  H   UNL     1       0.795  12.396   2.643  0.00  0.00    +0.144 HD
ATOM     21  C   UNL     1       0.467  10.412   0.062  0.00  0.00    +0.147 A 
ATOM     22  N   UNL     1       1.620  10.269  -0.690  0.00  0.00    -0.231 NA
ATOM     23  C   UNL     1       1.263   9.533  -1.718  0.00  0.00    +0.203 A 
ENDBRANCH  10  12
BRANCH   8  24
ATOM     24  O   UNL     1      -0.252   9.350  -5.825  0.00  0.00    -0.386 OA
ATOM     25  H   UNL     1       0.624   9.392  -5.399  0.00  0.00    +0.210 HD
ENDBRANCH   8  24
BRANCH   9  26
ATOM     26  O   UNL     1      -2.868   9.480  -3.544  0.00  0.00    -0.276 OA
BRANCH  26  27
ATOM     27  P   UNL     1      -3.584  10.432  -4.799  0.00  0.00    +0.473 P 
ATOM     28  O   UNL     1      -4.225  11.284  -5.922  0.00  0.00    -0.228 OA
BRANCH  27  29
ATOM     29  O   UNL     1      -4.084   9.007  -5.437  0.00  0.00    -0.303 OA
ATOM     30  H   UNL     1      -4.145   9.116  -6.405  0.00  0.00    +0.222 HD
ENDBRANCH  27  29
BRANCH  27  31
ATOM     31  O   UNL     1      -4.853  10.599  -3.777  0.00  0.00    -0.303 OA
ATOM     32  H   UNL     1      -4.709  11.313  -3.134  0.00  0.00    +0.222 HD
ENDBRANCH  27  31
ENDBRANCH  26  27
ENDBRANCH   9  26
ENDBRANCH   6   7
ENDBRANCH   5   6
ENDBRANCH   1   5
BRANCH   1  33
ATOM     33  O   UNL     1      -5.188   4.335  -3.282  0.00  0.00    -0.186 OA
BRANCH  33  34
ATOM     34  P   UNL     1      -6.657   5.092  -3.795  0.00  0.00    +0.483 P 
ATOM     35  O   UNL     1      -6.531   4.551  -5.216  0.00  0.00    -0.227 OA
BRANCH  34  36
ATOM     36  O   UNL     1      -8.125   5.850  -4.307  0.00  0.00    -0.302 OA
ATOM     37  H   UNL     1      -7.914   6.366  -5.108  0.00  0.00    +0.222 HD
ENDBRANCH  34  36
BRANCH  34  38
ATOM     38  O   UNL     1      -7.529   3.967  -2.955  0.00  0.00    -0.284 OA
BRANCH  38  39
ATOM     39  C   UNL     1      -7.315   3.872  -1.552  0.00  0.00    +0.206 C 
BRANCH  39  43
ATOM     40  C   UNL     1      -8.423   1.393   0.861  0.00  0.00    +0.241 C 
ATOM     41  C   UNL     1      -8.126   0.452  -0.326  0.00  0.00    +0.193 C 
ATOM     42  C   UNL     1      -7.953   1.397  -1.520  0.00  0.00    +0.178 C 
ATOM     43  C   UNL     1      -8.211   2.795  -0.947  0.00  0.00    +0.178 C 
ATOM     44  O   UNL     1      -7.976   2.702   0.463  0.00  0.00    -0.348 OA
BRANCH  40  49
ATOM     45  C   UNL     1     -11.396   1.542   3.142  0.00  0.00    +0.032 C 
ATOM     46  C   UNL     1     -12.555   1.185   2.253  0.00  0.00    +0.070 C 
ATOM     47  C   UNL     1     -12.189   1.160   0.794  0.00  0.00    -0.007 C 
ATOM     48  C   UNL     1     -10.912   1.273   0.403  0.00  0.00    +0.073 C 
ATOM     49  N   UNL     1      -9.844   1.428   1.286  0.00  0.00    -0.285 N 
ATOM     50  C   UNL     1     -10.153   1.649   2.634  0.00  0.00    +0.086 C 
BRANCH  45  54
ATOM     51  N   UNL     1     -12.727   1.314   5.140  0.00  0.00    -0.326 N 
ATOM     52  H   UNL     1     -13.338   0.656   4.677  0.00  0.00    +0.145 HD
ATOM     53  H   UNL     1     -12.843   1.463   6.133  0.00  0.00    +0.145 HD
ATOM     54  C   UNL     1     -11.600   1.827   4.582  0.00  0.00    +0.239 C 
ATOM     55  O   UNL     1     -10.812   2.479   5.255  0.00  0.00    -0.271 OA
ENDBRANCH  45  54
ENDBRANCH  40  49
BRANCH  42  56
ATOM     56  O   UNL     1      -8.881   1.087  -2.559  0.00  0.00    -0.386 OA
ATOM     57  H   UNL     1      -8.721   1.726  -3.282  0.00  0.00    +0.210 HD
ENDBRANCH  42  56
BRANCH  41  58
ATOM     58  O   UNL     1      -6.906  -0.293  -0.113  0.00  0.00    -0.385 OA
ATOM     59  H   UNL     1      -6.190   0.337   0.079  0.00  0.00    +0.210 HD
ENDBRANCH  41  58
ENDBRANCH  39  43
ENDBRANCH  38  39
ENDBRANCH  34  38
ENDBRANCH  33  34
ENDBRANCH   1  33
TORSDOF 20
