REMARK  Name = 
REMARK  5 active torsions:
REMARK  status: ('A' for Active; 'I' for Inactive)
REMARK    1  A    between atoms: N9_8  and  C1*_9
REMARK    2  A    between atoms: C4*_12  and  C5*_14
REMARK    3  A    between atoms: C5*_14  and  O5*_15
REMARK    4  A    between atoms: C3*_16  and  O3*_18
REMARK    5  A    between atoms: C2*_19  and  O2*_21
REMARK                            x       y       z     vdW  Elec       q    Type
REMARK                         _______ _______ _______ _____ _____    ______ ____
ROOT
ATOM      1  N2    G A   1       1.569  -0.343   1.834  0.00  0.00    -0.329 N 
ATOM      2  H21   G A   1       0.653  -0.263   2.255  0.00  0.00    +0.145 HD
ATOM      3  H22   G A   1       2.317  -0.404   2.522  0.00  0.00    +0.145 HD
ATOM      4  C2    G A   1       1.714  -1.246   0.833  0.00  0.00    +0.195 A 
ATOM      5  N1    G A   1       0.615  -1.422   0.015  0.00  0.00    -0.293 N 
ATOM      6  H1    G A   1      -0.216  -0.876   0.158  0.00  0.00    +0.172 HD
ATOM      7  C6    G A   1       0.580  -2.269  -1.081  0.00  0.00    +0.280 A 
ATOM      8  O6    G A   1      -0.415  -2.364  -1.795  0.00  0.00    -0.265 OA
ATOM      9  C5    G A   1       1.824  -2.986  -1.261  0.00  0.00    +0.172 A 
ATOM     10  N7    G A   1       2.199  -3.889  -2.215  0.00  0.00    -0.229 NA
ATOM     11  C8    G A   1       3.429  -4.217  -1.884  0.00  0.00    +0.203 A 
ATOM     12  N9    G A   1       3.839  -3.612  -0.716  0.00  0.00    -0.285 N 
ATOM     13  C4    G A   1       2.836  -2.755  -0.354  0.00  0.00    +0.171 A 
ATOM     14  N3    G A   1       2.841  -1.893   0.692  0.00  0.00    -0.196 NA
ENDROOT
BRANCH  12  15
ATOM     15  C1*   G A   1       5.106  -3.805  -0.030  0.00  0.00    +0.253 C 
ATOM     16  C2*   G A   1       5.004  -4.198   1.453  0.00  0.00    +0.195 C 
ATOM     17  C3*   G A   1       5.165  -5.721   1.477  0.00  0.00    +0.178 C 
ATOM     18  C4*   G A   1       5.395  -6.102   0.019  0.00  0.00    +0.177 C 
ATOM     19  O4*   G A   1       5.834  -4.899  -0.650  0.00  0.00    -0.346 OA
BRANCH  16  20
ATOM     20  O2*   G A   1       6.081  -3.606   2.211  0.00  0.00    -0.385 OA
ATOM     21  H2*   G A   1       6.927  -3.853   1.797  0.00  0.00    +0.210 HD
ENDBRANCH  16  20
BRANCH  17  22
ATOM     22  O3*   G A   1       3.988  -6.340   1.988  0.00  0.00    -0.386 OA
ATOM     23  H3*   G A   1       4.144  -7.299   2.052  0.00  0.00    +0.210 HD
ENDBRANCH  17  22
BRANCH  18  24
ATOM     24  C5*   G A   1       6.442  -7.195  -0.169  0.00  0.00    +0.190 C 
BRANCH  24  25
ATOM     25  O5*   G A   1       6.509  -7.572  -1.543  0.00  0.00    -0.392 OA
ATOM     26  H5*   G A   1       6.658  -6.753  -2.052  0.00  0.00    +0.210 HD
ENDBRANCH  24  25
ENDBRANCH  18  24
ENDBRANCH  12  15
TORSDOF 5
