REMARK  Name = 
REMARK  6 active torsions:
REMARK  status: ('A' for Active; 'I' for Inactive)
REMARK    1  A    between atoms: N_1  and  C_2
REMARK    2  A    between atoms: C_4  and  O_6
REMARK    3  A    between atoms: C_8  and  C_10
REMARK    4  A    between atoms: C_10  and  O_11
REMARK    5  A    between atoms: C_12  and  O_14
REMARK    6  A    between atoms: C_15  and  O_17
REMARK                            x       y       z     vdW  Elec       q    Type
REMARK                         _______ _______ _______ _____ _____    ______ ____
ROOT
ATOM      1  C   UNL     1       2.447  -0.049   0.072  0.00  0.00    +0.139 C 
ATOM      2  C   UNL     1       2.955   1.039  -0.890  0.00  0.00    +0.167 C 
ATOM      3  C   UNL     1       2.716   0.654  -2.355  0.00  0.00    +0.176 C 
ATOM      4  C   UNL     1       3.257  -0.752  -2.675  0.00  0.00    +0.178 C 
ATOM      5  O   UNL     1       2.820  -1.729  -1.717  0.00  0.00    -0.342 OA
ATOM      6  C   UNL     1       3.063  -1.416  -0.344  0.00  0.00    +0.267 C 
ENDROOT
BRANCH   1   7
ATOM      7  N   UNL     1       0.967  -0.074   0.107  0.00  0.00    -0.321 NA
ATOM      8  H   UNL     1       0.617  -0.559  -0.722  0.00  0.00    +0.119 HD
ATOM      9  H   UNL     1       0.669  -0.659   0.891  0.00  0.00    +0.119 HD
ENDBRANCH   1   7
BRANCH   2  10
ATOM     10  O   UNL     1       4.362   1.248  -0.674  0.00  0.00    -0.387 OA
ATOM     11  H   UNL     1       4.619   1.907  -1.354  0.00  0.00    +0.210 HD
ENDBRANCH   2  10
BRANCH   3  12
ATOM     12  O   UNL     1       3.296   1.658  -3.195  0.00  0.00    -0.387 OA
ATOM     13  H   UNL     1       3.011   1.473  -4.109  0.00  0.00    +0.210 HD
ENDBRANCH   3  12
BRANCH   6  14
ATOM     14  O   UNL     1       4.442  -1.514  -0.028  0.00  0.00    -0.366 OA
ATOM     15  H   UNL     1       4.793  -0.601  -0.003  0.00  0.00    +0.213 HD
ENDBRANCH   6  14
BRANCH   4  16
ATOM     16  C   UNL     1       4.774  -0.813  -2.939  0.00  0.00    +0.190 C 
BRANCH  16  17
ATOM     17  O   UNL     1       5.141  -2.125  -3.368  0.00  0.00    -0.392 OA
ATOM     18  H   UNL     1       4.906  -2.716  -2.626  0.00  0.00    +0.210 HD
ENDBRANCH  16  17
ENDBRANCH   4  16
TORSDOF 6
