REMARK  Name = 
REMARK  6 active torsions:
REMARK  status: ('A' for Active; 'I' for Inactive)
REMARK    1  A    between atoms: N_1  and  CA_2
REMARK    2  A    between atoms: CA_2  and  CB_4
REMARK    3  A    between atoms: CA_2  and  C_9
REMARK    4  A    between atoms: CB_4  and  CG_5
REMARK    5  A    between atoms: CG_5  and  CD_6
REMARK    6  A    between atoms: C_9  and  O_10
REMARK                            x       y       z     vdW  Elec       q    Type
REMARK                         _______ _______ _______ _____ _____    ______ ____
ROOT
ATOM      1  CA  GLN A   1       2.374  -0.007  -0.029  0.00  0.00    +0.161 C 
ENDROOT
BRANCH   1   2
ATOM      2  N   GLN A   1       2.844   0.940   1.035  0.00  0.00    -0.318 NA
ATOM      3  H1  GLN A   1       3.762   1.309   0.758  0.00  0.00    +0.119 HD
ATOM      4  H2  GLN A   1       2.237   1.766   1.001  0.00  0.00    +0.119 HD
ENDBRANCH   1   2
BRANCH   1   5
ATOM      5  C   GLN A   1       2.846  -1.426   0.359  0.00  0.00    +0.322 C 
ATOM      6  OXT GLN A   1       2.676  -2.437  -0.302  0.00  0.00    -0.249 OA
BRANCH   5   7
ATOM      7  O   GLN A   1       3.465  -1.428   1.568  0.00  0.00    -0.480 OA
ATOM      8  H   GLN A   1       3.405  -0.494   1.893  0.00  0.00    +0.295 HD
ENDBRANCH   5   7
ENDBRANCH   1   5
BRANCH   1   9
ATOM      9  CB  GLN A   1       2.910   0.451  -1.389  0.00  0.00    +0.039 C 
BRANCH   9  10
ATOM     10  CG  GLN A   1       2.402  -0.384  -2.565  0.00  0.00    +0.097 C 
BRANCH  10  11
ATOM     11  CD  GLN A   1       2.934   0.126  -3.886  0.00  0.00    +0.211 C 
ATOM     12  OE1 GLN A   1       3.667   1.098  -4.013  0.00  0.00    -0.276 OA
ATOM     13  NE2 GLN A   1       2.523  -0.599  -4.965  0.00  0.00    -0.329 N 
ATOM     14 HE21 GLN A   1       2.882  -0.341  -5.874  0.00  0.00    +0.145 HD
ATOM     15 HE22 GLN A   1       1.971  -1.443  -4.882  0.00  0.00    +0.145 HD
ENDBRANCH  10  11
ENDBRANCH   9  10
ENDBRANCH   1   9
TORSDOF 6
