REMARK  Name = 
REMARK  45 active torsions:
REMARK  status: ('A' for Active; 'I' for Inactive)
REMARK    1  A    between atoms: C_1  and  C_2
REMARK    2  A    between atoms: C_2  and  C_3
REMARK    3  A    between atoms: C_3  and  C_4
REMARK    4  A    between atoms: C_4  and  C_5
REMARK    5  A    between atoms: C_5  and  C_6
REMARK    6  A    between atoms: C_6  and  C_7
REMARK    7  A    between atoms: C_7  and  C_8
REMARK    8  A    between atoms: C_8  and  C_9
REMARK    9  A    between atoms: C_9  and  C_10
REMARK   10  A    between atoms: C_10  and  C_11
REMARK   11  A    between atoms: C_11  and  C_12
REMARK   12  A    between atoms: C_12  and  C_13
REMARK   13  A    between atoms: C_13  and  C_14
REMARK   14  A    between atoms: C_14  and  C_15
REMARK   15  A    between atoms: C_15  and  C_16
REMARK   16  A    between atoms: C_16  and  O_18
REMARK   17  A    between atoms: O_18  and  C_19
REMARK   18  A    between atoms: C_19  and  C_20
REMARK   19  A    between atoms: C_20  and  C_22
REMARK   20  A    between atoms: C_20  and  O_34
REMARK   21  A    between atoms: C_22  and  O_23
REMARK   22  A    between atoms: O_23  and  P_24
REMARK   23  A    between atoms: P_24  and  O_25
REMARK   24  A    between atoms: P_24  and  O_27
REMARK   25  A    between atoms: O_27  and  C_28
REMARK   26  A    between atoms: C_28  and  C_29
REMARK   27  A    between atoms: C_29  and  O_31
REMARK   28  A    between atoms: C_29  and  C_32
REMARK   29  A    between atoms: C_32  and  O_33
REMARK   30  A    between atoms: O_34  and  C_35
REMARK   31  A    between atoms: C_35  and  C_37
REMARK   32  A    between atoms: C_37  and  C_38
REMARK   33  A    between atoms: C_38  and  C_39
REMARK   34  A    between atoms: C_39  and  C_40
REMARK   35  A    between atoms: C_40  and  C_41
REMARK   36  A    between atoms: C_41  and  C_42
REMARK   37  A    between atoms: C_42  and  C_43
REMARK   38  A    between atoms: C_43  and  C_44
REMARK   39  A    between atoms: C_44  and  C_45
REMARK   40  A    between atoms: C_45  and  C_46
REMARK   41  A    between atoms: C_46  and  C_47
REMARK   42  A    between atoms: C_47  and  C_48
REMARK   43  A    between atoms: C_48  and  C_49
REMARK   44  A    between atoms: C_49  and  C_50
REMARK   45  A    between atoms: C_50  and  C_51
REMARK                            x       y       z     vdW  Elec       q    Type
REMARK                         _______ _______ _______ _____ _____    ______ ____
ROOT
ATOM      1  C   UNL     1      19.606  15.214  -8.188  0.00  0.00    +0.240 C 
ENDROOT
BRANCH   1   2
ATOM      2  C   UNL     1      18.288  14.564  -7.739  0.00  0.00    +0.220 C 
BRANCH   2   3
ATOM      3  O   UNL     1      17.249  14.897  -8.657  0.00  0.00    -0.283 OA
BRANCH   3   4
ATOM      4  P   UNL     1      15.758  14.298  -8.321  0.00  0.00    +0.475 P 
ATOM      5  O   UNL     1      14.816  14.838  -9.400  0.00  0.00    -0.227 OA
BRANCH   4   6
ATOM      6  O   UNL     1      16.091  12.975  -9.384  0.00  0.00    -0.302 OA
ATOM      7  H   UNL     1      16.002  13.386 -10.269  0.00  0.00    +0.222 HD
ENDBRANCH   4   6
BRANCH   4   8
ATOM      8  O   UNL     1      15.426  15.622  -7.257  0.00  0.00    -0.284 OA
BRANCH   8   9
ATOM      9  C   UNL     1      14.083  15.634  -6.790  0.00  0.00    +0.206 C 
BRANCH   9  10
ATOM     10  C   UNL     1      13.847  16.805  -5.836  0.00  0.00    +0.166 C 
BRANCH  10  11
ATOM     11  O   UNL     1      12.482  16.784  -5.393  0.00  0.00    -0.387 OA
ATOM     12  H   UNL     1      11.923  16.952  -6.175  0.00  0.00    +0.210 HD
ENDBRANCH  10  11
BRANCH  10  13
ATOM     13  C   UNL     1      14.747  16.727  -4.600  0.00  0.00    +0.189 C 
BRANCH  13  14
ATOM     14  O   UNL     1      14.499  15.511  -3.891  0.00  0.00    -0.392 OA
ATOM     15  H   UNL     1      13.530  15.494  -3.758  0.00  0.00    +0.210 HD
ENDBRANCH  13  14
ENDBRANCH  10  13
ENDBRANCH   9  10
ENDBRANCH   8   9
ENDBRANCH   4   8
ENDBRANCH   3   4
ENDBRANCH   2   3
ENDBRANCH   1   2
BRANCH   1  16
ATOM     16  C   UNL     1      20.708  14.909  -7.170  0.00  0.00    +0.279 C 
BRANCH  16  17
ATOM     17  O   UNL     1      21.973  15.476  -7.549  0.00  0.00    -0.461 OA
BRANCH  17  18
ATOM     18  C   UNL     1      22.669  14.770  -8.481  0.00  0.00    +0.307 C 
ATOM     19  O   UNL     1      22.305  13.705  -8.963  0.00  0.00    -0.251 OA
BRANCH  18  20
ATOM     20  C   UNL     1      23.986  15.452  -8.770  0.00  0.00    +0.120 C 
BRANCH  20  21
ATOM     21  C   UNL     1      24.411  15.212 -10.214  0.00  0.00    +0.011 C 
BRANCH  21  22
ATOM     22  C   UNL     1      25.734  15.901 -10.542  0.00  0.00    +0.001 C 
BRANCH  22  23
ATOM     23  C   UNL     1      26.110  15.653 -12.002  0.00  0.00    +0.000 C 
BRANCH  23  24
ATOM     24  C   UNL     1      27.431  16.325 -12.370  0.00  0.00    +0.000 C 
BRANCH  24  25
ATOM     25  C   UNL     1      27.774  16.064 -13.835  0.00  0.00    +0.000 C 
BRANCH  25  26
ATOM     26  C   UNL     1      29.090  16.731 -14.223  0.00  0.00    -0.000 C 
BRANCH  26  27
ATOM     27  C   UNL     1      29.428  16.463 -15.688  0.00  0.00    -0.000 C 
BRANCH  27  28
ATOM     28  C   UNL     1      30.742  17.134 -16.077  0.00  0.00    -0.000 C 
BRANCH  28  29
ATOM     29  C   UNL     1      31.085  16.869 -17.541  0.00  0.00    -0.000 C 
BRANCH  29  30
ATOM     30  C   UNL     1      32.403  17.539 -17.923  0.00  0.00    -0.000 C 
BRANCH  30  31
ATOM     31  C   UNL     1      32.750  17.280 -19.388  0.00  0.00    -0.000 C 
BRANCH  31  32
ATOM     32  C   UNL     1      34.069  17.953 -19.765  0.00  0.00    -0.000 C 
BRANCH  32  34
ATOM     33  C   UNL     1      35.736  18.366 -21.602  0.00  0.00    +0.004 C 
ATOM     34  C   UNL     1      34.423  17.698 -21.228  0.00  0.00    -0.003 C 
ENDBRANCH  32  34
ENDBRANCH  31  32
ENDBRANCH  30  31
ENDBRANCH  29  30
ENDBRANCH  28  29
ENDBRANCH  27  28
ENDBRANCH  26  27
ENDBRANCH  25  26
ENDBRANCH  24  25
ENDBRANCH  23  24
ENDBRANCH  22  23
ENDBRANCH  21  22
ENDBRANCH  20  21
ENDBRANCH  18  20
ENDBRANCH  17  18
ENDBRANCH  16  17
ENDBRANCH   1  16
BRANCH   1  35
ATOM     35  O   UNL     1      19.350  16.634  -8.241  0.00  0.00    -0.456 OA
BRANCH  35  36
ATOM     36  C   UNL     1      19.769  17.242  -9.383  0.00  0.00    +0.308 C 
ATOM     37  O   UNL     1      20.793  16.965  -9.992  0.00  0.00    -0.251 OA
BRANCH  36  38
ATOM     38  C   UNL     1      18.697  18.171  -9.896  0.00  0.00    +0.120 C 
BRANCH  38  39
ATOM     39  C   UNL     1      18.228  19.200  -8.875  0.00  0.00    +0.011 C 
BRANCH  39  40
ATOM     40  C   UNL     1      19.316  20.224  -8.558  0.00  0.00    +0.001 C 
BRANCH  40  41
ATOM     41  C   UNL     1      18.815  21.244  -7.541  0.00  0.00    +0.000 C 
BRANCH  41  42
ATOM     42  C   UNL     1      19.900  22.267  -7.215  0.00  0.00    +0.000 C 
BRANCH  42  43
ATOM     43  C   UNL     1      19.397  23.281  -6.194  0.00  0.00    +0.000 C 
BRANCH  43  44
ATOM     44  C   UNL     1      20.478  24.306  -5.867  0.00  0.00    -0.000 C 
BRANCH  44  45
ATOM     45  C   UNL     1      19.973  25.322  -4.847  0.00  0.00    -0.000 C 
BRANCH  45  46
ATOM     46  C   UNL     1      21.055  26.348  -4.521  0.00  0.00    -0.000 C 
BRANCH  46  47
ATOM     47  C   UNL     1      20.552  27.366  -3.500  0.00  0.00    -0.000 C 
BRANCH  47  48
ATOM     48  C   UNL     1      21.635  28.392  -3.179  0.00  0.00    -0.000 C 
BRANCH  48  49
ATOM     49  C   UNL     1      21.140  29.413  -2.157  0.00  0.00    -0.000 C 
BRANCH  49  50
ATOM     50  C   UNL     1      22.228  30.436  -1.837  0.00  0.00    -0.000 C 
BRANCH  50  51
ATOM     51  C   UNL     1      21.740  31.460  -0.815  0.00  0.00    -0.003 C 
ATOM     52  C   UNL     1      22.823  32.477  -0.495  0.00  0.00    +0.004 C 
ENDBRANCH  50  51
ENDBRANCH  49  50
ENDBRANCH  48  49
ENDBRANCH  47  48
ENDBRANCH  46  47
ENDBRANCH  45  46
ENDBRANCH  44  45
ENDBRANCH  43  44
ENDBRANCH  42  43
ENDBRANCH  41  42
ENDBRANCH  40  41
ENDBRANCH  39  40
ENDBRANCH  38  39
ENDBRANCH  36  38
ENDBRANCH  35  36
ENDBRANCH   1  35
TORSDOF 43
