REMARK  Name = 
REMARK  9 active torsions:
REMARK  status: ('A' for Active; 'I' for Inactive)
REMARK    1  A    between atoms: C_1  and  N_2
REMARK    2  A    between atoms: N_2  and  C_3
REMARK    3  A    between atoms: N_2  and  C_4
REMARK    4  A    between atoms: N_2  and  C_5
REMARK    5  A    between atoms: C_5  and  C_6
REMARK    6  A    between atoms: C_6  and  O_8
REMARK    7  A    between atoms: C_6  and  C_9
REMARK    8  A    between atoms: C_9  and  C_10
REMARK    9  A    between atoms: C_10  and  O_11
REMARK                            x       y       z     vdW  Elec       q    Type
REMARK                         _______ _______ _______ _____ _____    ______ ____
ROOT
ATOM      1  C   UNL     1       4.140   0.610   1.513  0.00  0.00    +0.170 C 
ENDROOT
BRANCH   1   2
ATOM      2  O   UNL     1       5.117   1.406   2.202  0.00  0.00    -0.386 OA
ATOM      3  H   UNL     1       4.655   2.097   2.715  0.00  0.00    +0.210 HD
ENDBRANCH   1   2
BRANCH   1   4
ATOM      4  C   UNL     1       4.866  -0.574   0.811  0.00  0.00    +0.164 C 
BRANCH   4   6
ATOM      5  C   UNL     1       7.056   0.644   0.292  0.00  0.00    +0.192 C 
ATOM      6  N   UNL     1       5.893  -0.153  -0.293  0.00  0.00    +0.239 N 
ATOM      7  C   UNL     1       6.459  -1.433  -0.914  0.00  0.00    +0.192 C 
ATOM      8  C   UNL     1       5.230   0.657  -1.395  0.00  0.00    +0.192 C 
ENDBRANCH   4   6
ENDBRANCH   1   4
BRANCH   1   9
ATOM      9  C   UNL     1       3.096   0.166   2.545  0.00  0.00    +0.157 C 
BRANCH   9  10
ATOM     10  C   UNL     1       1.955  -0.597   1.940  0.00  0.00    +0.307 C 
ATOM     11  O   UNL     1       1.877  -0.966   0.779  0.00  0.00    -0.251 OA
BRANCH  10  12
ATOM     12  O   UNL     1       0.993  -0.861   2.836  0.00  0.00    -0.481 OA
ATOM     13  H   UNL     1       0.284  -1.354   2.368  0.00  0.00    +0.295 HD
ENDBRANCH  10  12
ENDBRANCH   9  10
ENDBRANCH   1   9
TORSDOF 6
