REMARK  Name = 
REMARK  5 active torsions:
REMARK  status: ('A' for Active; 'I' for Inactive)
REMARK    1  A    between atoms: N_1  and  CA_2
REMARK    2  A    between atoms: CA_2  and  C_4
REMARK    3  A    between atoms: CA_2  and  C_12
REMARK    4  A    between atoms: C_4  and  N_5
REMARK    5  A    between atoms: C_12  and  O_13
REMARK                            x       y       z     vdW  Elec       q    Type
REMARK                         _______ _______ _______ _____ _____    ______ ____
ROOT
ATOM      1  C   UNL     1       2.886  -1.302  -0.294  0.00  0.00    +0.196 C 
ENDROOT
BRANCH   1   2
ATOM      2  N   UNL     1       2.130  -2.339   0.399  0.00  0.00    -0.149 N 
ATOM      3  C   UNL     1       2.316  -2.674   1.735  0.00  0.00    +0.361 A 
ATOM      4  O   UNL     1       2.702  -1.920   2.616  0.00  0.00    -0.244 OA
ATOM      5  N   UNL     1       2.069  -3.991   1.892  0.00  0.00    -0.240 N 
ATOM      6  H   UNL     1       2.218  -4.499   2.745  0.00  0.00    +0.177 HD
ATOM      7  C   UNL     1       2.078  -4.574   0.681  0.00  0.00    +0.441 A 
ATOM      8  O   UNL     1       2.111  -5.773   0.466  0.00  0.00    -0.221 OA
ATOM      9  O   UNL     1       2.125  -3.599  -0.282  0.00  0.00    -0.316 OA
ENDBRANCH   1   2
BRANCH   1  10
ATOM     10  CA  UNL     1       2.382   0.125  -0.006  0.00  0.00    +0.184 C 
BRANCH  10  11
ATOM     11  N   UNL     1       2.517   0.583   1.414  0.00  0.00    -0.317 NA
ATOM     12  H1  UNL     1       2.443  -0.239   2.038  0.00  0.00    +0.119 HD
ATOM     13  H2  UNL     1       3.490   0.869   1.562  0.00  0.00    +0.119 HD
ENDBRANCH  10  11
BRANCH  10  14
ATOM     14  C   UNL     1       0.910   0.235  -0.425  0.00  0.00    +0.324 C 
ATOM     15  OXT UNL     1       0.470  -0.072  -1.521  0.00  0.00    -0.249 OA
BRANCH  14  16
ATOM     16  O   UNL     1       0.142   0.726   0.582  0.00  0.00    -0.479 OA
ATOM     17  H   UNL     1       0.768   0.928   1.323  0.00  0.00    +0.295 HD
ENDBRANCH  14  16
ENDBRANCH  10  14
ENDBRANCH   1  10
TORSDOF 5
