REMARK  Name = 
REMARK  13 active torsions:
REMARK  status: ('A' for Active; 'I' for Inactive)
REMARK    1  A    between atoms: C_1  and  O_2
REMARK    2  A    between atoms: O_2  and  C_3
REMARK    3  A    between atoms: C_6  and  C_8
REMARK    4  A    between atoms: C_11  and  O_12
REMARK    5  A    between atoms: O_12  and  C_13
REMARK    6  A    between atoms: C_21  and  C_22
REMARK    7  A    between atoms: C_26  and  O_28
REMARK    8  A    between atoms: O_28  and  C_29
REMARK    9  A    between atoms: C_30  and  O_32
REMARK   10  A    between atoms: O_32  and  C_33
REMARK   11  A    between atoms: C_36  and  C_37
REMARK   12  A    between atoms: C_39  and  C_41
REMARK   13  A    between atoms: C_42  and  O_44
REMARK                            x       y       z     vdW  Elec       q    Type
REMARK                         _______ _______ _______ _____ _____    ______ ____
ROOT
ATOM      1  C   UNL     1      20.699  12.234   1.940  0.00  0.00    +0.147 C 
ATOM      2  C   UNL     1      20.181  10.440   1.348  0.00  0.00    +0.150 C 
ATOM      3  C   UNL     1      20.165   8.456   1.401  0.00  0.00    +0.040 C 
ATOM      4  C   UNL     1      19.157   7.873   0.311  0.00  0.00    +0.014 C 
ATOM      5  C   UNL     1      20.282   6.783   2.275  0.00  0.00    -0.019 C 
ATOM      6  C   UNL     1      19.676   5.415   2.341  0.00  0.00    -0.033 C 
ATOM      7  C   UNL     1      20.400   4.039   2.973  0.00  0.00    +0.042 C 
ATOM      8  C   UNL     1      18.362   4.576   1.740  0.00  0.00    +0.236 C 
ATOM      9  C   UNL     1      16.809   4.717   1.970  0.00  0.00    +0.186 C 
ATOM     10  C   UNL     1      16.686   6.054   2.589  0.00  0.00    +0.008 C 
ATOM     11  C   UNL     1      16.026   7.063   2.056  0.00  0.00    -0.001 C 
ATOM     12  C   UNL     1      16.493   8.405   2.255  0.00  0.00    +0.008 C 
ATOM     13  C   UNL     1      15.789   9.438   1.762  0.00  0.00    +0.012 C 
ATOM     14  C   UNL     1      14.491   9.271   1.052  0.00  0.00    +0.049 C 
ATOM     15  C   UNL     1      16.287  10.860   1.903  0.00  0.00    +0.244 C 
ATOM     16  O   UNL     1      17.288  11.201   2.515  0.00  0.00    -0.270 OA
ATOM     17  N   UNL     1      15.357  11.697   1.285  0.00  0.00    -0.279 N 
ATOM     18  H   UNL     1      14.422  11.380   1.175  0.00  0.00    +0.155 HD
ATOM     19  C   UNL     1      15.498  12.979   0.916  0.00  0.00    +0.085 C 
ATOM     20  C   UNL     1      16.804  13.551   0.794  0.00  0.00    +0.207 C 
ATOM     21  O   UNL     1      17.700  13.027   0.152  0.00  0.00    -0.286 OA
ATOM     22  C   UNL     1      16.888  14.792   1.576  0.00  0.00    +0.047 C 
ATOM     23  C   UNL     1      15.911  15.714   1.431  0.00  0.00    +0.173 C 
ATOM     24  C   UNL     1      14.681  15.226   0.701  0.00  0.00    +0.222 C 
ATOM     25  O   UNL     1      13.795  15.964   0.239  0.00  0.00    -0.284 OA
ATOM     26  C   UNL     1      18.152  14.871   2.306  0.00  0.00    +0.046 C 
ATOM     27  C   UNL     1      19.267  15.173   1.310  0.00  0.00    -0.007 C 
ATOM     28  C   UNL     1      18.892  16.049   0.035  0.00  0.00    +0.008 C 
ATOM     29  C   UNL     1      14.449  13.773   0.727  0.00  0.00    +0.081 C 
ATOM     30  C   UNL     1      20.165  13.769   1.122  0.00  0.00    +0.037 C 
ENDROOT
BRANCH   1  32
ATOM     31  C   UNL     1      22.607  14.119   2.419  0.00  0.00    +0.194 C 
ATOM     32  O   UNL     1      22.215  12.661   2.115  0.00  0.00    -0.377 OA
ENDBRANCH   1  32
BRANCH   2  33
ATOM     33  O   UNL     1      20.249  10.666  -0.101  0.00  0.00    -0.389 OA
ATOM     34  H   UNL     1      19.797  11.520  -0.252  0.00  0.00    +0.210 HD
ENDBRANCH   2  33
BRANCH   9  35
ATOM     35  O   UNL     1      16.210   4.417   0.709  0.00  0.00    -0.372 OA
ATOM     36  C   UNL     1      14.814   4.461   0.540  0.00  0.00    +0.195 C 
ENDBRANCH   9  35
BRANCH  23  37
ATOM     37  O   UNL     1      16.105  16.998   1.906  0.00  0.00    -0.491 OA
ATOM     38  C   UNL     1      15.235  17.991   1.373  0.00  0.00    +0.277 C 
ENDBRANCH  23  37
BRANCH   8  39
ATOM     39  O   UNL     1      18.763   4.190   0.454  0.00  0.00    -0.440 OA
BRANCH  39  40
ATOM     40  C   UNL     1      18.982   2.820   0.167  0.00  0.00    +0.398 C 
ATOM     41  O   UNL     1      18.577   1.862   0.837  0.00  0.00    -0.227 OA
ATOM     42  N   UNL     1      19.774   2.726  -0.900  0.00  0.00    -0.295 N 
ATOM     43  H   UNL     1      20.183   1.839  -1.187  0.00  0.00    +0.148 HD
ATOM     44  H   UNL     1      20.184   3.569  -1.280  0.00  0.00    +0.148 HD
ENDBRANCH  39  40
ENDBRANCH   8  39
TORSDOF 6
