REMARK  Name = 
REMARK  1 active torsions:
REMARK  status: ('A' for Active; 'I' for Inactive)
REMARK    1  A    between atoms: C_1  and  C_2
REMARK                            x       y       z     vdW  Elec       q    Type
REMARK                         _______ _______ _______ _____ _____    ______ ____
ROOT
ATOM      1  C   UNL     1       1.114   0.188   0.019  0.00  0.00    +0.109 C 
ATOM      2  C   UNL     1       2.580   0.015   0.031  0.00  0.00    +0.196 A 
ATOM      3  O   UNL     1       3.328   1.163   0.026  0.00  0.00    -0.422 OA
ATOM      4  C   UNL     1       4.624   0.723   0.024  0.00  0.00    +0.256 A 
ATOM      5  N   UNL     1       5.724   1.514  -0.008  0.00  0.00    -0.179 NA
ATOM      6  C   UNL     1       6.844   0.848  -0.036  0.00  0.00    +0.196 A 
ATOM      7  N   UNL     1       6.915  -0.528  -0.003  0.00  0.00    -0.293 N 
ATOM      8  H   UNL     1       7.809  -0.993  -0.039  0.00  0.00    +0.172 HD
ATOM      9  C   UNL     1       5.818  -1.373   0.025  0.00  0.00    +0.282 A 
ATOM     10  O   UNL     1       5.940  -2.592   0.030  0.00  0.00    -0.265 OA
ATOM     11  N   UNL     1       8.027   1.506  -0.111  0.00  0.00    -0.329 N 
ATOM     12  H   UNL     1       8.886   1.060   0.174  0.00  0.00    +0.145 HD
ATOM     13  H   UNL     1       7.973   2.503   0.073  0.00  0.00    +0.145 HD
ATOM     14  C   UNL     1       4.569  -0.653   0.036  0.00  0.00    +0.193 A 
ATOM     15  N   UNL     1       3.277  -1.107   0.041  0.00  0.00    -0.206 NA
ENDROOT
TORSDOF 0
