REMARK  Name = 
REMARK  8 active torsions:
REMARK  status: ('A' for Active; 'I' for Inactive)
REMARK    1  A    between atoms: C_1  and  O_2
REMARK    2  A    between atoms: O_2  and  C_3
REMARK    3  A    between atoms: C_5  and  C_6
REMARK    4  A    between atoms: C_6  and  N_7
REMARK    5  A    between atoms: N_7  and  C_8
REMARK    6  A    between atoms: N_7  and  C_9
REMARK    7  A    between atoms: C_21  and  O_22
REMARK    8  A    between atoms: O_22  and  C_23
REMARK                            x       y       z     vdW  Elec       q    Type
REMARK                         _______ _______ _______ _____ _____    ______ ____
ROOT
ATOM      1  C   UNL     1       2.021   6.104  -0.716  0.00  0.00    +0.031 A 
ATOM      2  C   UNL     1       1.657   6.700   0.502  0.00  0.00    +0.036 A 
ATOM      3  C   UNL     1       1.480   8.105   0.645  0.00  0.00    +0.042 A 
ATOM      4  C   UNL     1       1.622   8.940  -0.460  0.00  0.00    +0.078 A 
ATOM      5  N   UNL     1       1.492  10.267  -0.391  0.00  0.00    -0.215 NA
ATOM      6  C   UNL     1       1.243  10.796   0.805  0.00  0.00    +0.215 A 
ATOM      7  N   UNL     1       1.050  10.104   1.928  0.00  0.00    -0.199 NA
ATOM      8  N   UNL     1       1.162  12.172   0.880  0.00  0.00    -0.327 N 
ATOM      9  H   UNL     1       0.600  12.440   1.677  0.00  0.00    +0.145 HD
ATOM     10  H   UNL     1       0.902  12.542  -0.022  0.00  0.00    +0.145 HD
ATOM     11  C   UNL     1       1.924   8.355  -1.677  0.00  0.00    +0.030 A 
ATOM     12  C   UNL     1       1.177   8.772   1.837  0.00  0.00    +0.129 A 
ATOM     13  N   UNL     1       0.963   8.078   3.037  0.00  0.00    -0.343 N 
ATOM     14  H   UNL     1       1.751   7.480   3.258  0.00  0.00    +0.144 HD
ATOM     15  H   UNL     1       0.816   8.781   3.758  0.00  0.00    +0.144 HD
ATOM     16  C   UNL     1       2.132   6.974  -1.805  0.00  0.00    +0.025 A 
ENDROOT
BRANCH   1  17
ATOM     17  N   UNL     1       2.258   4.740  -0.837  0.00  0.00    -0.328 N 
ATOM     18  C   UNL     1       1.883   3.816   0.230  0.00  0.00    +0.129 C 
BRANCH  17  19
ATOM     19  C   UNL     1       3.139   4.197  -1.894  0.00  0.00    +0.143 C 
BRANCH  19  24
ATOM     20  C   UNL     1       6.560   5.010  -0.324  0.00  0.00    +0.121 A 
ATOM     21  C   UNL     1       7.424   4.633  -1.345  0.00  0.00    +0.049 A 
ATOM     22  C   UNL     1       6.909   4.145  -2.543  0.00  0.00    +0.049 A 
ATOM     23  C   UNL     1       5.526   4.019  -2.728  0.00  0.00    +0.125 A 
ATOM     24  C   UNL     1       4.635   4.431  -1.710  0.00  0.00    +0.015 A 
ATOM     25  C   UNL     1       5.179   4.957  -0.523  0.00  0.00    +0.054 A 
BRANCH  20  27
ATOM     26  C   UNL     1       8.052   4.645   1.425  0.00  0.00    +0.277 C 
ATOM     27  O   UNL     1       6.994   5.446   0.899  0.00  0.00    -0.495 OA
ENDBRANCH  20  27
BRANCH  23  28
ATOM     28  O   UNL     1       4.959   3.491  -3.862  0.00  0.00    -0.495 OA
ATOM     29  C   UNL     1       5.852   3.053  -4.883  0.00  0.00    +0.277 C 
ENDBRANCH  23  28
ENDBRANCH  19  24
ENDBRANCH  17  19
ENDBRANCH   1  17
TORSDOF 5
