REMARK  Name = 
REMARK  2 active torsions:
REMARK  status: ('A' for Active; 'I' for Inactive)
REMARK    1  A    between atoms: O_1  and  C_2
REMARK    2  A    between atoms: C_2  and  CA_4
REMARK                            x       y       z     vdW  Elec       q    Type
REMARK                         _______ _______ _______ _____ _____    ______ ____
ROOT
ATOM      1  CA  PRO A   1       3.269  -0.653  -1.310  0.00  0.00    +0.163 C 
ATOM      2  N   PRO A   1       3.158  -2.131  -1.523  0.00  0.00    -0.304 NA
ATOM      3  H   PRO A   1       2.771  -2.550  -0.670  0.00  0.00    +0.123 HD
ATOM      4  CD  PRO A   1       4.524  -2.651  -1.700  0.00  0.00    +0.082 C 
ATOM      5  CG  PRO A   1       5.399  -1.462  -2.036  0.00  0.00    +0.017 C 
ATOM      6  CB  PRO A   1       4.750  -0.317  -1.287  0.00  0.00    +0.031 C 
ENDROOT
BRANCH   1   7
ATOM      7  C   PRO A   1       2.539   0.061  -2.461  0.00  0.00    +0.322 C 
ATOM      8  OXT PRO A   1       2.501   1.270  -2.626  0.00  0.00    -0.249 OA
BRANCH   7   9
ATOM      9  O   PRO A   1       1.917  -0.826  -3.280  0.00  0.00    -0.480 OA
ATOM     10  H   PRO A   1       2.143  -1.719  -2.917  0.00  0.00    +0.295 HD
ENDBRANCH   7   9
ENDBRANCH   1   7
TORSDOF 2
