REMARK  Name = 
REMARK  15 active torsions:
REMARK  status: ('A' for Active; 'I' for Inactive)
REMARK    1  A    between atoms: C_1  and  C_2
REMARK    2  A    between atoms: N_4  and  C_5
REMARK    3  A    between atoms: C_5  and  C_7
REMARK    4  A    between atoms: C_5  and  C_22
REMARK    5  A    between atoms: C_7  and  C_8
REMARK    6  A    between atoms: C_11  and  P_18
REMARK    7  A    between atoms: C_12  and  P_14
REMARK    8  A    between atoms: P_14  and  O_15
REMARK    9  A    between atoms: P_14  and  O_16
REMARK   10  A    between atoms: P_18  and  O_19
REMARK   11  A    between atoms: P_18  and  O_20
REMARK   12  A    between atoms: N_24  and  C_25
REMARK   13  A    between atoms: N_31  and  C_32
REMARK   14  A    between atoms: C_32  and  C_33
REMARK   15  A    between atoms: C_36  and  C_39
REMARK                            x       y       z     vdW  Elec       q    Type
REMARK                         _______ _______ _______ _____ _____    ______ ____
ROOT
ATOM      1  C   UNL     1      11.135   3.201  -0.191  0.00  0.00    +0.163 C 
ENDROOT
BRANCH   1   4
ATOM      2  C   UNL     1      14.572   2.491   1.304  0.00  0.00    +0.109 C 
ATOM      3  C   UNL     1      13.433   2.368   0.342  0.00  0.00    +0.211 C 
ATOM      4  N   UNL     1      12.409   3.243   0.573  0.00  0.00    -0.304 N 
ATOM      5  H   UNL     1      12.574   4.103   1.083  0.00  0.00    +0.149 HD
ATOM      6  O   UNL     1      13.425   1.548  -0.578  0.00  0.00    -0.276 OA
ENDBRANCH   1   4
BRANCH   1   7
ATOM      7  C   UNL     1      10.342   4.492   0.063  0.00  0.00    +0.234 C 
ATOM      8  N   UNL     1       9.029   4.674  -0.193  0.00  0.00    -0.302 N 
ATOM      9  H   UNL     1       8.805   5.658  -0.098  0.00  0.00    +0.150 HD
ATOM     10  O   UNL     1      10.951   5.509   0.436  0.00  0.00    -0.274 OA
BRANCH   8  11
ATOM     11  C   UNL     1       7.806   3.844  -0.352  0.00  0.00    +0.159 C 
ATOM     12  C   UNL     1       6.632   4.464   0.433  0.00  0.00    +0.236 C 
ATOM     13  O   UNL     1       5.586   3.872   0.684  0.00  0.00    -0.274 OA
ATOM     14  N   UNL     1       6.749   5.841   0.498  0.00  0.00    -0.296 N 
ATOM     15  C   UNL     1       6.134   6.663  -0.531  0.00  0.00    +0.108 C 
ATOM     16  C   UNL     1       6.105   6.076  -1.964  0.00  0.00    +0.019 C 
ATOM     17  C   UNL     1       7.261   5.191  -2.463  0.00  0.00    +0.004 C 
ATOM     18  C   UNL     1       7.371   3.801  -1.814  0.00  0.00    +0.032 C 
BRANCH  14  19
ATOM     19  C   UNL     1       7.337   6.417   1.704  0.00  0.00    +0.143 C 
BRANCH  19  20
ATOM     20  C   UNL     1       6.406   7.055   2.697  0.00  0.00    -0.030 A 
ATOM     21  C   UNL     1       6.868   8.169   3.410  0.00  0.00    +0.006 A 
ATOM     22  C   UNL     1       6.024   8.861   4.277  0.00  0.00    +0.009 A 
ATOM     23  C   UNL     1       4.686   8.476   4.453  0.00  0.00    -0.018 A 
ATOM     24  C   UNL     1       4.285   7.265   3.862  0.00  0.00    +0.009 A 
ATOM     25  C   UNL     1       5.137   6.557   3.000  0.00  0.00    +0.006 A 
BRANCH  23  26
ATOM     26  C   UNL     1       3.723   9.384   5.120  0.00  0.00    -0.018 A 
ATOM     27  C   UNL     1       3.820  10.777   4.917  0.00  0.00    +0.008 A 
ATOM     28  C   UNL     1       2.882  11.667   5.442  0.00  0.00    +0.001 A 
ATOM     29  C   UNL     1       1.812  11.183   6.183  0.00  0.00    +0.000 A 
ATOM     30  C   UNL     1       1.693   9.813   6.407  0.00  0.00    +0.001 A 
ATOM     31  C   UNL     1       2.642   8.922   5.886  0.00  0.00    +0.008 A 
ENDBRANCH  23  26
ENDBRANCH  19  20
ENDBRANCH  14  19
ENDBRANCH   8  11
ENDBRANCH   1   7
BRANCH   1  32
ATOM     32  C   UNL     1      10.371   1.922   0.074  0.00  0.00    +0.067 C 
BRANCH  32  33
ATOM     33  C   UNL     1       9.769   1.676   1.438  0.00  0.00    -0.044 A 
ATOM     34  C   UNL     1       8.987   0.535   1.504  0.00  0.00    +0.020 A 
ATOM     35  C   UNL     1       8.620  -0.061   2.728  0.00  0.00    +0.078 A 
ATOM     36  C   UNL     1       8.871   0.524   3.862  0.00  0.00    +0.078 A 
ATOM     37  C   UNL     1       9.546   1.770   3.839  0.00  0.00    +0.017 A 
ATOM     38  C   UNL     1      10.023   2.329   2.636  0.00  0.00    +0.004 A 
BRANCH  35  39
ATOM     39  P   UNL     1       8.344  -1.869   2.673  0.00  0.00    +0.359 P 
ATOM     40  O   UNL     1       8.110  -3.399   2.627  0.00  0.00    -0.253 OA
BRANCH  39  41
ATOM     41  O   UNL     1       9.727  -2.065   1.798  0.00  0.00    -0.321 OA
ATOM     42  H   UNL     1       9.910  -3.024   1.812  0.00  0.00    +0.220 HD
ENDBRANCH  39  41
BRANCH  39  43
ATOM     43  O   UNL     1       7.262  -1.612   1.452  0.00  0.00    -0.321 OA
ATOM     44  H   UNL     1       6.614  -2.338   1.456  0.00  0.00    +0.220 HD
ENDBRANCH  39  43
ENDBRANCH  35  39
BRANCH  36  45
ATOM     45  P   UNL     1       8.933  -0.459   5.404  0.00  0.00    +0.359 P 
ATOM     46  O   UNL     1       8.986  -1.291   6.709  0.00  0.00    -0.253 OA
BRANCH  45  47
ATOM     47  O   UNL     1       9.951  -1.530   4.699  0.00  0.00    -0.321 OA
ATOM     48  H   UNL     1      10.101  -2.238   5.362  0.00  0.00    +0.220 HD
ENDBRANCH  45  47
BRANCH  45  49
ATOM     49  O   UNL     1       7.498  -1.129   4.944  0.00  0.00    -0.321 OA
ATOM     50  H   UNL     1       6.740  -0.729   5.414  0.00  0.00    +0.220 HD
ENDBRANCH  45  49
ENDBRANCH  36  45
ENDBRANCH  32  33
ENDBRANCH   1  32
TORSDOF 14
