REMARK  Name = 
REMARK  6 active torsions:
REMARK  status: ('A' for Active; 'I' for Inactive)
REMARK    1  A    between atoms: N_1  and  C_5
REMARK    2  A    between atoms: C_5  and  C_6
REMARK    3  A    between atoms: C_6  and  C_7
REMARK    4  A    between atoms: C_7  and  C_8
REMARK    5  A    between atoms: C_8  and  C_9
REMARK    6  A    between atoms: C_9  and  O_10
REMARK                            x       y       z     vdW  Elec       q    Type
REMARK                         _______ _______ _______ _____ _____    ______ ____
ROOT
ATOM      1  C   UNL     1       2.910  -0.235   1.256  0.00  0.00    +0.051 C 
ENDROOT
BRANCH   1   2
ATOM      2  C   UNL     1       2.321  -0.001  -0.129  0.00  0.00    +0.127 C 
BRANCH   2   3
ATOM      3  N   UNL     1       0.842  -0.054  -0.051  0.00  0.00    +0.219 N 
ATOM      4  H   UNL     1       0.419   0.123  -0.972  0.00  0.00    +0.199 HD
ATOM      5  H   UNL     1       0.464   0.650   0.597  0.00  0.00    +0.199 HD
ATOM      6  H   UNL     1       0.511  -0.976   0.263  0.00  0.00    +0.199 HD
ENDBRANCH   2   3
ENDBRANCH   1   2
BRANCH   1   7
ATOM      7  C   UNL     1       4.442  -0.207   1.263  0.00  0.00    +0.016 C 
BRANCH   7   8
ATOM      8  C   UNL     1       5.031   1.158   0.892  0.00  0.00    +0.120 C 
BRANCH   8   9
ATOM      9  C   UNL     1       6.542   1.125   0.900  0.00  0.00    +0.305 C 
ATOM     10  O   UNL     1       7.201   0.121   0.688  0.00  0.00    -0.251 OA
BRANCH   9  11
ATOM     11  O   UNL     1       7.097   2.339   1.095  0.00  0.00    -0.481 OA
ATOM     12  H   UNL     1       6.482   3.081   1.240  0.00  0.00    +0.295 HD
ENDBRANCH   9  11
ENDBRANCH   8   9
ENDBRANCH   7   8
ENDBRANCH   1   7
TORSDOF 6
