REMARK  Name = 
REMARK  1 active torsions:
REMARK  status: ('A' for Active; 'I' for Inactive)
REMARK    1  A    between atoms: C_1  and  C_2
REMARK                            x       y       z     vdW  Elec       q    Type
REMARK                         _______ _______ _______ _____ _____    ______ ____
ROOT
ATOM      1  C   UNL     1       1.066   0.027  -0.042  0.00  0.00    +0.068 C 
ATOM      2  C   UNL     1       2.556  -0.084  -0.045  0.00  0.00    +0.067 A 
ATOM      3  N   UNL     1       3.280   1.065  -0.049  0.00  0.00    -0.238 NA
ATOM      4  C   UNL     1       4.629   0.985  -0.051  0.00  0.00    +0.223 A 
ATOM      5  N   UNL     1       5.391  -0.115  -0.051  0.00  0.00    -0.215 NA
ATOM      6  C   UNL     1       4.665  -1.245  -0.048  0.00  0.00    +0.181 A 
ATOM      7  N   UNL     1       5.176  -2.516  -0.047  0.00  0.00    -0.216 NA
ATOM      8  C   UNL     1       4.126  -3.306  -0.043  0.00  0.00    +0.199 A 
ATOM      9  N   UNL     1       2.958  -2.595  -0.042  0.00  0.00    -0.342 N 
ATOM     10  H   UNL     1       2.027  -2.988  -0.039  0.00  0.00    +0.167 HD
ATOM     11  C   UNL     1       3.280  -1.265  -0.045  0.00  0.00    +0.106 A 
ENDROOT
TORSDOF 0
