REMARK  Name = 
REMARK  3 active torsions:
REMARK  status: ('A' for Active; 'I' for Inactive)
REMARK    1  A    between atoms: N_1  and  C_2
REMARK    2  A    between atoms: C_6  and  C_8
REMARK    3  A    between atoms: C_8  and  O_9
REMARK                            x       y       z     vdW  Elec       q    Type
REMARK                         _______ _______ _______ _____ _____    ______ ____
ROOT
ATOM      1  C   UNL     1       2.371  -0.076  -0.015  0.00  0.00    +0.025 A 
ATOM      2  C   UNL     1       3.073  -1.283  -0.057  0.00  0.00    +0.037 A 
ATOM      3  C   UNL     1       4.467  -1.297  -0.205  0.00  0.00    +0.061 A 
ATOM      4  C   UNL     1       5.176  -0.091  -0.242  0.00  0.00    +0.015 A 
ATOM      5  C   UNL     1       4.486   1.117  -0.149  0.00  0.00    +0.003 A 
ATOM      6  C   UNL     1       3.095   1.119  -0.019  0.00  0.00    +0.023 A 
ENDROOT
BRANCH   1   7
ATOM      7  N   UNL     1       1.001  -0.067   0.266  0.00  0.00    -0.358 N 
ATOM      8  H   UNL     1       0.509  -0.909  -0.018  0.00  0.00    +0.142 HD
ATOM      9  H   UNL     1       0.518   0.779  -0.018  0.00  0.00    +0.142 HD
ENDBRANCH   1   7
BRANCH   3  10
ATOM     10  C   UNL     1       5.148  -2.615  -0.257  0.00  0.00    +0.337 C 
ATOM     11  O   UNL     1       4.717  -3.608   0.302  0.00  0.00    -0.245 OA
BRANCH  10  12
ATOM     12  O   UNL     1       6.260  -2.625  -1.022  0.00  0.00    -0.477 OA
ATOM     13  H   UNL     1       6.396  -1.827  -1.563  0.00  0.00    +0.295 HD
ENDBRANCH  10  12
ENDBRANCH   3  10
TORSDOF 3
