REMARK  Name = 
REMARK  14 active torsions:
REMARK  status: ('A' for Active; 'I' for Inactive)
REMARK    1  A    between atoms: N_10  and  C_11
REMARK    2  A    between atoms: C_14  and  C_16
REMARK    3  A    between atoms: C_16  and  O_17
REMARK    4  A    between atoms: O_17  and  P_18
REMARK    5  A    between atoms: P_18  and  O_19
REMARK    6  A    between atoms: P_18  and  C_21
REMARK    7  A    between atoms: C_21  and  P_22
REMARK    8  A    between atoms: P_22  and  O_23
REMARK    9  A    between atoms: P_22  and  O_25
REMARK   10  A    between atoms: O_25  and  P_26
REMARK   11  A    between atoms: P_26  and  O_27
REMARK   12  A    between atoms: P_26  and  O_28
REMARK   13  A    between atoms: C_30  and  O_32
REMARK   14  A    between atoms: C_33  and  O_35
REMARK                            x       y       z     vdW  Elec       q    Type
REMARK                         _______ _______ _______ _____ _____    ______ ____
ROOT
ATOM      1  C   UNL     1      11.441  -5.584   0.473  0.00  0.00    +0.253 C 
ATOM      2  C   UNL     1      11.772  -6.665   1.511  0.00  0.00    +0.195 C 
ATOM      3  C   UNL     1      11.841  -5.923   2.846  0.00  0.00    +0.178 C 
ATOM      4  C   UNL     1      11.361  -4.506   2.522  0.00  0.00    +0.178 C 
ATOM      5  O   UNL     1      10.697  -4.593   1.244  0.00  0.00    -0.346 OA
ENDROOT
BRANCH   1  13
ATOM      6  N   UNL     1      16.404  -3.786  -2.524  0.00  0.00    -0.341 N 
ATOM      7  H   UNL     1      15.866  -3.013  -2.897  0.00  0.00    +0.144 HD
ATOM      8  H   UNL     1      17.085  -4.226  -3.129  0.00  0.00    +0.144 HD
ATOM      9  C   UNL     1      15.628  -4.719  -1.846  0.00  0.00    +0.147 A 
ATOM     10  C   UNL     1      14.356  -4.431  -1.322  0.00  0.00    +0.147 A 
ATOM     11  N   UNL     1      13.579  -3.294  -1.348  0.00  0.00    -0.231 NA
ATOM     12  C   UNL     1      12.480  -3.626  -0.700  0.00  0.00    +0.203 A 
ATOM     13  N   UNL     1      12.522  -4.917  -0.225  0.00  0.00    -0.286 N 
ATOM     14  C   UNL     1      13.697  -5.464  -0.670  0.00  0.00    +0.167 A 
ATOM     15  N   UNL     1      14.138  -6.722  -0.514  0.00  0.00    -0.216 NA
ATOM     16  C   UNL     1      15.364  -6.881  -1.053  0.00  0.00    +0.225 A 
ATOM     17  N   UNL     1      16.118  -5.971  -1.704  0.00  0.00    -0.219 NA
ENDBRANCH   1  13
BRANCH   2  18
ATOM     18  O   UNL     1      10.689  -7.624   1.568  0.00  0.00    -0.385 OA
ATOM     19  H   UNL     1       9.855  -7.136   1.701  0.00  0.00    +0.210 HD
ENDBRANCH   2  18
BRANCH   3  20
ATOM     20  O   UNL     1      13.173  -5.910   3.354  0.00  0.00    -0.386 OA
ATOM     21  H   UNL     1      13.172  -5.354   4.157  0.00  0.00    +0.210 HD
ENDBRANCH   3  20
BRANCH   4  22
ATOM     22  C   UNL     1      10.429  -3.925   3.587  0.00  0.00    +0.204 C 
BRANCH  22  23
ATOM     23  O   UNL     1      11.104  -3.850   4.838  0.00  0.00    -0.305 OA
BRANCH  23  24
ATOM     24  P   UNL     1      10.178  -3.164   6.128  0.00  0.00    +0.342 P 
ATOM     25  O   UNL     1      10.265  -1.765   5.504  0.00  0.00    -0.258 OA
BRANCH  24  26
ATOM     26  O   UNL     1      11.492  -3.310   7.110  0.00  0.00    -0.324 OA
ATOM     27  H   UNL     1      11.386  -4.039   7.757  0.00  0.00    +0.220 HD
ENDBRANCH  24  26
BRANCH  24  28
ATOM     28  C   UNL     1       9.198  -2.439   7.493  0.00  0.00    +0.254 C 
BRANCH  28  29
ATOM     29  P   UNL     1       8.345  -3.839   8.305  0.00  0.00    +0.350 P 
ATOM     30  O   UNL     1       8.079  -4.915   7.251  0.00  0.00    -0.258 OA
BRANCH  29  31
ATOM     31  O   UNL     1       9.870  -4.603   8.590  0.00  0.00    -0.323 OA
ATOM     32  H   UNL     1       9.727  -5.552   8.356  0.00  0.00    +0.220 HD
ENDBRANCH  29  31
BRANCH  29  33
ATOM     33  O   UNL     1       6.819  -3.075   8.019  0.00  0.00    -0.208 OA
BRANCH  33  34
ATOM     34  P   UNL     1       6.247  -2.362   9.487  0.00  0.00    +0.479 P 
ATOM     35  O   UNL     1       5.736  -1.723  10.801  0.00  0.00    -0.227 OA
BRANCH  34  36
ATOM     36  O   UNL     1       4.919  -1.939   8.630  0.00  0.00    -0.302 OA
ATOM     37  H   UNL     1       4.119  -2.369   8.984  0.00  0.00    +0.222 HD
ENDBRANCH  34  36
BRANCH  34  38
ATOM     38  O   UNL     1       7.092  -1.040   9.043  0.00  0.00    -0.302 OA
ATOM     39  H   UNL     1       6.446  -0.399   8.684  0.00  0.00    +0.222 HD
ENDBRANCH  34  38
ENDBRANCH  33  34
ENDBRANCH  29  33
ENDBRANCH  28  29
ENDBRANCH  24  28
ENDBRANCH  23  24
ENDBRANCH  22  23
ENDBRANCH   4  22
TORSDOF 14
