REMARK  Name = 
REMARK  4 active torsions:
REMARK  status: ('A' for Active; 'I' for Inactive)
REMARK    1  A    between atoms: C_1  and  C_2
REMARK    2  A    between atoms: C_5  and  O_7
REMARK    3  A    between atoms: C_8  and  O_10
REMARK    4  A    between atoms: C_12  and  O_14
REMARK                            x       y       z     vdW  Elec       q    Type
REMARK                         _______ _______ _______ _____ _____    ______ ____
ROOT
ATOM      1  C   UNL     1       3.103   0.308   1.436  0.00  0.00    +0.040 C 
ATOM      2  C   UNL     1       2.610   0.053   0.016  0.00  0.00    +0.147 C 
ATOM      3  C   UNL     1       3.109   1.141  -0.953  0.00  0.00    +0.146 C 
ATOM      4  C   UNL     1       2.711   0.809  -2.387  0.00  0.00    +0.070 C 
ATOM      5  C   UNL     1       3.085  -0.620  -2.756  0.00  0.00    +0.173 C 
ATOM      6  C   UNL     1       2.581  -1.597  -1.672  0.00  0.00    +0.276 C 
ATOM      7  O   UNL     1       3.064  -1.244  -0.377  0.00  0.00    -0.343 OA
ENDROOT
BRANCH   3   8
ATOM      8  O   UNL     1       2.587   2.421  -0.603  0.00  0.00    -0.389 OA
ATOM      9  H   UNL     1       1.634   2.432  -0.786  0.00  0.00    +0.210 HD
ENDBRANCH   3   8
BRANCH   5  10
ATOM     10  O   UNL     1       2.500  -0.885  -4.038  0.00  0.00    -0.387 OA
ATOM     11  H   UNL     1       2.104  -1.773  -4.001  0.00  0.00    +0.210 HD
ENDBRANCH   5  10
BRANCH   6  12
ATOM     12  O   UNL     1       3.041  -2.904  -1.975  0.00  0.00    -0.365 OA
ATOM     13  H   UNL     1       2.873  -3.410  -1.159  0.00  0.00    +0.213 HD
ENDBRANCH   6  12
TORSDOF 3
