REMARK  Name = 
REMARK  6 active torsions:
REMARK  status: ('A' for Active; 'I' for Inactive)
REMARK    1  A    between atoms: C_1  and  C_2
REMARK    2  A    between atoms: C_2  and  C_3
REMARK    3  A    between atoms: C_2  and  C_4
REMARK    4  A    between atoms: C_4  and  N_6
REMARK    5  A    between atoms: C_4  and  C_7
REMARK    6  A    between atoms: N_9  and  O_10
REMARK                            x       y       z     vdW  Elec       q    Type
REMARK                         _______ _______ _______ _____ _____    ______ ____
ROOT
ATOM      1  C   UNL     1       3.092  -0.045   1.504  0.00  0.00    +0.142 C 
ENDROOT
BRANCH   1   2
ATOM      2  C   UNL     1       4.634  -0.088   1.514  0.00  0.00    +0.252 C 
ATOM      3  N   UNL     1       5.166  -1.287   1.097  0.00  0.00    -0.196 N 
ATOM      4  H   UNL     1       4.604  -2.129   1.211  0.00  0.00    +0.182 HD
ATOM      5  O   UNL     1       5.337   0.868   1.839  0.00  0.00    -0.272 OA
BRANCH   3   6
ATOM      6  O   UNL     1       6.569  -1.416   1.244  0.00  0.00    -0.295 OA
ATOM      7  H   UNL     1       6.834  -0.516   1.534  0.00  0.00    +0.241 HD
ENDBRANCH   3   6
ENDBRANCH   1   2
BRANCH   1   9
ATOM      8  C   UNL     1       1.010   0.154   0.031  0.00  0.00    +0.009 C 
ATOM      9  C   UNL     1       2.543   0.094   0.063  0.00  0.00    +0.009 C 
ATOM     10  C   UNL     1       3.093   1.352  -0.623  0.00  0.00    +0.009 C 
ENDBRANCH   1   9
BRANCH   1  11
ATOM     11  N   UNL     1       2.595  -1.281   2.161  0.00  0.00    -0.320 NA
ATOM     12  H   UNL     1       2.933  -1.292   3.124  0.00  0.00    +0.119 HD
ATOM     13  H   UNL     1       1.578  -1.224   2.244  0.00  0.00    +0.119 HD
ENDBRANCH   1  11
TORSDOF 4
