REMARK  Name = 
REMARK  14 active torsions:
REMARK  status: ('A' for Active; 'I' for Inactive)
REMARK    1  A    between atoms: C_1  and  C_2
REMARK    2  A    between atoms: C_2  and  C_3
REMARK    3  A    between atoms: C_3  and  C_4
REMARK    4  A    between atoms: C_5  and  C_6
REMARK    5  A    between atoms: C_7  and  C_8
REMARK    6  A    between atoms: C_8  and  C_9
REMARK    7  A    between atoms: C_9  and  C_10
REMARK    8  A    between atoms: C_10  and  C_11
REMARK    9  A    between atoms: C_11  and  C_12
REMARK   10  A    between atoms: C_12  and  C_13
REMARK   11  A    between atoms: C_13  and  C_14
REMARK   12  A    between atoms: C_14  and  C_15
REMARK   13  A    between atoms: C_15  and  C_16
REMARK   14  A    between atoms: C_16  and  O_17
REMARK                            x       y       z     vdW  Elec       q    Type
REMARK                         _______ _______ _______ _____ _____    ______ ____
ROOT
ATOM      1  C   UNL     1       9.479  -0.039  -5.250  0.00  0.00    +0.004 C 
ENDROOT
BRANCH   1   2
ATOM      2  C   UNL     1       8.955  -0.050  -3.815  0.00  0.00    +0.027 C 
BRANCH   2   4
ATOM      3  C   UNL     1       6.735   0.944  -3.222  0.00  0.00    -0.005 C 
ATOM      4  C   UNL     1       7.455  -0.035  -3.789  0.00  0.00    -0.027 C 
BRANCH   3   6
ATOM      5  C   UNL     1       4.573   1.917  -2.632  0.00  0.00    -0.027 C 
ATOM      6  C   UNL     1       5.293   0.944  -3.208  0.00  0.00    -0.005 C 
BRANCH   5   7
ATOM      7  C   UNL     1       3.073   1.928  -2.602  0.00  0.00    +0.027 C 
BRANCH   7   9
ATOM      8  C   UNL     1       0.991   3.165  -3.285  0.00  0.00    +0.004 C 
ATOM      9  C   UNL     1       2.512   3.163  -3.307  0.00  0.00    +0.001 C 
ENDBRANCH   7   9
ENDBRANCH   5   7
ENDBRANCH   3   6
ENDBRANCH   2   4
ENDBRANCH   1   2
BRANCH   1  10
ATOM     10  C   UNL     1      11.006  -0.039  -5.274  0.00  0.00    +0.000 C 
BRANCH  10  11
ATOM     11  C   UNL     1      11.536  -0.031  -6.707  0.00  0.00    +0.000 C 
BRANCH  11  12
ATOM     12  C   UNL     1      13.063  -0.031  -6.727  0.00  0.00    +0.000 C 
BRANCH  12  13
ATOM     13  C   UNL     1      13.596  -0.023  -8.159  0.00  0.00    +0.000 C 
BRANCH  13  14
ATOM     14  C   UNL     1      15.124  -0.023  -8.176  0.00  0.00    +0.002 C 
BRANCH  14  15
ATOM     15  C   UNL     1      15.661  -0.018  -9.605  0.00  0.00    +0.028 C 
BRANCH  15  16
ATOM     16  C   UNL     1      17.182  -0.020  -9.627  0.00  0.00    +0.156 C 
BRANCH  16  17
ATOM     17  O   UNL     1      17.644  -0.010 -10.971  0.00  0.00    -0.395 OA
ATOM     18  H   UNL     1      17.292  -0.804 -11.407  0.00  0.00    +0.209 HD
ENDBRANCH  16  17
ENDBRANCH  15  16
ENDBRANCH  14  15
ENDBRANCH  13  14
ENDBRANCH  12  13
ENDBRANCH  11  12
ENDBRANCH  10  11
ENDBRANCH   1  10
TORSDOF 13
