REMARK  Name = 
REMARK  4 active torsions:
REMARK  status: ('A' for Active; 'I' for Inactive)
REMARK    1  A    between atoms: O_1  and  B_2
REMARK    2  A    between atoms: B_2  and  O_3
REMARK    3  A    between atoms: B_2  and  C_4
REMARK    4  A    between atoms: C_8  and  N_10
REMARK                            x       y       z     vdW  Elec       q    Type
REMARK                         _______ _______ _______ _____ _____    ______ ____
ROOT
ATOM      1  C   UNL     1       3.403   1.252   0.314  0.00  0.00    +0.000 A 
ATOM      2  C   UNL     1       4.781   1.212   0.586  0.00  0.00    +0.000 A 
ATOM      3  C   UNL     1       5.509   2.400   0.798  0.00  0.00    +0.000 A 
ATOM      4  C   UNL     1       4.832   3.631   0.739  0.00  0.00    +0.000 A 
ATOM      5  C   UNL     1       3.462   3.674   0.471  0.00  0.00    +0.000 A 
ATOM      6  C   UNL     1       2.749   2.492   0.258  0.00  0.00    +0.000 A 
ENDROOT
BRANCH   3   7
ATOM      7  N   UNL     1       6.911   2.361   1.071  0.00  0.00    +1.000 N 
ATOM      8  O   UNL     1       7.491   1.318   1.123  0.00  0.00    +0.000 OA
ATOM      9  O   UNL     1       7.585   3.475   1.268  0.00  0.00    -1.000 OA
ENDBRANCH   3   7
BRANCH   1  10
ATOM     10  B   UNL     1       2.597  -0.085   0.075  0.00  0.00    +0.000 B 
BRANCH  10  11
ATOM     11  O   UNL     1       3.272  -1.381   0.179  0.00  0.00    +0.000 OA
ATOM     12  H   UNL     1       2.813  -1.972  -0.470  0.00  0.00    +0.000 HD
ENDBRANCH  10  11
BRANCH  10  13
ATOM     13  O   UNL     1       1.169  -0.040  -0.246  0.00  0.00    +0.000 OA
ATOM     14  H   UNL     1       0.732  -0.593   0.450  0.00  0.00    +0.000 HD
ENDBRANCH  10  13
ENDBRANCH   1  10
TORSDOF 4
