REMARK  Name = 
REMARK  16 active torsions:
REMARK  status: ('A' for Active; 'I' for Inactive)
REMARK    1  A    between atoms: CB_1  and  CA_2
REMARK    2  A    between atoms: CA_2  and  N_4
REMARK    3  A    between atoms: CA_2  and  C_38
REMARK    4  A    between atoms: N_4  and  C_5
REMARK    5  A    between atoms: C_5  and  C_7
REMARK    6  A    between atoms: C_5  and  C_15
REMARK    7  A    between atoms: C_7  and  C_8
REMARK    8  A    between atoms: C_8  and  C_9
REMARK    9  A    between atoms: N_17  and  C_18
REMARK   10  A    between atoms: C_18  and  C_20
REMARK   11  A    between atoms: C_18  and  C_29
REMARK   12  A    between atoms: C_20  and  C_21
REMARK   13  A    between atoms: C_21  and  C_22
REMARK   14  A    between atoms: C_22  and  N_23
REMARK   15  A    between atoms: N_31  and  C_32
REMARK   16  A    between atoms: C_38  and  O_39
REMARK                            x       y       z     vdW  Elec       q    Type
REMARK                         _______ _______ _______ _____ _____    ______ ____
ROOT
ATOM      1  C   UNK A   0       3.278  -4.413  -4.804  0.00  0.00    +0.159 C 
ENDROOT
BRANCH   1   3
ATOM      2  C   UNK A   0       1.266  -3.433  -5.887  0.00  0.00    +0.231 C 
ATOM      3  N   UNK A   0       2.632  -3.603  -5.849  0.00  0.00    -0.303 N 
ATOM      4  H   UNK A   0       3.205  -3.097  -6.507  0.00  0.00    +0.149 HD
ATOM      5  O   UNK A   0       0.538  -4.004  -5.073  0.00  0.00    -0.274 OA
BRANCH   2   6
ATOM      6  C   UNK A   0       0.722  -2.506  -7.010  0.00  0.00    +0.141 C 
BRANCH   6   7
ATOM      7  N   ALA A   1       1.268  -1.123  -6.904  0.00  0.00    -0.294 NA
ATOM      8  H   ALA A   1       2.263  -1.186  -7.133  0.00  0.00    +0.123 HD
BRANCH   7  10
ATOM      9  CB  ALA A   1      -0.236   0.139  -5.320  0.00  0.00    +0.036 C 
ATOM     10  CA  ALA A   1       1.137  -0.478  -5.572  0.00  0.00    +0.161 C 
BRANCH  10  11
ATOM     11  C   ALA A   1       2.216   0.623  -5.487  0.00  0.00    +0.322 C 
ATOM     12  OXT ALA A   1       3.186   0.573  -4.739  0.00  0.00    -0.249 OA
BRANCH  11  13
ATOM     13  O   ALA A   1       2.089   1.581  -6.436  0.00  0.00    -0.480 OA
ATOM     14  H   ALA A   1       1.336   1.399  -7.038  0.00  0.00    +0.295 HD
ENDBRANCH  11  13
ENDBRANCH  10  11
ENDBRANCH   7  10
ENDBRANCH   6   7
BRANCH   6  15
ATOM     15  C   UNK A   0      -0.810  -2.630  -7.095  0.00  0.00    +0.033 C 
BRANCH  15  16
ATOM     16  C   UNK A   0      -1.488  -1.696  -8.100  0.00  0.00    +0.037 C 
BRANCH  16  17
ATOM     17  C   UNK A   0      -2.994  -1.824  -8.034  0.00  0.00    -0.047 A 
ATOM     18  C   UNK A   0      -3.668  -2.744  -8.848  0.00  0.00    +0.003 A 
ATOM     19  C   UNK A   0      -5.057  -2.874  -8.771  0.00  0.00    +0.000 A 
ATOM     20  C   UNK A   0      -5.786  -2.092  -7.877  0.00  0.00    +0.000 A 
ATOM     21  C   UNK A   0      -5.126  -1.181  -7.055  0.00  0.00    +0.000 A 
ATOM     22  C   UNK A   0      -3.737  -1.049  -7.132  0.00  0.00    +0.003 A 
ENDBRANCH  16  17
ENDBRANCH  15  16
ENDBRANCH   6  15
ENDBRANCH   2   6
ENDBRANCH   1   3
BRANCH   1  23
ATOM     23  C   UNK A   0       3.097  -5.949  -4.989  0.00  0.00    +0.238 C 
ATOM     24  N   UNK A   0       1.851  -6.369  -5.401  0.00  0.00    -0.284 N 
ATOM     25  H   UNK A   0       1.063  -5.781  -5.127  0.00  0.00    +0.155 HD
ATOM     26  O   UNK A   0       3.994  -6.729  -4.658  0.00  0.00    -0.273 OA
BRANCH  24  27
ATOM     27  C   UNK A   0       1.588  -7.697  -5.782  0.00  0.00    +0.033 A 
ATOM     28  C   UNK A   0       2.530  -8.446  -6.498  0.00  0.00    +0.023 A 
ATOM     29  C   UNK A   0       2.256  -9.765  -6.857  0.00  0.00    +0.002 A 
ATOM     30  C   UNK A   0       1.049 -10.345  -6.479  0.00  0.00    +0.000 A 
ATOM     31  C   UNK A   0       0.104  -9.598  -5.774  0.00  0.00    +0.002 A 
ATOM     32  C   UNK A   0       0.359  -8.263  -5.453  0.00  0.00    +0.023 A 
ENDBRANCH  24  27
ENDBRANCH   1  23
BRANCH   1  33
ATOM     33  C   UNK A   0       4.802  -4.193  -4.775  0.00  0.00    +0.035 C 
BRANCH  33  34
ATOM     34  C   UNK A   0       5.291  -2.760  -4.633  0.00  0.00    +0.039 C 
BRANCH  34  35
ATOM     35  C   UNK A   0       6.820  -2.766  -4.667  0.00  0.00    +0.196 C 
BRANCH  35  36
ATOM     36  N   UNK A   0       7.361  -1.410  -4.589  0.00  0.00    -0.279 N 
ATOM     37  H   UNK A   0       6.715  -0.632  -4.493  0.00  0.00    +0.258 HD
ATOM     38  C   UNK A   0       8.671  -1.129  -4.627  0.00  0.00    +0.341 C 
ATOM     39  N   UNK A   0       9.067   0.143  -4.561  0.00  0.00    -0.292 N 
ATOM     40  H   UNK A   0      10.049   0.392  -4.581  0.00  0.00    +0.255 HD
ATOM     41  H   UNK A   0       8.405   0.904  -4.474  0.00  0.00    +0.255 HD
ATOM     42  N   UNK A   0       9.599  -2.085  -4.737  0.00  0.00    -0.292 N 
ATOM     43  H   UNK A   0      10.586  -1.870  -4.766  0.00  0.00    +0.255 HD
ATOM     44  H   UNK A   0       9.346  -3.059  -4.777  0.00  0.00    +0.255 HD
ENDBRANCH  35  36
ENDBRANCH  34  35
ENDBRANCH  33  34
ENDBRANCH   1  33
TORSDOF 15
