REMARK  Name = 
REMARK  54 active torsions:
REMARK  status: ('A' for Active; 'I' for Inactive)
REMARK    1  A    between atoms: C_1  and  C_2
REMARK    2  A    between atoms: C_2  and  C_3
REMARK    3  A    between atoms: C_2  and  C_4
REMARK    4  A    between atoms: C_4  and  C_5
REMARK    5  A    between atoms: C_5  and  C_6
REMARK    6  A    between atoms: C_6  and  C_7
REMARK    7  A    between atoms: C_7  and  C_9
REMARK    8  A    between atoms: C_7  and  C_10
REMARK    9  A    between atoms: C_10  and  C_11
REMARK   10  A    between atoms: C_11  and  C_12
REMARK   11  A    between atoms: C_12  and  C_13
REMARK   12  A    between atoms: C_13  and  C_15
REMARK   13  A    between atoms: C_13  and  C_16
REMARK   14  A    between atoms: C_16  and  C_17
REMARK   15  A    between atoms: C_17  and  C_18
REMARK   16  A    between atoms: C_18  and  C_19
REMARK   17  A    between atoms: C_19  and  C_21
REMARK   18  A    between atoms: C_19  and  C_22
REMARK   19  A    between atoms: C_22  and  C_23
REMARK   20  A    between atoms: C_23  and  O_24
REMARK   21  A    between atoms: O_24  and  C_25
REMARK   22  A    between atoms: C_25  and  C_26
REMARK   23  A    between atoms: C_26  and  C_28
REMARK   24  A    between atoms: C_26  and  O_44
REMARK   25  A    between atoms: C_28  and  O_29
REMARK   26  A    between atoms: O_29  and  P_30
REMARK   27  A    between atoms: P_30  and  O_33
REMARK   28  A    between atoms: O_33  and  C_34
REMARK   29  A    between atoms: C_34  and  C_35
REMARK   30  A    between atoms: C_35  and  O_37
REMARK   31  A    between atoms: C_35  and  C_38
REMARK   32  A    between atoms: C_38  and  O_39
REMARK   33  A    between atoms: O_39  and  P_40
REMARK   34  A    between atoms: P_40  and  O_41
REMARK   35  A    between atoms: O_44  and  C_45
REMARK   36  A    between atoms: C_45  and  C_46
REMARK   37  A    between atoms: C_46  and  C_47
REMARK   38  A    between atoms: C_47  and  C_49
REMARK   39  A    between atoms: C_47  and  C_50
REMARK   40  A    between atoms: C_50  and  C_51
REMARK   41  A    between atoms: C_51  and  C_52
REMARK   42  A    between atoms: C_52  and  C_53
REMARK   43  A    between atoms: C_53  and  C_55
REMARK   44  A    between atoms: C_53  and  C_56
REMARK   45  A    between atoms: C_56  and  C_57
REMARK   46  A    between atoms: C_57  and  C_58
REMARK   47  A    between atoms: C_58  and  C_59
REMARK   48  A    between atoms: C_59  and  C_61
REMARK   49  A    between atoms: C_59  and  C_62
REMARK   50  A    between atoms: C_62  and  C_63
REMARK   51  A    between atoms: C_63  and  C_64
REMARK   52  A    between atoms: C_64  and  C_65
REMARK   53  A    between atoms: C_65  and  C_66
REMARK   54  A    between atoms: C_65  and  C_67
REMARK                            x       y       z     vdW  Elec       q    Type
REMARK                         _______ _______ _______ _____ _____    ______ ____
ROOT
ATOM      1  C   UNL     1      33.922   0.456   8.356  0.00  0.00    +0.170 C 
ENDROOT
BRANCH   1   2
ATOM      2  C   UNL     1      34.401   1.161   7.067  0.00  0.00    +0.201 C 
BRANCH   2   3
ATOM      3  O   UNL     1      35.803   1.156   6.884  0.00  0.00    -0.325 OA
BRANCH   3   4
ATOM      4  P   UNL     1      36.498  -0.244   6.453  0.00  0.00    +0.213 P 
ATOM      5  O   UNL     1      35.536  -1.027   5.596  0.00  0.00    -0.437 OA
ATOM      6  O   UNL     1      37.164  -0.853   7.659  0.00  0.00    -0.517 OA
BRANCH   4   7
ATOM      7  O   UNL     1      37.698   0.317   5.550  0.00  0.00    -0.325 OA
BRANCH   7   8
ATOM      8  C   UNL     1      37.419   0.862   4.278  0.00  0.00    +0.201 C 
BRANCH   8   9
ATOM      9  C   UNL     1      38.813   0.995   3.668  0.00  0.00    +0.166 C 
BRANCH   9  10
ATOM     10  O   UNL     1      39.431  -0.303   3.598  0.00  0.00    -0.387 OA
ATOM     11  H   UNL     1      39.099  -0.748   4.408  0.00  0.00    +0.210 HD
ENDBRANCH   9  10
BRANCH   9  12
ATOM     12  C   UNL     1      38.767   1.621   2.302  0.00  0.00    +0.201 C 
BRANCH  12  13
ATOM     13  O   UNL     1      38.186   2.902   2.414  0.00  0.00    -0.325 OA
BRANCH  13  14
ATOM     14  P   UNL     1      37.984   3.632   0.969  0.00  0.00    +0.210 P 
ATOM     15  O   UNL     1      36.739   2.805   0.562  0.00  0.00    -0.517 OA
ATOM     16  O   UNL     1      37.311   4.991   1.232  0.00  0.00    -0.437 OA
BRANCH  14  17
ATOM     17  O   UNL     1      39.374   4.555   1.425  0.00  0.00    -0.344 OA
ATOM     18  H   UNL     1      38.826   5.244   1.869  0.00  0.00    +0.218 HD
ENDBRANCH  14  17
ENDBRANCH  13  14
ENDBRANCH  12  13
ENDBRANCH   9  12
ENDBRANCH   8   9
ENDBRANCH   7   8
ENDBRANCH   4   7
ENDBRANCH   3   4
ENDBRANCH   2   3
ENDBRANCH   1   2
BRANCH   1  19
ATOM     19  C   UNL     1      34.034  -1.075   8.274  0.00  0.00    +0.193 C 
BRANCH  19  20
ATOM     20  O   UNL     1      33.513  -1.748   9.422  0.00  0.00    -0.377 OA
BRANCH  20  21
ATOM     21  C   UNL     1      32.113  -1.652   9.572  0.00  0.00    +0.160 C 
BRANCH  21  22
ATOM     22  C   UNL     1      31.752  -2.494  10.786  0.00  0.00    +0.031 C 
BRANCH  22  23
ATOM     23  C   UNL     1      32.550  -2.140  12.065  0.00  0.00    -0.012 C 
ATOM     24  C   UNL     1      32.381  -0.668  12.460  0.00  0.00    +0.007 C 
BRANCH  23  25
ATOM     25  C   UNL     1      32.129  -3.032  13.245  0.00  0.00    +0.003 C 
BRANCH  25  26
ATOM     26  C   UNL     1      32.243  -4.537  13.002  0.00  0.00    +0.001 C 
BRANCH  26  27
ATOM     27  C   UNL     1      33.656  -5.031  12.667  0.00  0.00    +0.003 C 
BRANCH  27  28
ATOM     28  C   UNL     1      33.687  -6.544  12.367  0.00  0.00    -0.014 C 
ATOM     29  C   UNL     1      33.130  -7.368  13.536  0.00  0.00    +0.007 C 
BRANCH  28  30
ATOM     30  C   UNL     1      35.118  -6.993  11.998  0.00  0.00    +0.003 C 
BRANCH  30  31
ATOM     31  C   UNL     1      35.130  -8.444  11.511  0.00  0.00    +0.001 C 
BRANCH  31  32
ATOM     32  C   UNL     1      36.520  -8.938  11.129  0.00  0.00    +0.003 C 
BRANCH  32  33
ATOM     33  C   UNL     1      36.515 -10.447  10.789  0.00  0.00    -0.014 C 
ATOM     34  C   UNL     1      35.650 -10.746   9.563  0.00  0.00    +0.007 C 
BRANCH  33  35
ATOM     35  C   UNL     1      37.935 -11.001  10.561  0.00  0.00    +0.003 C 
BRANCH  35  36
ATOM     36  C   UNL     1      38.841 -10.775  11.770  0.00  0.00    +0.001 C 
BRANCH  36  37
ATOM     37  C   UNL     1      40.234 -11.366  11.586  0.00  0.00    +0.003 C 
BRANCH  37  39
ATOM     38  C   UNL     1      42.496 -11.771  12.596  0.00  0.00    +0.007 C 
ATOM     39  C   UNL     1      41.111 -11.174  12.838  0.00  0.00    -0.017 C 
ATOM     40  C   UNL     1      41.248  -9.706  13.261  0.00  0.00    +0.007 C 
ENDBRANCH  37  39
ENDBRANCH  36  37
ENDBRANCH  35  36
ENDBRANCH  33  35
ENDBRANCH  32  33
ENDBRANCH  31  32
ENDBRANCH  30  31
ENDBRANCH  28  30
ENDBRANCH  27  28
ENDBRANCH  26  27
ENDBRANCH  25  26
ENDBRANCH  23  25
ENDBRANCH  22  23
ENDBRANCH  21  22
ENDBRANCH  20  21
ENDBRANCH  19  20
ENDBRANCH   1  19
BRANCH   1  41
ATOM     41  O   UNL     1      34.579   0.919   9.557  0.00  0.00    -0.372 OA
BRANCH  41  42
ATOM     42  C   UNL     1      34.322   2.286   9.811  0.00  0.00    +0.160 C 
BRANCH  42  43
ATOM     43  C   UNL     1      35.106   2.781  11.018  0.00  0.00    +0.031 C 
BRANCH  43  44
ATOM     44  C   UNL     1      34.799   4.267  11.270  0.00  0.00    -0.012 C 
ATOM     45  C   UNL     1      35.206   5.142  10.071  0.00  0.00    +0.007 C 
BRANCH  44  46
ATOM     46  C   UNL     1      35.462   4.745  12.571  0.00  0.00    +0.003 C 
BRANCH  46  47
ATOM     47  C   UNL     1      34.967   6.148  12.919  0.00  0.00    +0.001 C 
BRANCH  47  48
ATOM     48  C   UNL     1      35.530   6.674  14.224  0.00  0.00    +0.003 C 
BRANCH  48  49
ATOM     49  C   UNL     1      35.080   8.130  14.463  0.00  0.00    -0.014 C 
ATOM     50  C   UNL     1      33.562   8.249  14.634  0.00  0.00    +0.007 C 
BRANCH  49  51
ATOM     51  C   UNL     1      35.792   8.736  15.680  0.00  0.00    +0.003 C 
BRANCH  51  52
ATOM     52  C   UNL     1      37.317   8.795  15.562  0.00  0.00    +0.001 C 
BRANCH  52  53
ATOM     53  C   UNL     1      37.804   9.582  14.338  0.00  0.00    +0.003 C 
BRANCH  53  54
ATOM     54  C   UNL     1      39.335   9.576  14.188  0.00  0.00    -0.014 C 
ATOM     55  C   UNL     1      40.015  10.170  15.426  0.00  0.00    +0.007 C 
BRANCH  54  56
ATOM     56  C   UNL     1      39.734  10.319  12.892  0.00  0.00    +0.003 C 
BRANCH  56  57
ATOM     57  C   UNL     1      41.231  10.196  12.609  0.00  0.00    +0.001 C 
BRANCH  57  58
ATOM     58  C   UNL     1      41.665  10.886  11.317  0.00  0.00    +0.003 C 
BRANCH  58  59
ATOM     59  C   UNL     1      43.194  10.809  11.122  0.00  0.00    -0.017 C 
ATOM     60  C   UNL     1      43.615  11.609   9.888  0.00  0.00    +0.007 C 
ATOM     61  C   UNL     1      43.693   9.367  11.001  0.00  0.00    +0.007 C 
ENDBRANCH  58  59
ENDBRANCH  57  58
ENDBRANCH  56  57
ENDBRANCH  54  56
ENDBRANCH  53  54
ENDBRANCH  52  53
ENDBRANCH  51  52
ENDBRANCH  49  51
ENDBRANCH  48  49
ENDBRANCH  47  48
ENDBRANCH  46  47
ENDBRANCH  44  46
ENDBRANCH  43  44
ENDBRANCH  42  43
ENDBRANCH  41  42
ENDBRANCH   1  41
TORSDOF 44
