REMARK  Name = 
REMARK  1 active torsions:
REMARK  status: ('A' for Active; 'I' for Inactive)
REMARK    1  A    between atoms: C_2  and  C_4
REMARK                            x       y       z     vdW  Elec       q    Type
REMARK                         _______ _______ _______ _____ _____    ______ ____
ROOT
ATOM      1  C   UNL     1       3.274  -1.293   0.383  0.00  0.00    +0.261 C 
ATOM      2  O   UNL     1       3.818  -1.943  -0.771  0.00  0.00    -0.479 OA
ATOM      3  C   UNL     1       4.395  -1.095  -1.679  0.00  0.00    +0.127 A 
ATOM      4  C   UNL     1       4.820   0.204  -1.364  0.00  0.00    +0.029 A 
ATOM      5  C   UNL     1       5.385   0.988  -2.387  0.00  0.00    +0.048 A 
ATOM      6  C   UNL     1       5.541   0.464  -3.666  0.00  0.00    +0.124 A 
ATOM      7  C   UNL     1       5.142  -0.831  -3.964  0.00  0.00    +0.042 A 
ATOM      8  F   UNL     1       6.087   1.224  -4.624  0.00  0.00    -0.205 F 
ATOM      9  C   UNL     1       4.649   0.733   0.041  0.00  0.00    +0.145 C 
ATOM     10  C   UNL     1       5.871   1.516   0.566  0.00  0.00    +0.249 C 
ATOM     11  O   UNL     1       7.007   1.089   0.713  0.00  0.00    -0.273 OA
ATOM     12  N   UNL     1       5.486   2.795   0.831  0.00  0.00    -0.238 N 
ATOM     13  H   UNL     1       6.099   3.527   1.148  0.00  0.00    +0.159 HD
ATOM     14  C   UNL     1       4.188   2.986   0.505  0.00  0.00    +0.307 C 
ATOM     15  O   UNL     1       3.579   4.039   0.551  0.00  0.00    -0.252 OA
ATOM     16  N   UNL     1       3.662   1.794   0.074  0.00  0.00    -0.281 N 
ATOM     17  H   UNL     1       2.722   1.750  -0.296  0.00  0.00    +0.152 HD
ATOM     18  C   UNL     1       4.569  -1.615  -2.966  0.00  0.00    +0.049 A 
ATOM     19  C   UNL     1       4.308  -0.380   1.027  0.00  0.00    +0.094 C 
ENDROOT
BRANCH   1  23
ATOM     20  N   UNL     1       2.309  -3.502   0.823  0.00  0.00    -0.326 N 
ATOM     21  H   UNL     1       2.596  -3.750  -0.117  0.00  0.00    +0.145 HD
ATOM     22  H   UNL     1       2.052  -4.248   1.457  0.00  0.00    +0.145 HD
ATOM     23  C   UNL     1       2.785  -2.349   1.382  0.00  0.00    +0.251 C 
ATOM     24  O   UNL     1       2.725  -2.172   2.594  0.00  0.00    -0.272 OA
ENDBRANCH   1  23
TORSDOF 1
