REMARK  Name = 
REMARK  6 active torsions:
REMARK  status: ('A' for Active; 'I' for Inactive)
REMARK    1  A    between atoms: C_1  and  S_2
REMARK    2  A    between atoms: S_2  and  C_3
REMARK    3  A    between atoms: C_3  and  C_4
REMARK    4  A    between atoms: C_7  and  N_15
REMARK    5  A    between atoms: C_9  and  O_11
REMARK    6  A    between atoms: C_12  and  O_14
REMARK                            x       y       z     vdW  Elec       q    Type
REMARK                         _______ _______ _______ _____ _____    ______ ____
ROOT
ATOM      1  C   UNL     1       5.044   0.099  -1.599  0.00  0.00    +0.162 C 
ATOM      2  C   UNL     1       5.512  -0.255  -0.184  0.00  0.00    +0.177 C 
ATOM      3  C   UNL     1       6.745   0.611   0.071  0.00  0.00    +0.195 C 
ATOM      4  C   UNL     1       6.949   1.358  -1.248  0.00  0.00    +0.253 C 
ATOM      5  O   UNL     1       5.660   1.374  -1.894  0.00  0.00    -0.347 OA
ENDROOT
BRANCH   4   6
ATOM      6  N   UNL     1       7.461   2.711  -1.158  0.00  0.00    -0.286 N 
ATOM      7  C   UNL     1       8.503   3.131  -0.373  0.00  0.00    +0.167 A 
ATOM      8  N   UNL     1       9.081   2.485   0.657  0.00  0.00    -0.216 NA
ATOM      9  C   UNL     1      10.110   3.208   1.155  0.00  0.00    +0.225 A 
ATOM     10  N   UNL     1      10.613   4.378   0.704  0.00  0.00    -0.219 NA
ATOM     11  C   UNL     1      10.027   4.957  -0.368  0.00  0.00    +0.147 A 
ATOM     12  N   UNL     1      10.595   6.106  -0.895  0.00  0.00    -0.341 N 
ATOM     13  H   UNL     1       9.985   6.642  -1.501  0.00  0.00    +0.144 HD
ATOM     14  H   UNL     1      11.208   6.593  -0.259  0.00  0.00    +0.144 HD
ATOM     15  C   UNL     1       8.882   4.352  -0.912  0.00  0.00    +0.147 A 
ATOM     16  N   UNL     1       8.040   4.719  -1.939  0.00  0.00    -0.231 NA
ATOM     17  C   UNL     1       7.195   3.718  -2.053  0.00  0.00    +0.203 A 
ENDBRANCH   4   6
BRANCH   2  18
ATOM     18  O   UNL     1       4.479   0.097   0.756  0.00  0.00    -0.386 OA
ATOM     19  H   UNL     1       4.241   1.032   0.622  0.00  0.00    +0.210 HD
ENDBRANCH   2  18
BRANCH   3  20
ATOM     20  O   UNL     1       7.879  -0.201   0.385  0.00  0.00    -0.385 OA
ATOM     21  H   UNL     1       8.588   0.415   0.663  0.00  0.00    +0.210 HD
ENDBRANCH   3  20
BRANCH   1  22
ATOM     22  C   UNL     1       5.446  -0.910  -2.692  0.00  0.00    +0.103 C 
BRANCH  22  24
ATOM     23  C   UNL     1       3.010  -2.262  -2.579  0.00  0.00    +0.084 C 
ATOM     24  S   UNL     1       4.786  -2.599  -2.503  0.00  0.00    -0.161 S 
ENDBRANCH  22  24
ENDBRANCH   1  22
TORSDOF 5
