REMARK  Name = 
REMARK  17 active torsions:
REMARK  status: ('A' for Active; 'I' for Inactive)
REMARK    1  A    between atoms: O_1  and  C_2
REMARK    2  A    between atoms: C_2  and  N_3
REMARK    3  A    between atoms: N_3  and  O_4
REMARK    4  A    between atoms: N_3  and  C_5
REMARK    5  A    between atoms: C_5  and  C_7
REMARK    6  A    between atoms: C_5  and  C_32
REMARK    7  A    between atoms: C_7  and  C_8
REMARK    8  A    between atoms: C_8  and  C_9
REMARK    9  A    between atoms: C_9  and  N_10
REMARK   10  A    between atoms: C_16  and  C_18
REMARK   11  A    between atoms: C_18  and  O_19
REMARK   12  A    between atoms: O_19  and  P_20
REMARK   13  A    between atoms: P_20  and  O_21
REMARK   14  A    between atoms: P_20  and  O_22
REMARK   15  A    between atoms: C_24  and  O_26
REMARK   16  A    between atoms: C_27  and  O_29
REMARK   17  A    between atoms: C_32  and  O_33
REMARK                            x       y       z     vdW  Elec       q    Type
REMARK                         _______ _______ _______ _____ _____    ______ ____
ROOT
ATOM      1  N   UNL     1       4.679  -3.742  -0.497  0.00  0.00    -0.222 N 
ATOM      2  C   UNL     1       3.510  -3.958   0.181  0.00  0.00    +0.277 C 
ATOM      3  O   UNL     1       2.422  -3.447  -0.022  0.00  0.00    -0.270 OA
ATOM      4  C   UNL     1       3.823  -4.964   1.294  0.00  0.00    +0.244 C 
ATOM      5  C   UNL     1       4.229  -4.199   2.576  0.00  0.00    +0.205 C 
ATOM      6  C   UNL     1       2.965  -4.294   3.402  0.00  0.00    +0.179 C 
ATOM      7  C   UNL     1       2.362  -5.631   2.943  0.00  0.00    +0.179 C 
ATOM      8  O   UNL     1       2.849  -5.923   1.615  0.00  0.00    -0.338 OA
ATOM      9  N   UNL     1       4.953  -5.608   0.688  0.00  0.00    -0.261 N 
ATOM     10  H   UNL     1       5.234  -6.568   0.822  0.00  0.00    +0.154 HD
ATOM     11  C   UNL     1       5.474  -4.839  -0.336  0.00  0.00    +0.311 C 
ATOM     12  O   UNL     1       6.437  -5.163  -1.003  0.00  0.00    -0.252 OA
ENDROOT
BRANCH   6  13
ATOM     13  O   UNL     1       2.115  -3.200   3.069  0.00  0.00    -0.386 OA
ATOM     14  H   UNL     1       1.336  -3.234   3.653  0.00  0.00    +0.210 HD
ENDBRANCH   6  13
BRANCH   5  15
ATOM     15  O   UNL     1       5.295  -4.834   3.309  0.00  0.00    -0.384 OA
ATOM     16  H   UNL     1       5.620  -5.579   2.772  0.00  0.00    +0.210 HD
ENDBRANCH   5  15
BRANCH   1  17
ATOM     17  C   UNL     1       4.892  -2.680  -1.469  0.00  0.00    +0.118 C 
BRANCH  17  18
ATOM     18  C   UNL     1       4.405  -1.359  -0.870  0.00  0.00    +0.022 C 
BRANCH  18  19
ATOM     19  C   UNL     1       4.684  -0.097  -1.681  0.00  0.00    +0.034 C 
BRANCH  19  20
ATOM     20  C   UNL     1       4.077   1.159  -0.995  0.00  0.00    +0.195 C 
BRANCH  20  21
ATOM     21  C   UNL     1       2.541   0.971  -0.925  0.00  0.00    +0.324 C 
ATOM     22  O   UNL     1       1.830   0.761  -1.898  0.00  0.00    -0.249 OA
BRANCH  21  23
ATOM     23  O   UNL     1       2.053   1.012   0.340  0.00  0.00    -0.479 OA
ATOM     24  H   UNL     1       2.823   1.230   0.922  0.00  0.00    +0.295 HD
ENDBRANCH  21  23
ENDBRANCH  20  21
BRANCH  20  25
ATOM     25  N   UNL     1       4.617   1.391   0.384  0.00  0.00    -0.152 NA
BRANCH  25  26
ATOM     26  O   UNL     1       4.059   2.663   0.852  0.00  0.00    -0.309 OA
ATOM     27  H   UNL     1       4.694   2.919   1.564  0.00  0.00    +0.237 HD
ENDBRANCH  25  26
BRANCH  25  28
ATOM     28  C   UNL     1       6.063   1.608   0.375  0.00  0.00    +0.270 C 
BRANCH  28  29
ATOM     29  O   UNL     1       6.433   2.133   1.645  0.00  0.00    -0.378 OA
ATOM     30  H   UNL     1       7.383   1.948   1.749  0.00  0.00    +0.211 HD
ENDBRANCH  28  29
ENDBRANCH  25  28
ENDBRANCH  20  25
ENDBRANCH  19  20
ENDBRANCH  18  19
ENDBRANCH  17  18
ENDBRANCH   1  17
BRANCH   7  31
ATOM     31  C   UNL     1       2.789  -6.804   3.815  0.00  0.00    +0.206 C 
BRANCH  31  32
ATOM     32  O   UNL     1       2.431  -6.584   5.165  0.00  0.00    -0.284 OA
BRANCH  32  33
ATOM     33  P   UNL     1       2.871  -7.702   6.220  0.00  0.00    +0.472 P 
ATOM     34  O   UNL     1       2.543  -7.420   7.644  0.00  0.00    -0.228 OA
BRANCH  33  35
ATOM     35  O   UNL     1       2.199  -9.035   5.653  0.00  0.00    -0.303 OA
ATOM     36  H   UNL     1       1.268  -9.101   5.929  0.00  0.00    +0.222 HD
ENDBRANCH  33  35
BRANCH  33  37
ATOM     37  O   UNL     1       4.427  -7.916   5.936  0.00  0.00    -0.303 OA
ATOM     38  H   UNL     1       4.966  -7.252   6.406  0.00  0.00    +0.222 HD
ENDBRANCH  33  37
ENDBRANCH  32  33
ENDBRANCH  31  32
ENDBRANCH   7  31
TORSDOF 17
