REMARK  Name = 
REMARK  2 active torsions:
REMARK  status: ('A' for Active; 'I' for Inactive)
REMARK    1  A    between atoms: C_1  and  C_2
REMARK    2  A    between atoms: C_2  and  N_3
REMARK                            x       y       z     vdW  Elec       q    Type
REMARK                         _______ _______ _______ _____ _____    ______ ____
ROOT
ATOM      1  C   UNL     1       0.961   0.054  -0.070  0.00  0.00    +0.032 C 
ATOM      2  C   UNL     1       2.476   0.048  -0.099  0.00  0.00    +0.186 C 
ENDROOT
BRANCH   2   3
ATOM      3  N   UNL     1       2.963  -0.683  -1.303  0.00  0.00    -0.069 NA
ATOM      4  O   UNL     1       3.659   0.033  -2.032  0.00  0.00    -0.149 OA
ENDBRANCH   2   3
TORSDOF 1
