REMARK  Name = 
REMARK  5 active torsions:
REMARK  status: ('A' for Active; 'I' for Inactive)
REMARK    1  A    between atoms: C_1  and  C_2
REMARK    2  A    between atoms: C_2  and  C_4
REMARK    3  A    between atoms: C_4  and  C_5
REMARK    4  A    between atoms: C_5  and  C_6
REMARK    5  A    between atoms: C_6  and  O_7
REMARK                            x       y       z     vdW  Elec       q    Type
REMARK                         _______ _______ _______ _____ _____    ______ ____
ROOT
ATOM      1  C   UNL     1       4.835   0.245  -1.112  0.00  0.00    +0.128 C 
ENDROOT
BRANCH   1   2
ATOM      2  C   UNL     1       5.567   0.597  -2.379  0.00  0.00    +0.305 C 
ATOM      3  O   UNL     1       5.036   0.893  -3.438  0.00  0.00    -0.251 OA
BRANCH   2   4
ATOM      4  O   UNL     1       6.910   0.553  -2.227  0.00  0.00    -0.481 OA
ATOM      5  H   UNL     1       7.195   0.302  -1.327  0.00  0.00    +0.295 HD
ENDBRANCH   2   4
ENDBRANCH   1   2
BRANCH   1   6
ATOM      6  C   UNL     1       3.324   0.300  -1.308  0.00  0.00    +0.085 C 
BRANCH   6   8
ATOM      7  C   UNL     1       1.086  -0.038  -0.094  0.00  0.00    +0.086 C 
ATOM      8  C   UNL     1       2.590  -0.056  -0.032  0.00  0.00    +0.131 C 
ATOM      9  O   UNL     1       3.184  -0.347   1.006  0.00  0.00    -0.298 OA
ENDBRANCH   6   8
ENDBRANCH   1   6
TORSDOF 4
