REMARK  Name = 
REMARK  7 active torsions:
REMARK  status: ('A' for Active; 'I' for Inactive)
REMARK    1  A    between atoms: N_1  and  CA_2
REMARK    2  A    between atoms: CA_2  and  C_4
REMARK    3  A    between atoms: CA_2  and  C_10
REMARK    4  A    between atoms: C_4  and  C_5
REMARK    5  A    between atoms: C_5  and  C_6
REMARK    6  A    between atoms: N_8  and  O_9
REMARK    7  A    between atoms: C_10  and  O_11
REMARK                            x       y       z     vdW  Elec       q    Type
REMARK                         _______ _______ _______ _____ _____    ______ ____
ROOT
ATOM      1  CA  UNL     1       2.422   0.085  -0.067  0.00  0.00    +0.161 C 
ENDROOT
BRANCH   1   2
ATOM      2  N   UNL     1       2.898   0.866  -1.255  0.00  0.00    -0.318 NA
ATOM      3  H1  UNL     1       3.823   0.512  -1.528  0.00  0.00    +0.119 HD
ATOM      4  H2  UNL     1       2.304   0.611  -2.051  0.00  0.00    +0.119 HD
ENDBRANCH   1   2
BRANCH   1   5
ATOM      5  C   UNL     1       2.889   0.823   1.204  0.00  0.00    +0.322 C 
ATOM      6  OXT UNL     1       2.724   0.435   2.350  0.00  0.00    -0.249 OA
BRANCH   5   7
ATOM      7  O   UNL     1       3.495   1.998   0.898  0.00  0.00    -0.480 OA
ATOM      8  H   UNL     1       3.439   2.075  -0.088  0.00  0.00    +0.295 HD
ENDBRANCH   5   7
ENDBRANCH   1   5
BRANCH   1   9
ATOM      9  C   UNL     1       2.957  -1.347  -0.156  0.00  0.00    +0.039 C 
BRANCH   9  10
ATOM     10  C   UNL     1       2.450  -2.269   0.954  0.00  0.00    +0.100 C 
BRANCH  10  11
ATOM     11  C   UNL     1       2.968  -3.681   0.794  0.00  0.00    +0.235 C 
ATOM     12  N   UNL     1       2.537  -4.534   1.780  0.00  0.00    -0.197 N 
ATOM     13  H   UNL     1       2.100  -4.232   2.645  0.00  0.00    +0.182 HD
ATOM     14  O   UNL     1       3.702  -4.053  -0.119  0.00  0.00    -0.274 OA
BRANCH  12  15
ATOM     15  O   UNL     1       3.067  -5.843   1.751  0.00  0.00    -0.295 OA
ATOM     16  H   UNL     1       3.654  -5.816   0.964  0.00  0.00    +0.241 HD
ENDBRANCH  12  15
ENDBRANCH  10  11
ENDBRANCH   9  10
ENDBRANCH   1   9
TORSDOF 7
