REMARK  Name = 
REMARK  4 active torsions:
REMARK  status: ('A' for Active; 'I' for Inactive)
REMARK    1  A    between atoms: O_1  and  C_2
REMARK    2  A    between atoms: C_2  and  C_3
REMARK    3  A    between atoms: C_3  and  C_5
REMARK    4  A    between atoms: C_5  and  O_6
REMARK                            x       y       z     vdW  Elec       q    Type
REMARK                         _______ _______ _______ _____ _____    ______ ____
ROOT
ATOM      1  C   UNL     1       3.015   1.506   0.317  0.00  0.00    +0.264 C 
ATOM      2  O   UNL     1       2.348   2.502   0.580  0.00  0.00    -0.283 OA
ENDROOT
BRANCH   1   3
ATOM      3  C   UNL     1       4.528   1.657   0.357  0.00  0.00    +0.375 C 
ATOM      4  O   UNL     1       5.290   0.743   0.116  0.00  0.00    -0.242 OA
BRANCH   3   5
ATOM      5  O   UNL     1       4.875   2.915   0.688  0.00  0.00    -0.475 OA
ATOM      6  H   UNL     1       4.056   3.448   0.829  0.00  0.00    +0.296 HD
ENDBRANCH   3   5
ENDBRANCH   1   3
BRANCH   1   7
ATOM      7  C   UNL     1       2.516   0.120  -0.048  0.00  0.00    +0.242 C 
BRANCH   7   8
ATOM      8  O   UNL     1       1.103   0.014  -0.076  0.00  0.00    -0.387 OA
ATOM      9  H   UNL     1       0.883  -0.902  -0.317  0.00  0.00    +0.210 HD
ENDBRANCH   7   8
ENDBRANCH   1   7
TORSDOF 4
