REMARK  Name = 
REMARK  4 active torsions:
REMARK  status: ('A' for Active; 'I' for Inactive)
REMARK    1  A    between atoms: N_1  and  S_2
REMARK    2  A    between atoms: S_2  and  C_5
REMARK    3  A    between atoms: C_8  and  N_11
REMARK    4  A    between atoms: N_12  and  C_13
REMARK                            x       y       z     vdW  Elec       q    Type
REMARK                         _______ _______ _______ _____ _____    ______ ____
ROOT
ATOM      1  N   UNL     1       3.922   4.553  -3.954  0.00  0.00    -0.149 NA
ATOM      2  N   UNL     1       4.753   4.322  -4.850  0.00  0.00    -0.143 NA
ENDROOT
BRANCH   2   3
ATOM      3  C   UNL     1       4.897   5.266  -5.827  0.00  0.00    +0.159 C 
ATOM      4  C   UNL     1       4.154   6.560  -5.980  0.00  0.00    +0.288 C 
ATOM      5  O   UNL     1       3.296   6.986  -5.229  0.00  0.00    -0.266 OA
ATOM      6  N   UNL     1       4.602   7.192  -7.125  0.00  0.00    -0.175 NA
ATOM      7  C   UNL     1       5.493   6.406  -7.621  0.00  0.00    +0.066 A 
ATOM      8  C   UNL     1       6.288   6.594  -8.848  0.00  0.00    +0.027 A 
ATOM      9  C   UNL     1       7.172   5.642  -9.199  0.00  0.00    +0.017 A 
ATOM     10  C   UNL     1       7.385   4.427  -8.416  0.00  0.00    +0.019 A 
ATOM     11 BR   UNL     1       8.656   3.210  -9.038  0.00  0.00    -0.050 Br
ATOM     12  C   UNL     1       6.688   4.205  -7.287  0.00  0.00    +0.027 A 
ATOM     13  C   UNL     1       5.731   5.180  -6.862  0.00  0.00    +0.031 A 
ENDBRANCH   2   3
BRANCH   1  17
ATOM     14  C   UNL     1       3.315   1.393  -1.232  0.00  0.00    +0.105 A 
ATOM     15  C   UNL     1       3.715   1.091  -2.535  0.00  0.00    +0.030 A 
ATOM     16  C   UNL     1       3.938   2.128  -3.442  0.00  0.00    +0.031 A 
ATOM     17  C   UNL     1       3.784   3.472  -3.058  0.00  0.00    +0.086 A 
ATOM     18  C   UNL     1       3.405   3.750  -1.737  0.00  0.00    +0.031 A 
ATOM     19  C   UNL     1       3.174   2.719  -0.819  0.00  0.00    +0.030 A 
BRANCH  14  20
ATOM     20  S   UNL     1       2.902   0.075  -0.129  0.00  0.00    +0.056 S 
ATOM     21  O   UNL     1       2.944  -1.179  -0.845  0.00  0.00    -0.153 OA
ATOM     22  O   UNL     1       3.588   0.282   1.123  0.00  0.00    -0.153 OA
BRANCH  20  23
ATOM     23  N   UNL     1       1.272   0.365   0.156  0.00  0.00    -0.204 NA
ATOM     24  H   UNL     1       0.698  -0.292  -0.371  0.00  0.00    +0.144 HD
ATOM     25  H   UNL     1       1.092   0.358   1.161  0.00  0.00    +0.144 HD
ENDBRANCH  20  23
ENDBRANCH  14  20
ENDBRANCH   1  17
TORSDOF 4
