REMARK  Name = 
REMARK  4 active torsions:
REMARK  status: ('A' for Active; 'I' for Inactive)
REMARK    1  A    between atoms: C_1  and  O_2
REMARK    2  A    between atoms: O_2  and  C_3
REMARK    3  A    between atoms: C_3  and  C_4
REMARK    4  A    between atoms: C_4  and  O_5
REMARK                            x       y       z     vdW  Elec       q    Type
REMARK                         _______ _______ _______ _____ _____    ______ ____
ROOT
ATOM      1  C   UNL     1       2.817  -1.017  -0.874  0.00  0.00    +0.187 C 
ENDROOT
BRANCH   1   3
ATOM      2  C   UNL     1       0.932   0.032   0.079  0.00  0.00    +0.194 C 
ATOM      3  O   UNL     1       2.353  -0.003   0.027  0.00  0.00    -0.381 OA
ENDBRANCH   1   3
BRANCH   1   4
ATOM      4  C   UNL     1       4.341  -0.980  -0.887  0.00  0.00    +0.184 C 
BRANCH   4   5
ATOM      5  O   UNL     1       4.843  -1.249   0.421  0.00  0.00    -0.393 OA
ATOM      6  H   UNL     1       4.339  -0.656   1.012  0.00  0.00    +0.209 HD
ENDBRANCH   4   5
ENDBRANCH   1   4
TORSDOF 3
