REMARK  Name = 
REMARK  3 active torsions:
REMARK  status: ('A' for Active; 'I' for Inactive)
REMARK    1  A    between atoms: O_1  and  C_2
REMARK    2  A    between atoms: C_5  and  N_18
REMARK    3  A    between atoms: C_11  and  O_12
REMARK                            x       y       z     vdW  Elec       q    Type
REMARK                         _______ _______ _______ _____ _____    ______ ____
ROOT
ATOM      1  C   UNL     1       2.517   0.090   0.027  0.00  0.00    +0.132 A 
ATOM      2  C   UNL     1       3.184  -1.149   0.023  0.00  0.00    +0.113 A 
ATOM      3  C   UNL     1       2.458  -2.438   0.026  0.00  0.00    +0.207 A 
ATOM      4  C   UNL     1       3.259  -3.668   0.029  0.00  0.00    +0.106 A 
ATOM      5  C   UNL     1       4.645  -3.552   0.034  0.00  0.00    +0.143 A 
ATOM      6  O   UNL     1       5.310  -2.354   0.042  0.00  0.00    -0.448 OA
ATOM      7  C   UNL     1       5.436  -4.705   0.034  0.00  0.00    +0.047 A 
ATOM      8  C   UNL     1       4.838  -5.967   0.032  0.00  0.00    +0.007 A 
ATOM      9  C   UNL     1       3.447  -6.082   0.030  0.00  0.00    +0.046 A 
ATOM     10  C   UNL     1       2.661  -4.934   0.028  0.00  0.00    +0.131 A 
ATOM     11  O   UNL     1       1.237  -2.539   0.027  0.00  0.00    -0.286 OA
ATOM     12  C   UNL     1       4.583  -1.189   0.023  0.00  0.00    +0.219 A 
ATOM     13  C   UNL     1       5.281   0.026   0.027  0.00  0.00    +0.316 A 
ATOM     14  C   UNL     1       4.625   1.262   0.039  0.00  0.00    +0.092 A 
ATOM     15  C   UNL     1       3.234   1.290   0.037  0.00  0.00    +0.053 A 
ENDROOT
BRANCH  13  16
ATOM     16  N   UNL     1       6.731   0.033   0.023  0.00  0.00    +0.083 N 
ATOM     17  O   UNL     1       7.301  -0.516  -0.928  0.00  0.00    +0.042 OA
ATOM     18  O   UNL     1       7.288   0.632   0.953  0.00  0.00    -0.576 OA
ENDBRANCH  13  16
BRANCH   1  19
ATOM     19  O   UNL     1       1.154   0.147   0.026  0.00  0.00    -0.506 OA
ATOM     20  H   UNL     1       0.840   1.065   0.033  0.00  0.00    +0.292 HD
ENDBRANCH   1  19
BRANCH  10  21
ATOM     21  O   UNL     1       1.304  -5.116   0.026  0.00  0.00    -0.506 OA
ATOM     22  H   UNL     1       0.884  -4.225   0.026  0.00  0.00    +0.292 HD
ENDBRANCH  10  21
TORSDOF 3
