REMARK  Name = 
REMARK  16 active torsions:
REMARK  status: ('A' for Active; 'I' for Inactive)
REMARK    1  A    between atoms: O_1  and  C_2
REMARK    2  A    between atoms: C_2  and  C_4
REMARK    3  A    between atoms: C_2  and  C_10
REMARK    4  A    between atoms: C_4  and  O_5
REMARK    5  A    between atoms: O_5  and  P_6
REMARK    6  A    between atoms: P_6  and  O_7
REMARK    7  A    between atoms: P_6  and  O_8
REMARK    8  A    between atoms: C_10  and  O_12
REMARK    9  A    between atoms: C_10  and  C_13
REMARK   10  A    between atoms: C_13  and  O_15
REMARK   11  A    between atoms: C_13  and  C_16
REMARK   12  A    between atoms: C_16  and  C_18
REMARK   13  A    between atoms: C_18  and  O_19
REMARK   14  A    between atoms: O_19  and  P_20
REMARK   15  A    between atoms: P_20  and  O_21
REMARK   16  A    between atoms: P_20  and  O_22
REMARK                            x       y       z     vdW  Elec       q    Type
REMARK                         _______ _______ _______ _____ _____    ______ ____
ROOT
ATOM      1  C   UNL     1       5.112   1.301   0.510  0.00  0.00    +0.181 C 
ENDROOT
BRANCH   1   2
ATOM      2  O   UNL     1       4.698   0.097   1.198  0.00  0.00    -0.386 OA
ATOM      3  H   UNL     1       4.932   0.158   2.138  0.00  0.00    +0.210 HD
ENDBRANCH   1   2
BRANCH   1   4
ATOM      4  C   UNL     1       4.724   1.107  -0.964  0.00  0.00    +0.214 C 
BRANCH   4   5
ATOM      5  O   UNL     1       5.373  -0.012  -1.557  0.00  0.00    -0.382 OA
ATOM      6  H   UNL     1       4.684  -0.662  -1.786  0.00  0.00    +0.210 HD
ENDBRANCH   4   5
BRANCH   4   7
ATOM      7  C   UNL     1       4.914   2.367  -1.806  0.00  0.00    +0.190 C 
ATOM      8  O   UNL     1       5.192   3.458  -1.307  0.00  0.00    -0.292 OA
BRANCH   7   9
ATOM      9  C   UNL     1       4.611   2.197  -3.289  0.00  0.00    +0.249 C 
BRANCH   9  10
ATOM     10  O   UNL     1       4.771   3.348  -4.075  0.00  0.00    -0.279 OA
BRANCH  10  11
ATOM     11  P   UNL     1       6.234   3.747  -4.578  0.00  0.00    +0.473 P 
ATOM     12  O   UNL     1       7.114   4.486  -3.640  0.00  0.00    -0.228 OA
BRANCH  11  13
ATOM     13  O   UNL     1       5.947   4.530  -5.938  0.00  0.00    -0.303 OA
ATOM     14  H   UNL     1       5.599   5.422  -5.756  0.00  0.00    +0.222 HD
ENDBRANCH  11  13
BRANCH  11  15
ATOM     15  O   UNL     1       6.881   2.380  -5.095  0.00  0.00    -0.303 OA
ATOM     16  H   UNL     1       7.636   2.125  -4.532  0.00  0.00    +0.222 HD
ENDBRANCH  11  15
ENDBRANCH  10  11
ENDBRANCH   9  10
ENDBRANCH   7   9
ENDBRANCH   4   7
ENDBRANCH   1   4
BRANCH   1  17
ATOM     17  C   UNL     1       6.605   1.612   0.804  0.00  0.00    +0.172 C 
BRANCH  17  18
ATOM     18  O   UNL     1       7.447   0.484   0.544  0.00  0.00    -0.387 OA
ATOM     19  H   UNL     1       7.013  -0.303   0.916  0.00  0.00    +0.210 HD
ENDBRANCH  17  18
BRANCH  17  20
ATOM     20  C   UNL     1       6.735   2.015   2.280  0.00  0.00    +0.206 C 
BRANCH  20  21
ATOM     21  O   UNL     1       8.057   2.381   2.634  0.00  0.00    -0.284 OA
BRANCH  21  22
ATOM     22  P   UNL     1       8.349   2.504   4.206  0.00  0.00    +0.472 P 
ATOM     23  O   UNL     1       9.698   2.997   4.609  0.00  0.00    -0.228 OA
BRANCH  22  24
ATOM     24  O   UNL     1       8.014   1.059   4.810  0.00  0.00    -0.303 OA
ATOM     25  H   UNL     1       8.835   0.548   4.924  0.00  0.00    +0.222 HD
ENDBRANCH  22  24
BRANCH  22  26
ATOM     26  O   UNL     1       7.156   3.408   4.773  0.00  0.00    -0.303 OA
ATOM     27  H   UNL     1       7.406   4.350   4.753  0.00  0.00    +0.222 HD
ENDBRANCH  22  26
ENDBRANCH  21  22
ENDBRANCH  20  21
ENDBRANCH  17  20
ENDBRANCH   1  17
TORSDOF 16
