REMARK  Name = 
REMARK  2 active torsions:
REMARK  status: ('A' for Active; 'I' for Inactive)
REMARK    1  A    between atoms: O_1  and  C_2
REMARK    2  A    between atoms: C_7  and  O_8
REMARK                            x       y       z     vdW  Elec       q    Type
REMARK                         _______ _______ _______ _____ _____    ______ ____
ROOT
ATOM      1  C   UNL     1       2.308  -0.031   0.041  0.00  0.00    +0.158 A 
ATOM      2  C   UNL     1       3.017  -1.230  -0.037  0.00  0.00    +0.158 A 
ATOM      3  C   UNL     1       4.405  -1.218  -0.166  0.00  0.00    +0.049 A 
ATOM      4  C   UNL     1       5.082   0.003  -0.216  0.00  0.00    +0.004 A 
ATOM      5  C   UNL     1       4.372   1.202  -0.138  0.00  0.00    +0.004 A 
ATOM      6  C   UNL     1       2.982   1.188  -0.008  0.00  0.00    +0.049 A 
ENDROOT
BRANCH   1   7
ATOM      7  O   UNL     1       0.947  -0.063   0.166  0.00  0.00    -0.503 OA
ATOM      8  H   UNL     1       0.611   0.846   0.190  0.00  0.00    +0.292 HD
ENDBRANCH   1   7
BRANCH   2   9
ATOM      9  O   UNL     1       2.338  -2.416   0.012  0.00  0.00    -0.503 OA
ATOM     10  H   UNL     1       2.972  -3.145  -0.069  0.00  0.00    +0.292 HD
ENDBRANCH   2   9
TORSDOF 2
