REMARK  Name = 
REMARK  2 active torsions:
REMARK  status: ('A' for Active; 'I' for Inactive)
REMARK    1  A    between atoms: C_1  and  N_2
REMARK    2  A    between atoms: C_11  and  O_12
REMARK                            x       y       z     vdW  Elec       q    Type
REMARK                         _______ _______ _______ _____ _____    ______ ____
ROOT
ATOM      1  C   UNL     1       1.106  -0.092  -0.080  0.00  0.00    +0.152 C 
ATOM      2  N   UNL     1       2.542  -0.023  -0.068  0.00  0.00    -0.318 N 
ATOM      3  C   UNL     1       3.393  -1.091  -0.097  0.00  0.00    +0.169 A 
ATOM      4  N   UNL     1       3.080  -2.396  -0.150  0.00  0.00    -0.195 NA
ATOM      5  C   UNL     1       4.171  -3.178  -0.191  0.00  0.00    +0.218 A 
ATOM      6  N   UNL     1       5.455  -2.781  -0.140  0.00  0.00    -0.178 NA
ATOM      7  C   UNL     1       5.699  -1.459  -0.082  0.00  0.00    +0.245 A 
ATOM      8  N   UNL     1       3.954  -4.540  -0.259  0.00  0.00    -0.327 N 
ATOM      9  H   UNL     1       4.749  -5.040   0.113  0.00  0.00    +0.145 HD
ATOM     10  H   UNL     1       3.044  -4.769   0.115  0.00  0.00    +0.145 HD
ATOM     11  C   UNL     1       4.661  -0.535  -0.063  0.00  0.00    +0.169 A 
ATOM     12  N   UNL     1       4.590   0.840  -0.019  0.00  0.00    -0.229 NA
ATOM     13  C   UNL     1       3.301   1.114  -0.031  0.00  0.00    +0.201 A 
ENDROOT
BRANCH   7  14
ATOM     14  O   UNL     1       7.022  -1.119  -0.047  0.00  0.00    -0.491 OA
ATOM     15  H   UNL     1       7.437  -1.996  -0.098  0.00  0.00    +0.294 HD
ENDBRANCH   7  14
TORSDOF 1
