REMARK  Name = 
REMARK  7 active torsions:
REMARK  status: ('A' for Active; 'I' for Inactive)
REMARK    1  A    between atoms: O_1  and  C_2
REMARK    2  A    between atoms: C_2  and  C_4
REMARK    3  A    between atoms: C_4  and  C_5
REMARK    4  A    between atoms: C_5  and  C_6
REMARK    5  A    between atoms: C_6  and  C_8
REMARK    6  A    between atoms: C_9  and  C_14
REMARK    7  A    between atoms: C_14  and  O_15
REMARK                            x       y       z     vdW  Elec       q    Type
REMARK                         _______ _______ _______ _____ _____    ______ ____
ROOT
ATOM      1  C   UNL     1       6.777  -2.291  -0.455  0.00  0.00    +0.031 A 
ATOM      2  C   UNL     1       7.453  -3.270  -1.216  0.00  0.00    +0.012 A 
ATOM      3  C   UNL     1       8.844  -3.287  -1.315  0.00  0.00    +0.001 A 
ATOM      4  C   UNL     1       9.591  -2.323  -0.660  0.00  0.00    +0.001 A 
ATOM      5  C   UNL     1       8.941  -1.350   0.100  0.00  0.00    +0.015 A 
ATOM      6  C   UNL     1       7.532  -1.309   0.219  0.00  0.00    +0.069 A 
ENDROOT
BRANCH   1   7
ATOM      7  C   UNL     1       5.284  -2.351  -0.451  0.00  0.00    +0.164 C 
ATOM      8  O   UNL     1       4.645  -1.303  -0.406  0.00  0.00    -0.292 OA
BRANCH   7   9
ATOM      9  C   UNL     1       4.608  -3.706  -0.573  0.00  0.00    +0.091 C 
BRANCH   9  10
ATOM     10  C   UNL     1       3.086  -3.631  -0.468  0.00  0.00    +0.128 C 
BRANCH  10  11
ATOM     11  C   UNL     1       2.491  -5.010  -0.622  0.00  0.00    +0.305 C 
ATOM     12  O   UNL     1       3.137  -6.036  -0.773  0.00  0.00    -0.251 OA
BRANCH  11  13
ATOM     13  O   UNL     1       1.141  -5.006  -0.585  0.00  0.00    -0.481 OA
ATOM     14  H   UNL     1       0.748  -4.121  -0.463  0.00  0.00    +0.295 HD
ENDBRANCH  11  13
ENDBRANCH  10  11
ENDBRANCH   9  10
ENDBRANCH   7   9
ENDBRANCH   1   7
BRANCH   6  15
ATOM     15  C   UNL     1       7.047  -0.246   1.154  0.00  0.00    +0.337 C 
ATOM     16  O   UNL     1       7.762   0.155   2.062  0.00  0.00    -0.245 OA
BRANCH  15  17
ATOM     17  O   UNL     1       5.853   0.322   0.915  0.00  0.00    -0.477 OA
ATOM     18  H   UNL     1       5.295  -0.101   0.224  0.00  0.00    +0.295 HD
ENDBRANCH  15  17
ENDBRANCH   6  15
TORSDOF 7
