REMARK  Name = 
REMARK  8 active torsions:
REMARK  status: ('A' for Active; 'I' for Inactive)
REMARK    1  A    between atoms: O_1  and  O_2
REMARK    2  A    between atoms: O_2  and  C_3
REMARK    3  A    between atoms: C_3  and  C_4
REMARK    4  A    between atoms: C_4  and  C_5
REMARK    5  A    between atoms: C_14  and  C_16
REMARK    6  A    between atoms: C_16  and  C_17
REMARK    7  A    between atoms: C_24  and  C_29
REMARK    8  A    between atoms: C_32  and  O_33
REMARK                            x       y       z     vdW  Elec       q    Type
REMARK                         _______ _______ _______ _____ _____    ______ ____
ROOT
ATOM      1  C   UNL     1       2.820  -1.275   0.191  0.00  0.00    +0.381 C 
ATOM      2  C   UNL     1       2.321  -2.471  -0.651  0.00  0.00    +0.391 C 
ATOM      3  O   UNL     1       2.107  -2.495  -1.856  0.00  0.00    -0.239 OA
ATOM      4  N   UNL     1       2.235  -3.511   0.228  0.00  0.00    -0.123 N 
ATOM      5  C   UNL     1       2.430  -3.037   1.482  0.00  0.00    +0.320 C 
ATOM      6  C   UNL     1       2.210  -4.025   2.634  0.00  0.00    +0.192 C 
ATOM      7  N   UNL     1       2.567  -5.390   2.186  0.00  0.00    -0.327 N 
ATOM      8  H   UNL     1       2.425  -6.126   2.873  0.00  0.00    +0.147 HD
ATOM      9  C   UNL     1       2.307  -5.774   0.871  0.00  0.00    +0.073 C 
ATOM     10  C   UNL     1       2.112  -4.843  -0.086  0.00  0.00    +0.223 C 
ATOM     11  N   UNL     1       2.718  -1.778   1.603  0.00  0.00    -0.033 NA
ENDROOT
BRANCH   9  12
ATOM     12  C   UNL     1       2.382  -7.216   0.536  0.00  0.00    -0.001 A 
ATOM     13  C   UNL     1       1.512  -7.805  -0.395  0.00  0.00    +0.013 A 
ATOM     14  C   UNL     1       1.640  -9.157  -0.730  0.00  0.00    +0.046 A 
ATOM     15  C   UNL     1       2.625  -9.932  -0.135  0.00  0.00    +0.117 A 
ATOM     16  C   UNL     1       3.488  -9.378   0.800  0.00  0.00    +0.046 A 
ATOM     17  C   UNL     1       3.367  -8.024   1.131  0.00  0.00    +0.013 A 
BRANCH  15  18
ATOM     18  O   UNL     1       2.717 -11.240  -0.506  0.00  0.00    -0.507 OA
ATOM     19  H   UNL     1       3.478 -11.640  -0.054  0.00  0.00    +0.292 HD
ENDBRANCH  15  18
ENDBRANCH   9  12
BRANCH   1  20
ATOM     20  O   UNL     1       2.117  -0.075  -0.131  0.00  0.00    -0.169 OA
BRANCH  20  21
ATOM     21  O   UNL     1       0.759  -0.220   0.383  0.00  0.00    -0.245 OA
ATOM     22  H   UNL     1       0.434   0.634   0.046  0.00  0.00    +0.253 HD
ENDBRANCH  20  21
ENDBRANCH   1  20
BRANCH   6  23
ATOM     23  C   UNL     1       2.890  -3.629   3.954  0.00  0.00    +0.069 C 
BRANCH  23  24
ATOM     24  C   UNL     1       4.361  -3.276   3.916  0.00  0.00    -0.045 A 
ATOM     25  C   UNL     1       5.263  -3.902   3.047  0.00  0.00    +0.004 A 
ATOM     26  C   UNL     1       6.591  -3.481   2.976  0.00  0.00    +0.000 A 
ATOM     27  C   UNL     1       7.044  -2.453   3.797  0.00  0.00    +0.000 A 
ATOM     28  C   UNL     1       6.177  -1.865   4.713  0.00  0.00    +0.000 A 
ATOM     29  C   UNL     1       4.845  -2.279   4.779  0.00  0.00    +0.004 A 
ENDBRANCH  23  24
ENDBRANCH   6  23
BRANCH   1  30
ATOM     30  C   UNL     1       4.308  -1.092  -0.231  0.00  0.00    +0.138 C 
BRANCH  30  31
ATOM     31  C   UNL     1       5.159  -0.025   0.432  0.00  0.00    -0.040 A 
ATOM     32  C   UNL     1       6.176   0.600  -0.313  0.00  0.00    +0.005 A 
ATOM     33  C   UNL     1       7.039   1.528   0.278  0.00  0.00    +0.015 A 
ATOM     34  C   UNL     1       6.899   1.834   1.629  0.00  0.00    +0.018 A 
ATOM     35 BR   UNL     1       8.074   3.070   2.444  0.00  0.00    -0.050 Br
ATOM     36  C   UNL     1       5.906   1.224   2.386  0.00  0.00    +0.015 A 
ATOM     37  C   UNL     1       5.046   0.296   1.791  0.00  0.00    +0.005 A 
ENDBRANCH  30  31
ENDBRANCH   1  30
TORSDOF 8
