REMARK  Name = 
REMARK  5 active torsions:
REMARK  status: ('A' for Active; 'I' for Inactive)
REMARK    1  A    between atoms: O_1  and  C_2
REMARK    2  A    between atoms: C_2  and  C_4
REMARK    3  A    between atoms: N_6  and  C_7
REMARK    4  A    between atoms: C_8  and  C_14
REMARK    5  A    between atoms: C_14  and  O_15
REMARK                            x       y       z     vdW  Elec       q    Type
REMARK                         _______ _______ _______ _____ _____    ______ ____
ROOT
ATOM      1  C   UNL     1       5.146  -2.513  -0.916  0.00  0.00    +0.048 A 
ATOM      2  C   UNL     1       4.645  -3.778  -0.577  0.00  0.00    +0.025 A 
ATOM      3  C   UNL     1       5.291  -4.940  -1.006  0.00  0.00    +0.016 A 
ATOM      4  C   UNL     1       6.433  -4.844  -1.796  0.00  0.00    +0.014 A 
ATOM      5  I   UNL     1       7.336  -6.572  -2.513  0.00  0.00    -0.044 I 
ATOM      6  C   UNL     1       6.960  -3.596  -2.123  0.00  0.00    +0.031 A 
ATOM      7  C   UNL     1       6.329  -2.427  -1.672  0.00  0.00    +0.081 A 
ENDROOT
BRANCH   1   9
ATOM      8  C   UNL     1       3.080  -1.234  -0.574  0.00  0.00    +0.325 C 
ATOM      9  N   UNL     1       4.457  -1.360  -0.477  0.00  0.00    -0.275 N 
ATOM     10  H   UNL     1       4.977  -0.495  -0.307  0.00  0.00    +0.155 HD
ATOM     11  O   UNL     1       2.290  -2.027  -1.078  0.00  0.00    -0.263 OA
BRANCH   8  12
ATOM     12  C   UNL     1       2.538   0.134  -0.159  0.00  0.00    +0.393 C 
ATOM     13  O   UNL     1       3.218   0.952   0.424  0.00  0.00    -0.240 OA
BRANCH  12  14
ATOM     14  O   UNL     1       1.277   0.304  -0.595  0.00  0.00    -0.474 OA
ATOM     15  H   UNL     1       0.973  -0.515  -1.055  0.00  0.00    +0.296 HD
ENDBRANCH  12  14
ENDBRANCH   8  12
ENDBRANCH   1   9
BRANCH   7  16
ATOM     16  C   UNL     1       6.936  -1.144  -2.102  0.00  0.00    +0.339 C 
ATOM     17  O   UNL     1       8.140  -0.977  -2.182  0.00  0.00    -0.245 OA
BRANCH  16  18
ATOM     18  O   UNL     1       6.032  -0.201  -2.436  0.00  0.00    -0.477 OA
ATOM     19  H   UNL     1       5.128  -0.544  -2.565  0.00  0.00    +0.295 HD
ENDBRANCH  16  18
ENDBRANCH   7  16
TORSDOF 5
