REMARK  Name = 
REMARK  3 active torsions:
REMARK  status: ('A' for Active; 'I' for Inactive)
REMARK    1  A    between atoms: C_1  and  C_2
REMARK    2  A    between atoms: C_4  and  C_5
REMARK    3  A    between atoms: C_6  and  C_8
REMARK                            x       y       z     vdW  Elec       q    Type
REMARK                         _______ _______ _______ _____ _____    ______ ____
ROOT
ATOM      1  C   UNL     1       6.000  -1.992  -0.005  0.00  0.00    +0.084 A 
ATOM      2  C   UNL     1       5.940  -3.208  -0.656  0.00  0.00    +0.049 A 
ATOM      3  C   UNL     1       7.058  -3.996  -0.549  0.00  0.00    +0.116 A 
ATOM      4  N   UNL     1       8.156  -3.635   0.137  0.00  0.00    -0.223 NA
ATOM      5  C   UNL     1       8.127  -2.433   0.715  0.00  0.00    +0.213 A 
ATOM      6  N   UNL     1       9.234  -2.053   1.444  0.00  0.00    -0.327 N 
ATOM      7  H   UNL     1       9.742  -2.878   1.735  0.00  0.00    +0.145 HD
ATOM      8  H   UNL     1       8.960  -1.402   2.166  0.00  0.00    +0.145 HD
ATOM      9  N   UNL     1       7.090  -1.595   0.684  0.00  0.00    -0.214 NA
ENDROOT
BRANCH   1  13
ATOM     10  C   UNL     1       1.255   0.356   0.065  0.00  0.00    +0.073 C 
ATOM     11  C   UNL     1       2.711   0.056   0.038  0.00  0.00    +0.076 A 
ATOM     12  S   UNL     1       3.253  -1.566  -0.008  0.00  0.00    -0.071 S 
ATOM     13  C   UNL     1       4.892  -1.030  -0.000  0.00  0.00    +0.060 A 
ATOM     14  C   UNL     1       4.908   0.361   0.043  0.00  0.00    +0.055 A 
ATOM     15  C   UNL     1       6.103   1.248   0.063  0.00  0.00    +0.067 C 
ATOM     16  N   UNL     1       3.657   0.967   0.051  0.00  0.00    -0.249 NA
ENDBRANCH   1  13
TORSDOF 1
