REMARK  Name = 
REMARK  12 active torsions:
REMARK  status: ('A' for Active; 'I' for Inactive)
REMARK    1  A    between atoms: C_1  and  C_2
REMARK    2  A    between atoms: N_4  and  C_5
REMARK    3  A    between atoms: C_7  and  O_9
REMARK    4  A    between atoms: C_10  and  O_12
REMARK    5  A    between atoms: C_13  and  C_15
REMARK    6  A    between atoms: C_15  and  O_16
REMARK    7  A    between atoms: C_18  and  O_20
REMARK    8  A    between atoms: O_20  and  C_21
REMARK    9  A    between atoms: C_21  and  C_22
REMARK   10  A    between atoms: C_22  and  N_24
REMARK   11  A    between atoms: C_22  and  C_25
REMARK   12  A    between atoms: C_25  and  O_26
REMARK                            x       y       z     vdW  Elec       q    Type
REMARK                         _______ _______ _______ _____ _____    ______ ____
ROOT
ATOM      1  C   UNK     1       4.617   0.783  -0.884  0.00  0.00    +0.160 C 
ATOM      2  C   UNK     1       5.149   1.861  -1.865  0.00  0.00    +0.273 C 
ATOM      3  O   UNK     1       4.775   1.545  -3.207  0.00  0.00    -0.341 OA
ATOM      4  C   UNK     1       5.326   0.306  -3.696  0.00  0.00    +0.178 C 
ATOM      5  C   UNK     1       4.870  -0.863  -2.807  0.00  0.00    +0.176 C 
ATOM      6  C   UNK     1       5.173  -0.594  -1.321  0.00  0.00    +0.171 C 
ENDROOT
BRANCH   1   9
ATOM      7  C   UNK     1       0.968   0.156  -0.006  0.00  0.00    +0.109 C 
ATOM      8  C   UNK     1       2.462   0.010   0.081  0.00  0.00    +0.210 C 
ATOM      9  N   UNK     1       3.148   0.798  -0.814  0.00  0.00    -0.305 N 
ATOM     10  H   UNK     1       2.702   1.669  -1.094  0.00  0.00    +0.149 HD
ATOM     11  O   UNK     1       3.010  -0.749   0.874  0.00  0.00    -0.276 OA
ENDBRANCH   1   9
BRANCH   5  12
ATOM     12  O   UNK     1       3.462  -1.056  -3.011  0.00  0.00    -0.387 OA
ATOM     13  H   UNK     1       3.014  -0.239  -2.708  0.00  0.00    +0.210 HD
ENDBRANCH   5  12
BRANCH   6  14
ATOM     14  O   UNK     1       6.591  -0.640  -1.115  0.00  0.00    -0.387 OA
ATOM     15  H   UNK     1       6.771  -0.368  -0.197  0.00  0.00    +0.210 HD
ENDBRANCH   6  14
BRANCH   2  16
ATOM     16  O   UNK     1       4.599   3.133  -1.486  0.00  0.00    -0.347 OA
BRANCH  16  17
ATOM     17  C   UNK     1       5.053   4.174  -2.356  0.00  0.00    +0.193 C 
BRANCH  17  18
ATOM     18  C   UNK     1       4.470   5.537  -1.960  0.00  0.00    +0.187 C 
BRANCH  18  19
ATOM     19  N   UNK     1       4.957   6.602  -2.892  0.00  0.00    -0.317 NA
ATOM     20  H   UNK     1       4.681   7.512  -2.507  0.00  0.00    +0.119 HD
ATOM     21  H   UNK     1       5.980   6.612  -2.862  0.00  0.00    +0.119 HD
ENDBRANCH  18  19
BRANCH  18  22
ATOM     22  C   UNK     1       2.939   5.488  -2.050  0.00  0.00    +0.324 C 
ATOM     23  O   UNK     1       2.188   5.081  -1.178  0.00  0.00    -0.249 OA
BRANCH  22  24
ATOM     24  O   UNK     1       2.498   5.970  -3.244  0.00  0.00    -0.479 OA
ATOM     25  H   UNK     1       3.299   6.271  -3.740  0.00  0.00    +0.295 HD
ENDBRANCH  22  24
ENDBRANCH  18  22
ENDBRANCH  17  18
ENDBRANCH  16  17
ENDBRANCH   2  16
BRANCH   4  26
ATOM     26  C   UNK     1       6.854   0.362  -3.889  0.00  0.00    +0.190 C 
BRANCH  26  27
ATOM     27  O   UNK     1       7.237   1.457  -4.720  0.00  0.00    -0.392 OA
ATOM     28  H   UNK     1       6.723   1.391  -5.543  0.00  0.00    +0.210 HD
ENDBRANCH  26  27
ENDBRANCH   4  26
TORSDOF 11
