REMARK  Name = 
REMARK  3 active torsions:
REMARK  status: ('A' for Active; 'I' for Inactive)
REMARK    1  A    between atoms: C_2  and  C_3
REMARK    2  A    between atoms: C_3  and  O_4
REMARK    3  A    between atoms: C_7  and  N_10
REMARK                            x       y       z     vdW  Elec       q    Type
REMARK                         _______ _______ _______ _____ _____    ______ ____
ROOT
ATOM      1  N   UNL     1       4.996  -1.611   0.779  0.00  0.00    -0.288 N 
ATOM      2  C   UNL     1       6.277  -1.493   1.249  0.00  0.00    +0.169 A 
ATOM      3  N   UNL     1       6.724  -0.725   2.256  0.00  0.00    -0.198 NA
ATOM      4  C   UNL     1       8.057  -0.885   2.409  0.00  0.00    +0.226 A 
ATOM      5  N   UNL     1       8.912  -1.665   1.718  0.00  0.00    -0.201 NA
ATOM      6  C   UNL     1       8.408  -2.402   0.705  0.00  0.00    +0.149 A 
ATOM      7  N   UNL     1       9.271  -3.202  -0.027  0.00  0.00    -0.341 N 
ATOM      8  H   UNL     1       8.807  -3.951  -0.532  0.00  0.00    +0.144 HD
ATOM      9  H   UNL     1      10.121  -3.427   0.473  0.00  0.00    +0.144 HD
ATOM     10 CL   UNL     1       8.759   0.032   3.673  0.00  0.00    -0.041 Cl
ATOM     11  C   UNL     1       7.027  -2.340   0.449  0.00  0.00    +0.147 A 
ATOM     12  N   UNL     1       6.232  -2.987  -0.468  0.00  0.00    -0.231 NA
ATOM     13  C   UNL     1       5.019  -2.539  -0.230  0.00  0.00    +0.203 A 
ENDROOT
BRANCH   1  16
ATOM     14  C   UNL     1       2.057  -0.071  -0.011  0.00  0.00    +0.146 C 
ATOM     15  O   UNL     1       2.683  -1.271   0.483  0.00  0.00    -0.351 OA
ATOM     16  C   UNL     1       3.830  -0.915   1.289  0.00  0.00    +0.222 C 
ATOM     17  C   UNL     1       3.936   0.606   1.261  0.00  0.00    +0.057 C 
ATOM     18  C   UNL     1       2.538   1.045   0.895  0.00  0.00    +0.038 C 
BRANCH  14  19
ATOM     19  C   UNL     1       2.452   0.142  -1.479  0.00  0.00    +0.187 C 
BRANCH  19  20
ATOM     20  O   UNL     1       1.966  -0.924  -2.290  0.00  0.00    -0.392 OA
ATOM     21  H   UNL     1       2.378  -1.742  -1.959  0.00  0.00    +0.210 HD
ENDBRANCH  19  20
ENDBRANCH  14  19
ENDBRANCH   1  16
TORSDOF 3
