REMARK  Name = 
REMARK  11 active torsions:
REMARK  status: ('A' for Active; 'I' for Inactive)
REMARK    1  A    between atoms: N_1  and  CA_2
REMARK    2  A    between atoms: CA_2  and  C_4
REMARK    3  A    between atoms: CA_2  and  C_15
REMARK    4  A    between atoms: C_4  and  C_5
REMARK    5  A    between atoms: C_5  and  C_6
REMARK    6  A    between atoms: C_6  and  N_7
REMARK    7  A    between atoms: C_8  and  C_10
REMARK    8  A    between atoms: C_10  and  P_11
REMARK    9  A    between atoms: P_11  and  O_12
REMARK   10  A    between atoms: P_11  and  O_13
REMARK   11  A    between atoms: C_15  and  O_16
REMARK                            x       y       z     vdW  Elec       q    Type
REMARK                         _______ _______ _______ _____ _____    ______ ____
ROOT
ATOM      1  C   UNL     1       2.865   3.909   0.775  0.00  0.00    +0.104 C 
ENDROOT
BRANCH   1   2
ATOM      2  N   UNL     1       2.270   5.123   0.232  0.00  0.00    -0.315 N 
ATOM      3  H   UNL     1       2.274   5.236  -0.779  0.00  0.00    +0.149 HD
ATOM      4  C   UNL     1       2.257   6.293   0.963  0.00  0.00    +0.225 C 
ATOM      5  O   UNL     1       2.656   6.374   2.124  0.00  0.00    -0.275 OA
BRANCH   4   6
ATOM      6  C   UNL     1       1.763   7.493   0.217  0.00  0.00    +0.222 C 
BRANCH   6   7
ATOM      7  P   UNL     1       3.250   8.393  -0.353  0.00  0.00    +0.337 P 
ATOM      8  O   UNL     1       4.509   9.155  -0.836  0.00  0.00    -0.258 OA
BRANCH   7   9
ATOM      9  O   UNL     1       2.211   9.521  -0.939  0.00  0.00    -0.324 OA
ATOM     10  H   UNL     1       2.669  10.379  -1.026  0.00  0.00    +0.220 HD
ENDBRANCH   7   9
BRANCH   7  11
ATOM     11  O   UNL     1       3.304   7.392  -1.657  0.00  0.00    -0.324 OA
ATOM     12  H   UNL     1       4.047   7.708  -2.214  0.00  0.00    +0.220 HD
ENDBRANCH   7  11
ENDBRANCH   6   7
ENDBRANCH   4   6
ENDBRANCH   1   2
BRANCH   1  13
ATOM     13  C   UNL     1       2.362   2.670   0.044  0.00  0.00    +0.021 C 
BRANCH  13  14
ATOM     14  C   UNL     1       2.877   1.399   0.712  0.00  0.00    +0.031 C 
BRANCH  14  15
ATOM     15  CA  UNL     1       2.376   0.113   0.047  0.00  0.00    +0.161 C 
BRANCH  15  16
ATOM     16  N   UNL     1       0.886  -0.004   0.092  0.00  0.00    -0.318 NA
ATOM     17  H1  UNL     1       0.551   0.450   0.950  0.00  0.00    +0.119 HD
ATOM     18  H2  UNL     1       0.499   0.572  -0.662  0.00  0.00    +0.119 HD
ENDBRANCH  15  16
BRANCH  15  19
ATOM     19  C   UNL     1       2.981  -1.117   0.759  0.00  0.00    +0.322 C 
ATOM     20  OXT UNL     1       4.159  -1.267   1.032  0.00  0.00    -0.249 OA
BRANCH  19  21
ATOM     21  O   UNL     1       2.017  -2.031   1.049  0.00  0.00    -0.480 OA
ATOM     22  H   UNL     1       1.173  -1.645   0.700  0.00  0.00    +0.295 HD
ENDBRANCH  19  21
ENDBRANCH  15  19
ENDBRANCH  14  15
ENDBRANCH  13  14
ENDBRANCH   1  13
TORSDOF 11
