REMARK  Name = 
REMARK  7 active torsions:
REMARK  status: ('A' for Active; 'I' for Inactive)
REMARK    1  A    between atoms: C_1  and  SE_2
REMARK    2  A    between atoms: SE_2  and  C_4
REMARK    3  A    between atoms: C_4  and  C_5
REMARK    4  A    between atoms: C_5  and  CA_6
REMARK    5  A    between atoms: CA_6  and  N_8
REMARK    6  A    between atoms: CA_6  and  C_9
REMARK    7  A    between atoms: C_9  and  O_10
REMARK                            x       y       z     vdW  Elec       q    Type
REMARK                         _______ _______ _______ _____ _____    ______ ____
ROOT
ATOM      1  CA  UNL     1       5.662  -2.934   1.433  0.00  0.00    +0.000 C 
ENDROOT
BRANCH   1   2
ATOM      2  N   UNL     1       5.214  -4.126   0.707  0.00  0.00    +0.000 NA
ATOM      3  H1  UNL     1       5.620  -4.976   1.163  0.00  0.00    +0.000 HD
ATOM      4  H2  UNL     1       4.177  -4.219   0.789  0.00  0.00    +0.000 HD
ENDBRANCH   1   2
BRANCH   1   5
ATOM      5  C   UNL     1       7.174  -2.925   1.489  0.00  0.00    +0.000 C 
ATOM      6  OXT UNL     1       7.739  -2.945   2.571  0.00  0.00    +0.000 OA
BRANCH   5   7
ATOM      7  O   UNL     1       7.915  -2.905   0.360  0.00  0.00    +0.000 OA
ATOM      8  H   UNL     1       7.512  -2.904  -0.519  0.00  0.00    +0.000 HD
ENDBRANCH   5   7
ENDBRANCH   1   5
BRANCH   1   9
ATOM      9  C   UNL     1       5.165  -1.638   0.755  0.00  0.00    +0.000 C 
BRANCH   9  10
ATOM     10  C   UNL     1       3.640  -1.498   0.731  0.00  0.00    +0.000 C 
BRANCH  10  12
ATOM     11  C   UNL     1       1.246  -0.118   0.088  0.00  0.00    +0.000 C 
ATOM     12 SE   UNL     1       3.159   0.202  -0.115  0.00  0.00    +0.000 Se
ATOM     13  O   UNL     1       3.220   0.993   1.328  0.00  0.00    +0.000 OA
ENDBRANCH  10  12
ENDBRANCH   9  10
ENDBRANCH   1   9
TORSDOF 6
