REMARK  Name = 
REMARK  7 active torsions:
REMARK  status: ('A' for Active; 'I' for Inactive)
REMARK    1  A    between atoms: C_1  and  S_2
REMARK    2  A    between atoms: S_2  and  C_4
REMARK    3  A    between atoms: C_4  and  C_5
REMARK    4  A    between atoms: C_5  and  CA_6
REMARK    5  A    between atoms: CA_6  and  N_8
REMARK    6  A    between atoms: CA_6  and  C_9
REMARK    7  A    between atoms: C_9  and  O_10
REMARK                            x       y       z     vdW  Elec       q    Type
REMARK                         _______ _______ _______ _____ _____    ______ ____
ROOT
ATOM      1  CA  UNL     1       5.372  -2.612   1.767  0.00  0.00    +0.161 C 
ENDROOT
BRANCH   1   2
ATOM      2  N   UNL     1       4.939  -3.901   1.146  0.00  0.00    -0.318 NA
ATOM      3  H1  UNL     1       5.265  -4.659   1.759  0.00  0.00    +0.119 HD
ATOM      4  H2  UNL     1       3.919  -3.968   1.216  0.00  0.00    +0.119 HD
ENDBRANCH   1   2
BRANCH   1   5
ATOM      5  C   UNL     1       6.910  -2.552   1.717  0.00  0.00    +0.322 C 
ATOM      6  OXT UNL     1       7.614  -1.855   2.428  0.00  0.00    -0.249 OA
BRANCH   5   7
ATOM      7  O   UNL     1       7.401  -3.366   0.745  0.00  0.00    -0.480 OA
ATOM      8  H   UNL     1       6.619  -3.812   0.335  0.00  0.00    +0.295 HD
ENDBRANCH   5   7
ENDBRANCH   1   5
BRANCH   1   9
ATOM      9  C   UNL     1       4.813  -1.402   1.007  0.00  0.00    +0.043 C 
BRANCH   9  10
ATOM     10  C   UNL     1       3.293  -1.257   1.018  0.00  0.00    +0.105 C 
BRANCH  10  12
ATOM     11  C   UNL     1       0.939  -0.697   2.223  0.00  0.00    +0.121 C 
ATOM     12  S   UNL     1       2.647  -1.041   2.706  0.00  0.00    +0.019 S 
ATOM     13  O   UNL     1       3.230   0.228   3.251  0.00  0.00    -0.257 OA
ENDBRANCH  10  12
ENDBRANCH   9  10
ENDBRANCH   1   9
TORSDOF 6
