REMARK  Name = 
REMARK  12 active torsions:
REMARK  status: ('A' for Active; 'I' for Inactive)
REMARK    1  A    between atoms: C_1  and  C_2
REMARK    2  A    between atoms: N_4  and  C_5
REMARK    3  A    between atoms: C_7  and  O_9
REMARK    4  A    between atoms: C_11  and  O_12
REMARK    5  A    between atoms: C_11  and  C_24
REMARK    6  A    between atoms: C_14  and  C_16
REMARK    7  A    between atoms: C_16  and  O_18
REMARK    8  A    between atoms: C_16  and  C_19
REMARK    9  A    between atoms: C_19  and  O_21
REMARK   10  A    between atoms: C_19  and  C_22
REMARK   11  A    between atoms: C_22  and  O_23
REMARK   12  A    between atoms: C_24  and  O_25
REMARK                            x       y       z     vdW  Elec       q    Type
REMARK                         _______ _______ _______ _____ _____    ______ ____
ROOT
ATOM      1  C   UNL     1       4.714   0.367  -0.935  0.00  0.00    +0.133 C 
ATOM      2  C   UNL     1       5.415  -0.833  -0.260  0.00  0.00    +0.176 C 
ATOM      3  O   UNL     1       5.200  -0.796   1.175  0.00  0.00    -0.332 OA
ATOM      4  C   UNL     1       5.531   0.415   1.848  0.00  0.00    +0.270 C 
ATOM      5  C   UNL     1       4.954   1.677   1.193  0.00  0.00    +0.110 C 
ATOM      6  C   UNL     1       5.218   1.683  -0.309  0.00  0.00    +0.143 C 
ENDROOT
BRANCH   1   9
ATOM      7  C   UNL     1       0.943   0.733  -1.343  0.00  0.00    +0.109 C 
ATOM      8  C   UNL     1       2.398   1.053  -1.539  0.00  0.00    +0.210 C 
ATOM      9  N   UNL     1       3.251   0.239  -0.827  0.00  0.00    -0.308 N 
ATOM     10  H   UNL     1       2.862  -0.518  -0.273  0.00  0.00    +0.149 HD
ATOM     11  O   UNL     1       2.784   1.963  -2.264  0.00  0.00    -0.276 OA
ENDBRANCH   1   9
BRANCH   4  12
ATOM     12  O   UNL     1       6.955   0.535   2.009  0.00  0.00    -0.356 OA
ATOM     13  H   UNL     1       7.242   1.217   1.362  0.00  0.00    +0.213 HD
ENDBRANCH   4  12
BRANCH   4  14
ATOM     14  C   UNL     1       4.955   0.333   3.294  0.00  0.00    +0.365 C 
ATOM     15  O   UNL     1       3.767   0.276   3.579  0.00  0.00    -0.245 OA
BRANCH  14  16
ATOM     16  O   UNL     1       5.941   0.336   4.232  0.00  0.00    -0.477 OA
ATOM     17  H   UNL     1       6.801   0.352   3.745  0.00  0.00    +0.295 HD
ENDBRANCH  14  16
ENDBRANCH   4  14
BRANCH   6  18
ATOM     18  O   UNL     1       6.627   1.854  -0.502  0.00  0.00    -0.390 OA
ATOM     19  H   UNL     1       6.795   1.708  -1.462  0.00  0.00    +0.210 HD
ENDBRANCH   6  18
BRANCH   2  20
ATOM     20  C   UNL     1       6.921  -1.084  -0.556  0.00  0.00    +0.176 C 
BRANCH  20  21
ATOM     21  O   UNL     1       7.278  -2.343   0.047  0.00  0.00    -0.387 OA
ATOM     22  H   UNL     1       6.957  -2.297   0.970  0.00  0.00    +0.210 HD
ENDBRANCH  20  21
BRANCH  20  23
ATOM     23  C   UNL     1       7.316  -1.117  -2.039  0.00  0.00    +0.171 C 
BRANCH  23  24
ATOM     24  O   UNL     1       7.023   0.132  -2.684  0.00  0.00    -0.387 OA
ATOM     25  H   UNL     1       7.437   0.058  -3.571  0.00  0.00    +0.210 HD
ENDBRANCH  23  24
BRANCH  23  26
ATOM     26  C   UNL     1       8.822  -1.365  -2.209  0.00  0.00    +0.189 C 
BRANCH  26  27
ATOM     27  O   UNL     1       9.123  -1.370  -3.609  0.00  0.00    -0.392 OA
ATOM     28  H   UNL     1       8.961  -2.275  -3.930  0.00  0.00    +0.210 HD
ENDBRANCH  26  27
ENDBRANCH  23  26
ENDBRANCH  20  23
ENDBRANCH   2  20
TORSDOF 11
