REMARK  Name = 
REMARK  4 active torsions:
REMARK  status: ('A' for Active; 'I' for Inactive)
REMARK    1  A    between atoms: O_1  and  C_2
REMARK    2  A    between atoms: C_2  and  C_4
REMARK    3  A    between atoms: C_4  and  C_6
REMARK    4  A    between atoms: C_6  and  C_7
REMARK                            x       y       z     vdW  Elec       q    Type
REMARK                         _______ _______ _______ _____ _____    ______ ____
ROOT
ATOM      1  C   UNL     1       3.056   1.171   0.657  0.00  0.00    +0.244 C 
ATOM      2  O   UNL     1       2.311   1.973   1.219  0.00  0.00    -0.285 OA
ENDROOT
BRANCH   1   3
ATOM      3  C   UNL     1       2.440  -0.060  -0.026  0.00  0.00    +0.373 C 
ATOM      4  O   UNL     1       2.006  -0.994   0.631  0.00  0.00    -0.242 OA
BRANCH   3   5
ATOM      5  O   UNL     1       2.323   0.046  -1.359  0.00  0.00    -0.475 OA
ATOM      6  H   UNL     1       3.012   0.699  -1.703  0.00  0.00    +0.295 HD
ENDBRANCH   3   5
ENDBRANCH   1   3
BRANCH   1   7
ATOM      7  C   UNL     1       4.548   1.248   0.717  0.00  0.00    +0.138 C 
BRANCH   7   8
ATOM      8  C   UNL     1       5.137   1.086  -0.659  0.00  0.00    +0.049 C 
ATOM      9  O   UNL     1       6.332   0.702  -0.694  0.00  0.00    -0.549 OA
ATOM     10  O   UNL     1       4.339   1.321  -1.617  0.00  0.00    -0.549 OA
ENDBRANCH   7   8
ENDBRANCH   1   7
TORSDOF 4
