REMARK  Name = 
REMARK  10 active torsions:
REMARK  status: ('A' for Active; 'I' for Inactive)
REMARK    1  A    between atoms: C_1  and  C_2
REMARK    2  A    between atoms: C_2  and  N_3
REMARK    3  A    between atoms: N_3  and  C_4
REMARK    4  A    between atoms: C_4  and  C_5
REMARK    5  A    between atoms: C_6  and  C_8
REMARK    6  A    between atoms: C_11  and  C_23
REMARK    7  A    between atoms: C_14  and  N_16
REMARK    8  A    between atoms: C_17  and  N_19
REMARK    9  A    between atoms: C_20  and  C_21
REMARK   10  A    between atoms: C_23  and  O_24
REMARK                            x       y       z     vdW  Elec       q    Type
REMARK                         _______ _______ _______ _____ _____    ______ ____
ROOT
ATOM      1  C   UNL     1       4.706   2.920  -1.246  0.00  0.00    +0.226 C 
ATOM      2  C   UNL     1       5.791   3.454  -0.275  0.00  0.00    +0.127 C 
ATOM      3  C   UNL     1       5.133   4.213   0.907  0.00  0.00    +0.077 C 
ATOM      4  C   UNL     1       4.264   5.326   0.331  0.00  0.00    +0.063 C 
ATOM      5  C   UNL     1       3.185   4.797  -0.601  0.00  0.00    +0.229 C 
ATOM      6  O   UNL     1       3.584   3.781  -1.509  0.00  0.00    -0.351 OA
ENDROOT
BRANCH   2   7
ATOM      7  N   UNL     1       6.764   4.366  -0.936  0.00  0.00    -0.308 N 
ATOM      8  H   UNL     1       7.081   5.160  -0.393  0.00  0.00    +0.149 HD
ATOM      9  C   UNL     1       7.570   4.008  -1.993  0.00  0.00    +0.210 C 
ATOM     10  O   UNL     1       7.512   2.930  -2.569  0.00  0.00    -0.276 OA
ATOM     11  C   UNL     1       8.543   5.081  -2.407  0.00  0.00    +0.109 C 
ENDBRANCH   2   7
BRANCH   1  13
ATOM     12  N   UNL     1       4.930   0.371  -1.148  0.00  0.00    -0.300 N 
ATOM     13  C   UNL     1       4.216   1.519  -0.785  0.00  0.00    +0.246 C 
ATOM     14  O   UNL     1       3.192   1.459  -0.091  0.00  0.00    -0.273 OA
BRANCH  12  16
ATOM     15  C   UNL     1       3.338  -1.540  -1.215  0.00  0.00    +0.024 C 
ATOM     16  C   UNL     1       4.545  -0.907  -0.539  0.00  0.00    +0.104 C 
ENDBRANCH  12  16
BRANCH  12  17
ATOM     17  C   UNL     1       6.066   0.431  -2.075  0.00  0.00    +0.104 C 
ATOM     18  C   UNL     1       6.627  -0.849  -2.670  0.00  0.00    +0.024 C 
ENDBRANCH  12  17
ENDBRANCH   1  13
BRANCH   3  19
ATOM     19  N   UNL     1       4.406   3.373   1.859  0.00  0.00    -0.326 NA
ATOM     20  H   UNL     1       3.725   3.921   2.392  0.00  0.00    +0.119 HD
ATOM     21  H   UNL     1       3.859   2.626   1.418  0.00  0.00    +0.119 HD
ENDBRANCH   3  19
BRANCH   5  22
ATOM     22  C   UNL     1       1.880   4.537   0.171  0.00  0.00    +0.334 C 
ATOM     23  O   UNL     1       1.396   5.324   0.974  0.00  0.00    -0.248 OA
BRANCH  22  24
ATOM     24  O   UNL     1       1.282   3.370  -0.141  0.00  0.00    -0.479 OA
ATOM     25  H   UNL     1       1.872   2.797  -0.683  0.00  0.00    +0.295 HD
ENDBRANCH  22  24
ENDBRANCH   5  22
TORSDOF 7
