REMARK  Name = 
REMARK  9 active torsions:
REMARK  status: ('A' for Active; 'I' for Inactive)
REMARK    1  A    between atoms: C_2  and  C_3
REMARK    2  A    between atoms: C_2  and  C_13
REMARK    3  A    between atoms: C_2  and  C_16
REMARK    4  A    between atoms: C_3  and  C_4
REMARK    5  A    between atoms: C_13  and  O_14
REMARK    6  A    between atoms: C_16  and  C_18
REMARK    7  A    between atoms: C_16  and  C_28
REMARK    8  A    between atoms: C_18  and  C_19
REMARK    9  A    between atoms: C_28  and  O_29
REMARK                            x       y       z     vdW  Elec       q    Type
REMARK                         _______ _______ _______ _____ _____    ______ ____
ROOT
ATOM      1  C   UNL     1       2.120   1.684  -2.137  0.00  0.00    +0.116 C 
ENDROOT
BRANCH   1   2
ATOM      2  C   UNL     1       2.606   0.570  -3.050  0.00  0.00    +0.309 C 
ATOM      3  O   UNL     1       2.054  -0.516  -3.158  0.00  0.00    -0.251 OA
BRANCH   2   4
ATOM      4  O   UNL     1       3.798   0.821  -3.633  0.00  0.00    -0.480 OA
ATOM      5  H   UNL     1       4.254   1.652  -3.382  0.00  0.00    +0.295 HD
ENDBRANCH   2   4
ENDBRANCH   1   2
BRANCH   1   6
ATOM      6  C   UNL     1       2.590   1.227  -0.651  0.00  0.00    +0.116 C 
BRANCH   6   7
ATOM      7  C   UNL     1       4.106   1.357  -0.674  0.00  0.00    +0.309 C 
ATOM      8  O   UNL     1       4.691   2.438  -0.672  0.00  0.00    -0.251 OA
BRANCH   7   9
ATOM      9  O   UNL     1       4.774   0.204  -0.876  0.00  0.00    -0.480 OA
ATOM     10  H   UNL     1       4.232  -0.596  -1.026  0.00  0.00    +0.295 HD
ENDBRANCH   7   9
ENDBRANCH   6   7
BRANCH   6  11
ATOM     11  C   UNL     1       2.098   2.062   0.574  0.00  0.00    +0.050 C 
BRANCH  11  12
ATOM     12  C   UNL     1       2.195   1.587   2.050  0.00  0.00    -0.043 A 
ATOM     13  C   UNL     1       2.302   0.258   2.494  0.00  0.00    +0.053 A 
ATOM     14  C   UNL     1       1.994  -0.034   3.832  0.00  0.00    +0.166 A 
ATOM     15  C   UNL     1       1.622   0.943   4.727  0.00  0.00    +0.166 A 
ATOM     16  O   UNL     1       1.236   0.449   5.935  0.00  0.00    -0.453 OA
ATOM     17  C   UNL     1       1.435  -0.962   5.726  0.00  0.00    +0.466 C 
ATOM     18  C   UNL     1       1.625   2.266   4.373  0.00  0.00    +0.050 A 
ATOM     19  O   UNL     1       1.944  -1.273   4.402  0.00  0.00    -0.453 OA
ATOM     20  C   UNL     1       1.930   2.584   3.038  0.00  0.00    +0.007 A 
ENDBRANCH  11  12
ENDBRANCH   6  11
ENDBRANCH   1   6
BRANCH   1  21
ATOM     21  C   UNL     1       0.587   1.862  -2.419  0.00  0.00    +0.050 C 
BRANCH  21  22
ATOM     22  C   UNL     1      -0.017   2.251  -3.790  0.00  0.00    -0.043 A 
ATOM     23  C   UNL     1       0.663   2.605  -4.982  0.00  0.00    +0.053 A 
ATOM     24  C   UNL     1      -0.078   2.934  -6.135  0.00  0.00    +0.166 A 
ATOM     25  C   UNL     1      -1.448   2.917  -6.156  0.00  0.00    +0.166 A 
ATOM     26  O   UNL     1      -1.983   3.263  -7.358  0.00  0.00    -0.453 OA
ATOM     27  C   UNL     1      -0.789   3.480  -8.130  0.00  0.00    +0.466 C 
ATOM     28  C   UNL     1      -2.162   2.575  -5.035  0.00  0.00    +0.050 A 
ATOM     29  O   UNL     1       0.428   3.299  -7.357  0.00  0.00    -0.453 OA
ATOM     30  C   UNL     1      -1.447   2.243  -3.872  0.00  0.00    +0.007 A 
ENDBRANCH  21  22
ENDBRANCH   1  21
TORSDOF 9
