REMARK  Name = 
REMARK  39 active torsions:
REMARK  status: ('A' for Active; 'I' for Inactive)
REMARK    1  A    between atoms: C_1  and  O_2
REMARK    2  A    between atoms: O_2  and  C_3
REMARK    3  A    between atoms: N_7  and  C_12
REMARK    4  A    between atoms: C_15  and  C_17
REMARK    5  A    between atoms: C_17  and  O_18
REMARK    6  A    between atoms: C_19  and  O_21
REMARK    7  A    between atoms: O_21  and  P_22
REMARK    8  A    between atoms: P_22  and  O_25
REMARK    9  A    between atoms: O_25  and  C_26
REMARK   10  A    between atoms: C_26  and  C_28
REMARK   11  A    between atoms: C_26  and  C_29
REMARK   12  A    between atoms: C_29  and  N_30
REMARK   13  A    between atoms: C_31  and  C_33
REMARK   14  A    between atoms: C_33  and  C_34
REMARK   15  A    between atoms: C_34  and  C_35
REMARK   16  A    between atoms: C_35  and  C_36
REMARK   17  A    between atoms: C_37  and  C_39
REMARK   18  A    between atoms: C_39  and  C_40
REMARK   19  A    between atoms: C_46  and  C_47
REMARK   20  A    between atoms: C_55  and  C_56
REMARK   21  A    between atoms: C_59  and  C_60
REMARK   22  A    between atoms: C_61  and  C_62
REMARK   23  A    between atoms: C_61  and  C_63
REMARK   24  A    between atoms: C_63  and  C_64
REMARK   25  A    between atoms: C_67  and  C_69
REMARK   26  A    between atoms: C_69  and  C_70
REMARK   27  A    between atoms: C_70  and  C_71
REMARK   28  A    between atoms: C_75  and  C_76
REMARK   29  A    between atoms: C_75  and  C_77
REMARK   30  A    between atoms: C_77  and  C_78
REMARK   31  A    between atoms: C_81  and  C_83
REMARK   32  A    between atoms: C_83  and  C_84
REMARK   33  A    between atoms: C_84  and  C_85
REMARK   34  A    between atoms: C_88  and  C_89
REMARK   35  A    between atoms: C_88  and  C_90
REMARK   36  A    between atoms: C_91  and  C_93
REMARK   37  A    between atoms: C_93  and  C_94
REMARK   38  A    between atoms: C_94  and  C_95
REMARK   39  A    between atoms: C_98  and  O_100
REMARK                            x       y       z     vdW  Elec       q    Type
REMARK                         _______ _______ _______ _____ _____    ______ ____
ROOT
ATOM      1  C   UNL     1      -0.000  -0.000  -0.000  0.00  0.00    +0.000 C 
ATOM      2  C   UNL     1      -0.000  -0.000  -0.000  0.00  0.00    +0.000 C 
ATOM      3  C   UNL     1      -0.000  -0.000  -0.000  0.00  0.00    +0.000 C 
ATOM      4  C   UNL     1      -0.000  -0.000  -0.000  0.00  0.00    +0.000 C 
ATOM      5  C   UNL     1      -0.000  -0.000  -0.000  0.00  0.00    +0.000 C 
ATOM      6  C   UNL     1      -0.000  -0.000  -0.000  0.00  0.00    +0.000 C 
ATOM      7  C   UNL     1      -0.000  -0.000  -0.000  0.00  0.00    +0.000 C 
ATOM      8  C   UNL     1      -0.000  -0.000  -0.000  0.00  0.00    +0.000 C 
ATOM      9  C   UNL     1      -0.000  -0.000  -0.000  0.00  0.00    +0.000 C 
ATOM     10  C   UNL     1      -0.000  -0.000  -0.000  0.00  0.00    +0.000 C 
ATOM     11  C   UNL     1      -0.000  -0.000  -0.000  0.00  0.00    +0.000 C 
ATOM     12  C   UNL     1      -0.000  -0.000  -0.000  0.00  0.00    +0.000 C 
ATOM     13  C   UNL     1      -0.000  -0.000  -0.000  0.00  0.00    +0.000 C 
ATOM     14  C   UNL     1      -0.000  -0.000  -0.000  0.00  0.00    +0.000 C 
ATOM     15  C   UNL     1      -0.000  -0.000  -0.000  0.00  0.00    +0.000 C 
ATOM     16  C   UNL     1      -0.000  -0.000  -0.000  0.00  0.00    +0.000 C 
ATOM     17  C   UNL     1      -0.000  -0.000  -0.000  0.00  0.00    +0.000 C 
ATOM     18  C   UNL     1      -0.000  -0.000  -0.000  0.00  0.00    +0.000 C 
ATOM     19  C   UNL     1      -0.000  -0.000  -0.000  0.00  0.00    +0.000 C 
ATOM     20  C   UNL     1      -0.000  -0.000  -0.000  0.00  0.00    +0.000 C 
ATOM     21  C   UNL     1      -0.000  -0.000  -0.000  0.00  0.00    +0.000 C 
ATOM     22  C   UNL     1      -0.000  -0.000  -0.000  0.00  0.00    +0.000 C 
ATOM     23  C   UNL     1      -0.000  -0.000  -0.000  0.00  0.00    +0.000 C 
ATOM     24  C   UNL     1      -0.000  -0.000  -0.000  0.00  0.00    +0.000 C 
ATOM     25  C   UNL     1      -0.000  -0.000  -0.000  0.00  0.00    +0.000 C 
ATOM     26  C   UNL     1      -0.000  -0.000  -0.000  0.00  0.00    +0.000 C 
ATOM     27  N   UNL     1      -0.000  -0.000  -0.000  0.00  0.00    +1.000 N 
ATOM     28 CO   UNL     1      -0.000  -0.000  -0.000  0.00  0.00    +0.000 Co
ATOM     29  N   UNL     1      -0.000  -0.000  -0.000  0.00  0.00    +1.000 N 
ATOM     30  N   UNL     1      -0.000  -0.000  -0.000  0.00  0.00    +1.000 N 
ATOM     31  N   UNL     1      -0.000   0.000   0.000  0.00  0.00    +1.000 N 
ATOM     32  C   UNL     1      -0.000  -0.000  -0.000  0.00  0.00    +0.000 C 
ENDROOT
BRANCH   7  33
ATOM     33  C   UNL     1      -0.000  -0.000  -0.000  0.00  0.00    +0.000 C 
BRANCH  33  34
ATOM     34  C   UNL     1      -0.000  -0.000  -0.000  0.00  0.00    +0.000 C 
BRANCH  34  35
ATOM     35  C   UNL     1      -0.000  -0.000  -0.000  0.00  0.00    +0.000 C 
ATOM     36  O   UNL     1      -0.000  -0.000  -0.000  0.00  0.00    +0.000 OA
ATOM     37  N   UNL     1      -0.000  -0.000  -0.000  0.00  0.00    +0.000 N 
ATOM     38  H   UNL     1      -0.000  -0.000  -0.000  0.00  0.00    +0.000 HD
ATOM     39  H   UNL     1      -0.000  -0.000  -0.000  0.00  0.00    +0.000 HD
ENDBRANCH  34  35
ENDBRANCH  33  34
ENDBRANCH   7  33
BRANCH  14  40
ATOM     40  C   UNL     1      -0.000  -0.000  -0.000  0.00  0.00    +0.000 C 
BRANCH  40  41
ATOM     41  C   UNL     1      -0.000  -0.000  -0.000  0.00  0.00    +0.000 C 
BRANCH  41  42
ATOM     42  C   UNL     1      -0.000  -0.000  -0.000  0.00  0.00    +0.000 C 
ATOM     43  O   UNL     1      -0.000  -0.000  -0.000  0.00  0.00    +0.000 OA
ATOM     44  N   UNL     1      -0.000  -0.000  -0.000  0.00  0.00    +0.000 N 
ATOM     45  H   UNL     1      -0.000  -0.000  -0.000  0.00  0.00    +0.000 HD
ATOM     46  H   UNL     1      -0.000  -0.000  -0.000  0.00  0.00    +0.000 HD
ENDBRANCH  41  42
ENDBRANCH  40  41
ENDBRANCH  14  40
BRANCH  15  47
ATOM     47  C   UNL     1      -0.000  -0.000  -0.000  0.00  0.00    +0.000 C 
BRANCH  47  48
ATOM     48  C   UNL     1      -0.000  -0.000  -0.000  0.00  0.00    +0.000 C 
ATOM     49  O   UNL     1      -0.000  -0.000  -0.000  0.00  0.00    +0.000 OA
ATOM     50  N   UNL     1      -0.000  -0.000  -0.000  0.00  0.00    +0.000 N 
ATOM     51  H   UNL     1      -0.000  -0.000  -0.000  0.00  0.00    +0.000 HD
ATOM     52  H   UNL     1      -0.000  -0.000  -0.000  0.00  0.00    +0.000 HD
ENDBRANCH  47  48
ENDBRANCH  15  47
BRANCH  21  53
ATOM     53  C   UNL     1      -0.000  -0.000  -0.000  0.00  0.00    +0.000 C 
BRANCH  53  54
ATOM     54  C   UNL     1      -0.000  -0.000  -0.000  0.00  0.00    +0.000 C 
BRANCH  54  55
ATOM     55  C   UNL     1      -0.000  -0.000  -0.000  0.00  0.00    +0.000 C 
ATOM     56  O   UNL     1      -0.000  -0.000  -0.000  0.00  0.00    +0.000 OA
ATOM     57  N   UNL     1      -0.000  -0.000  -0.000  0.00  0.00    +0.000 N 
ATOM     58  H   UNL     1      -0.000  -0.000  -0.000  0.00  0.00    +0.000 HD
ATOM     59  H   UNL     1      -0.000  -0.000  -0.000  0.00  0.00    +0.000 HD
ENDBRANCH  54  55
ENDBRANCH  53  54
ENDBRANCH  21  53
BRANCH  22  60
ATOM     60  C   UNL     1      -0.000  -0.000  -0.000  0.00  0.00    +0.000 C 
BRANCH  60  61
ATOM     61  C   UNL     1      -0.000  -0.000  -0.000  0.00  0.00    +0.000 C 
ATOM     62  O   UNL     1      -0.000  -0.000  -0.000  0.00  0.00    +0.000 OA
ATOM     63  N   UNL     1      -0.000  -0.000  -0.000  0.00  0.00    +0.000 N 
ATOM     64  H   UNL     1      -0.000  -0.000  -0.000  0.00  0.00    +0.000 HD
ATOM     65  H   UNL     1      -0.000  -0.000  -0.000  0.00  0.00    +0.000 HD
ENDBRANCH  60  61
ENDBRANCH  22  60
BRANCH   1  66
ATOM     66  C   UNL     1      -0.000  -0.000  -0.000  0.00  0.00    +0.000 C 
BRANCH  66  67
ATOM     67  C   UNL     1      -0.000  -0.000  -0.000  0.00  0.00    +0.000 C 
BRANCH  67  70
ATOM     68  N   UNL     1      -0.000  -0.000  -0.000  0.00  0.00    +0.000 N 
ATOM     69  H   UNL     1      -0.000  -0.000  -0.000  0.00  0.00    +0.000 HD
ATOM     70  C   UNL     1      -0.000  -0.000  -0.000  0.00  0.00    +0.000 C 
ATOM     71  O   UNL     1      -0.000  -0.000  -0.000  0.00  0.00    +0.000 OA
BRANCH  68  72
ATOM     72  C   UNL     1      -0.000  -0.000  -0.000  0.00  0.00    +0.000 C 
BRANCH  72  73
ATOM     73  C   UNL     1      -0.000  -0.000  -0.000  0.00  0.00    +0.000 C 
ATOM     74  C   UNL     1      -0.000  -0.000  -0.000  0.00  0.00    +0.000 C 
BRANCH  73  75
ATOM     75  O   UNL     1      -0.000  -0.000  -0.000  0.00  0.00    +0.000 OA
BRANCH  75  76
ATOM     76  P   UNL     1      -0.000  -0.000  -0.000  0.00  0.00    +0.000 P 
ATOM     77  O   UNL     1      -0.000  -0.000  -0.000  0.00  0.00    -0.500 OA
ATOM     78  O   UNL     1      -0.000  -0.000  -0.000  0.00  0.00    -0.500 OA
BRANCH  76  79
ATOM     79  O   UNL     1      -0.000  -0.000  -0.000  0.00  0.00    +0.000 OA
BRANCH  79  82
ATOM     80  C   UNL     1      -0.000  -0.000  -0.000  0.00  0.00    +0.000 C 
ATOM     81  C   UNL     1      -0.000  -0.000  -0.000  0.00  0.00    +0.000 C 
ATOM     82  C   UNL     1      -0.000  -0.000  -0.000  0.00  0.00    +0.000 C 
ATOM     83  C   UNL     1      -0.000  -0.000  -0.000  0.00  0.00    +0.000 C 
ATOM     84  O   UNL     1      -0.000  -0.000  -0.000  0.00  0.00    +0.000 OA
BRANCH  80  89
ATOM     85  C   UNL     1      -0.000  -0.000  -0.000  0.00  0.00    +0.000 A 
ATOM     86  C   UNL     1      -0.000  -0.000  -0.000  0.00  0.00    +0.000 A 
ATOM     87  C   UNL     1      -0.000  -0.000  -0.000  0.00  0.00    +0.000 A 
ATOM     88  C   UNL     1      -0.000  -0.000  -0.000  0.00  0.00    +0.000 A 
ATOM     89  N   UNL     1      -0.000  -0.000  -0.000  0.00  0.00    +0.000 N 
ATOM     90  C   UNL     1      -0.000  -0.000  -0.000  0.00  0.00    +0.000 A 
ATOM     91  C   UNL     1      -0.000  -0.000  -0.000  0.00  0.00    +0.000 A 
ATOM     92  N   UNL     1      -0.000  -0.000  -0.000  0.00  0.00    +0.000 NA
ATOM     93  C   UNL     1      -0.000  -0.000  -0.000  0.00  0.00    +0.000 A 
BRANCH  85  95
ATOM     94  C   UNL     1      -0.000  -0.000  -0.000  0.00  0.00    +0.000 C 
ATOM     95  O   UNL     1      -0.000  -0.000  -0.000  0.00  0.00    +0.000 OA
ENDBRANCH  85  95
ENDBRANCH  80  89
BRANCH  81  96
ATOM     96  O   UNL     1      -0.000  -0.000  -0.000  0.00  0.00    +0.000 OA
ATOM     97  H   UNL     1      -0.000  -0.000  -0.000  0.00  0.00    +0.000 HD
ENDBRANCH  81  96
BRANCH  83  98
ATOM     98  C   UNL     1      -0.000  -0.000  -0.000  0.00  0.00    +0.000 C 
BRANCH  98  99
ATOM     99  O   UNL     1      -0.000  -0.000  -0.000  0.00  0.00    +0.000 OA
ATOM    100  H   UNL     1      -0.000  -0.000  -0.000  0.00  0.00    +0.000 HD
ENDBRANCH  98  99
ENDBRANCH  83  98
ENDBRANCH  79  82
ENDBRANCH  76  79
ENDBRANCH  75  76
ENDBRANCH  73  75
ENDBRANCH  72  73
ENDBRANCH  68  72
ENDBRANCH  67  70
ENDBRANCH  66  67
ENDBRANCH   1  66
BRANCH  32 101
ATOM    101  C   UNL     1      -0.000  -0.000  -0.000  0.00  0.00    +0.000 C 
BRANCH 101 102
ATOM    102  C   UNL     1      -0.000  -0.000  -0.000  0.00  0.00    +0.000 C 
ATOM    103  O   UNL     1      -0.000  -0.000  -0.000  0.00  0.00    +0.000 OA
ATOM    104  N   UNL     1      -0.000  -0.000  -0.000  0.00  0.00    +0.000 N 
ATOM    105  H   UNL     1      -0.000  -0.000  -0.000  0.00  0.00    +0.000 HD
ATOM    106  H   UNL     1      -0.000  -0.000  -0.000  0.00  0.00    +0.000 HD
ENDBRANCH 101 102
ENDBRANCH  32 101
TORSDOF 29
