REMARK  Name = 
REMARK  3 active torsions:
REMARK  status: ('A' for Active; 'I' for Inactive)
REMARK    1  A    between atoms: C_2  and  C_4
REMARK    2  A    between atoms: C_4  and  C_5
REMARK    3  A    between atoms: C_5  and  O_6
REMARK                            x       y       z     vdW  Elec       q    Type
REMARK                         _______ _______ _______ _____ _____    ______ ____
ROOT
ATOM      1  N   UNL     1       1.114  -0.141   0.038  0.00  0.00    -0.329 N 
ATOM      2  H   UNL     1       0.655  -0.724   0.726  0.00  0.00    +0.145 HD
ATOM      3  H   UNL     1       0.534   0.396  -0.596  0.00  0.00    +0.145 HD
ATOM      4  C   UNL     1       2.467  -0.039  -0.083  0.00  0.00    +0.221 C 
ATOM      5  O   UNL     1       2.976   0.684  -0.936  0.00  0.00    -0.275 OA
ENDROOT
BRANCH   4   6
ATOM      6  C   UNL     1       3.265  -0.859   0.886  0.00  0.00    +0.215 C 
BRANCH   6   7
ATOM      7  C   UNL     1       4.764  -0.776   0.787  0.00  0.00    +0.314 C 
ATOM      8  O   UNL     1       5.488  -1.416   1.542  0.00  0.00    -0.250 OA
BRANCH   7   9
ATOM      9  O   UNL     1       5.284   0.028  -0.161  0.00  0.00    -0.480 OA
ATOM     10  H   UNL     1       4.611   0.496  -0.714  0.00  0.00    +0.295 HD
ENDBRANCH   7   9
ENDBRANCH   6   7
ENDBRANCH   4   6
TORSDOF 3
