REMARK  Name = 
REMARK  6 active torsions:
REMARK  status: ('A' for Active; 'I' for Inactive)
REMARK    1  A    between atoms: N_1  and  C_2
REMARK    2  A    between atoms: C_2  and  C_4
REMARK    3  A    between atoms: C_2  and  C_7
REMARK    4  A    between atoms: C_4  and  S_5
REMARK    5  A    between atoms: S_5  and  S_6
REMARK    6  A    between atoms: C_7  and  O_8
REMARK                            x       y       z     vdW  Elec       q    Type
REMARK                         _______ _______ _______ _____ _____    ______ ____
ROOT
ATOM      1  C   UNK     1       2.559   0.089  -0.154  0.00  0.00    +0.171 C 
ENDROOT
BRANCH   1   2
ATOM      2  N   UNK     1       1.056   0.116  -0.245  0.00  0.00    -0.318 NA
ATOM      3  H   UNK     1       0.776  -0.295  -1.143  0.00  0.00    +0.119 HD
ATOM      4  H   UNK     1       0.691  -0.538   0.455  0.00  0.00    +0.119 HD
ENDBRANCH   1   2
BRANCH   1   5
ATOM      5  C   UNK     1       3.086   1.375  -0.813  0.00  0.00    +0.323 C 
ATOM      6  O   UNK     1       4.248   1.625  -1.078  0.00  0.00    -0.249 OA
BRANCH   5   7
ATOM      7  O   UNK     1       2.069   2.252  -1.059  0.00  0.00    -0.480 OA
ATOM      8  H   UNK     1       1.247   1.805  -0.731  0.00  0.00    +0.295 HD
ENDBRANCH   5   7
ENDBRANCH   1   5
BRANCH   1   9
ATOM      9  C   UNK     1       3.142  -1.169  -0.826  0.00  0.00    +0.110 C 
BRANCH   9  10
ATOM     10  S   UNK     1       4.819  -1.558  -0.212  0.00  0.00    -0.094 S 
BRANCH  10  11
ATOM     11  S   UNK     1       5.376  -3.184  -1.340  0.00  0.00    -0.110 S 
ATOM     12  H   UNK     1       6.313  -2.623  -2.124  0.00  0.00    +0.114 HD
ENDBRANCH  10  11
ENDBRANCH   9  10
ENDBRANCH   1   9
TORSDOF 6
