REMARK  Name = 
REMARK  5 active torsions:
REMARK  status: ('A' for Active; 'I' for Inactive)
REMARK    1  A    between atoms: O_1  and  C_2
REMARK    2  A    between atoms: C_5  and  C_13
REMARK    3  A    between atoms: C_7  and  O_9
REMARK    4  A    between atoms: C_10  and  O_12
REMARK    5  A    between atoms: C_13  and  O_14
REMARK                            x       y       z     vdW  Elec       q    Type
REMARK                         _______ _______ _______ _____ _____    ______ ____
ROOT
ATOM      1  C   UNL     1       2.360  -0.229   0.146  0.00  0.00    +0.337 C 
ATOM      2  C   UNL     1       2.797   1.161  -0.372  0.00  0.00    +0.215 C 
ATOM      3  C   UNL     1       3.558   1.139  -1.706  0.00  0.00    +0.176 C 
ATOM      4  C   UNL     1       3.906  -0.205  -2.218  0.00  0.00    +0.060 C 
ATOM      5  C   UNL     1       3.650  -1.334  -1.553  0.00  0.00    +0.206 C 
ATOM      6  O   UNL     1       3.040  -1.392  -0.324  0.00  0.00    -0.454 OA
ENDROOT
BRANCH   1   7
ATOM      7  O   UNL     1       0.962  -0.405  -0.094  0.00  0.00    -0.356 OA
ATOM      8  H   UNL     1       0.614  -0.860   0.693  0.00  0.00    +0.214 HD
ENDBRANCH   1   7
BRANCH   2   9
ATOM      9  O   UNL     1       3.622   1.795   0.630  0.00  0.00    -0.383 OA
ATOM     10  H   UNL     1       3.728   2.725   0.351  0.00  0.00    +0.210 HD
ENDBRANCH   2   9
BRANCH   3  11
ATOM     11  O   UNL     1       2.802   1.812  -2.713  0.00  0.00    -0.385 OA
ATOM     12  H   UNL     1       2.041   1.249  -2.942  0.00  0.00    +0.210 HD
ENDBRANCH   3  11
BRANCH   5  13
ATOM     13  C   UNL     1       4.076  -2.631  -2.171  0.00  0.00    +0.372 C 
ATOM     14  O   UNL     1       4.716  -2.748  -3.201  0.00  0.00    -0.242 OA
BRANCH  13  15
ATOM     15  O   UNL     1       3.640  -3.677  -1.433  0.00  0.00    -0.475 OA
ATOM     16  H   UNL     1       3.136  -3.360  -0.656  0.00  0.00    +0.296 HD
ENDBRANCH  13  15
ENDBRANCH   5  13
TORSDOF 5
