REMARK  Name = 
REMARK  5 active torsions:
REMARK  status: ('A' for Active; 'I' for Inactive)
REMARK    1  A    between atoms: O5*_1  and  C5*_2
REMARK    2  A    between atoms: C5*_2  and  C4*_3
REMARK    3  A    between atoms: C1*_6  and  N1_14
REMARK    4  A    between atoms: C2*_8  and  O2*_10
REMARK    5  A    between atoms: C3*_11  and  O3*_13
REMARK                            x       y       z     vdW  Elec       q    Type
REMARK                         _______ _______ _______ _____ _____    ______ ____
ROOT
ATOM      1  C4*   U A   1       2.863  -1.048  -1.038  0.00  0.00    +0.177 C 
ATOM      2  C3*   U A   1       2.135  -2.386  -0.936  0.00  0.00    +0.178 C 
ATOM      3  C2*   U A   1       3.181  -3.440  -1.296  0.00  0.00    +0.195 C 
ATOM      4  C1*   U A   1       4.460  -2.632  -1.590  0.00  0.00    +0.255 C 
ATOM      5  O4*   U A   1       4.275  -1.350  -0.966  0.00  0.00    -0.346 OA
ENDROOT
BRANCH   4   6
ATOM      6  N1    U A   1       5.701  -3.266  -1.140  0.00  0.00    -0.271 N 
ATOM      7  C2    U A   1       6.026  -4.492  -1.714  0.00  0.00    +0.331 A 
ATOM      8  O2    U A   1       5.288  -5.090  -2.496  0.00  0.00    -0.246 OA
ATOM      9  N3    U A   1       7.236  -5.021  -1.358  0.00  0.00    -0.275 N 
ATOM     10  H3    U A   1       7.495  -5.899  -1.778  0.00  0.00    +0.173 HD
ATOM     11  C4    U A   1       8.158  -4.433  -0.542  0.00  0.00    +0.254 A 
ATOM     12  O4    U A   1       9.254  -4.926  -0.307  0.00  0.00    -0.268 OA
ATOM     13  C5    U A   1       7.763  -3.143   0.040  0.00  0.00    +0.088 A 
ATOM     14  C6    U A   1       6.576  -2.624  -0.283  0.00  0.00    +0.098 A 
ENDBRANCH   4   6
BRANCH   2  15
ATOM     15  O3*   U A   1       1.680  -2.593   0.411  0.00  0.00    -0.386 OA
ATOM     16  H3*   U A   1       2.427  -2.444   1.018  0.00  0.00    +0.210 HD
ENDBRANCH   2  15
BRANCH   3  17
ATOM     17  O2*   U A   1       2.757  -4.189  -2.438  0.00  0.00    -0.385 OA
ATOM     18  H2*   U A   1       3.484  -4.820  -2.642  0.00  0.00    +0.210 HD
ENDBRANCH   3  17
BRANCH   1  19
ATOM     19  C5*   U A   1       2.582  -0.320  -2.358  0.00  0.00    +0.190 C 
BRANCH  19  20
ATOM     20  O5*   U A   1       3.357   0.878  -2.422  0.00  0.00    -0.392 OA
ATOM     21  H5*   U A   1       4.275   0.628  -2.205  0.00  0.00    +0.210 HD
ENDBRANCH  19  20
ENDBRANCH   1  19
TORSDOF 5
