REMARK  Name = 
REMARK  5 active torsions:
REMARK  status: ('A' for Active; 'I' for Inactive)
REMARK    1  A    between atoms: C_1  and  C_2
REMARK    2  A    between atoms: C_2  and  O_4
REMARK    3  A    between atoms: C_2  and  C_5
REMARK    4  A    between atoms: C_5  and  C_6
REMARK    5  A    between atoms: C_6  and  O_7
REMARK                            x       y       z     vdW  Elec       q    Type
REMARK                         _______ _______ _______ _____ _____    ______ ____
ROOT
ATOM      1  C   UNL     1       3.004  -0.731  -1.270  0.00  0.00    +0.037 C 
ATOM      2  C   UNL     1       2.602  -0.075   0.042  0.00  0.00    +0.114 C 
ENDROOT
BRANCH   2   3
ATOM      3  O   UNL     1       3.064   1.276   0.020  0.00  0.00    -0.392 OA
ATOM      4  H   UNL     1       2.677   1.724   0.795  0.00  0.00    +0.210 HD
ENDBRANCH   2   3
BRANCH   2   5
ATOM      5  C   UNL     1       3.155  -0.796   1.278  0.00  0.00    +0.059 C 
BRANCH   5   6
ATOM      6  C   UNL     1       4.680  -0.839   1.359  0.00  0.00    +0.158 C 
BRANCH   6   7
ATOM      7  O   UNL     1       5.231   0.469   1.409  0.00  0.00    -0.395 OA
ATOM      8  H   UNL     1       4.842   0.967   0.659  0.00  0.00    +0.209 HD
ENDBRANCH   6   7
ENDBRANCH   5   6
ENDBRANCH   2   5
TORSDOF 4
