REMARK  Name = 
REMARK  16 active torsions:
REMARK  status: ('A' for Active; 'I' for Inactive)
REMARK    1  A    between atoms: C_1  and  C_2
REMARK    2  A    between atoms: C_2  and  C_3
REMARK    3  A    between atoms: C_2  and  C_4
REMARK    4  A    between atoms: C_4  and  C_5
REMARK    5  A    between atoms: C_5  and  N_7
REMARK    6  A    between atoms: C_5  and  C_11
REMARK    7  A    between atoms: N_13  and  C_14
REMARK    8  A    between atoms: C_14  and  C_15
REMARK    9  A    between atoms: C_20  and  C_23
REMARK   10  A    between atoms: C_25  and  C_29
REMARK   11  A    between atoms: N_27  and  C_28
REMARK   12  A    between atoms: C_32  and  O_33
REMARK   13  A    between atoms: O_33  and  C_34
REMARK   14  A    between atoms: C_34  and  C_35
REMARK   15  A    between atoms: C_38  and  C_40
REMARK   16  A    between atoms: C_40  and  O_41
REMARK                            x       y       z     vdW  Elec       q    Type
REMARK                         _______ _______ _______ _____ _____    ______ ____
ROOT
ATOM      1  C   UNL     1       8.412  -3.587  -2.838  0.00  0.00    +0.233 C 
ATOM      2  N   UNL     1       8.831  -4.643  -3.650  0.00  0.00    -0.300 N 
ATOM      3  C   UNL     1       9.127  -4.433  -5.066  0.00  0.00    +0.108 C 
ATOM      4  C   UNL     1       8.934  -5.693  -5.899  0.00  0.00    +0.028 C 
ATOM      5  C   UNL     1       9.598  -6.938  -5.300  0.00  0.00    +0.040 C 
ATOM      6  C   UNL     1       9.287  -7.055  -3.797  0.00  0.00    +0.028 C 
ATOM      7  C   UNL     1       9.526  -5.760  -3.019  0.00  0.00    +0.108 C 
ATOM      8  O   UNL     1       8.779  -3.459  -1.670  0.00  0.00    -0.274 OA
ENDROOT
BRANCH   5   9
ATOM      9  C   UNL     1      11.078  -6.987  -5.564  0.00  0.00    +0.043 A 
ATOM     10  N   UNL     1      11.723  -7.971  -6.267  0.00  0.00    -0.271 N 
ATOM     11  C   UNL     1      11.135  -9.091  -6.964  0.00  0.00    +0.172 C 
ATOM     12  N   UNL     1      13.061  -7.849  -6.254  0.00  0.00    -0.171 NA
ATOM     13  C   UNL     1      13.320  -6.743  -5.551  0.00  0.00    +0.094 A 
ATOM     14  C   UNL     1      12.089  -6.144  -5.166  0.00  0.00    +0.053 A 
BRANCH  13  15
ATOM     15  C   UNL     1      14.671  -6.260  -5.204  0.00  0.00    +0.022 A 
ATOM     16  C   UNL     1      15.894  -6.857  -5.588  0.00  0.00    +0.072 A 
ATOM     17 CL   UNL     1      15.954  -8.298  -6.566  0.00  0.00    -0.081 Cl
ATOM     18  C   UNL     1      17.119  -6.294  -5.149  0.00  0.00    +0.101 A 
ATOM     19 CL   UNL     1      18.652  -6.979  -5.622  0.00  0.00    -0.078 Cl
ATOM     20  C   UNL     1      17.132  -5.170  -4.304  0.00  0.00    +0.141 A 
ATOM     21  C   UNL     1      15.931  -4.565  -3.959  0.00  0.00    +0.048 A 
ATOM     22  C   UNL     1      14.731  -5.108  -4.392  0.00  0.00    +0.015 A 
BRANCH  20  23
ATOM     23  O   UNL     1      18.337  -4.698  -3.846  0.00  0.00    -0.483 OA
BRANCH  23  24
ATOM     24  C   UNL     1      18.267  -3.986  -2.607  0.00  0.00    +0.303 C 
BRANCH  24  25
ATOM     25  C   UNL     1      19.605  -4.042  -1.984  0.00  0.00    +0.143 A 
ATOM     26  O   UNL     1      20.113  -5.287  -1.768  0.00  0.00    -0.450 OA
ATOM     27  C   UNL     1      21.317  -5.130  -1.146  0.00  0.00    +0.212 A 
ATOM     28  C   UNL     1      21.571  -3.787  -0.952  0.00  0.00    +0.057 A 
ATOM     29  C   UNL     1      20.465  -3.085  -1.495  0.00  0.00    +0.049 A 
BRANCH  27  30
ATOM     30  C   UNL     1      22.066  -6.316  -0.807  0.00  0.00    +0.372 C 
ATOM     31  O   UNL     1      23.136  -6.349  -0.218  0.00  0.00    -0.242 OA
BRANCH  30  32
ATOM     32  O   UNL     1      21.413  -7.433  -1.218  0.00  0.00    -0.475 OA
ATOM     33  H   UNL     1      20.588  -7.182  -1.688  0.00  0.00    +0.296 HD
ENDBRANCH  30  32
ENDBRANCH  27  30
ENDBRANCH  24  25
ENDBRANCH  23  24
ENDBRANCH  20  23
ENDBRANCH  13  15
ENDBRANCH   5   9
BRANCH   1  34
ATOM     34  C   UNL     1       7.435  -2.586  -3.470  0.00  0.00    +0.200 C 
BRANCH  34  36
ATOM     35  C   UNL     1       7.644  -0.996  -5.344  0.00  0.00    +0.250 C 
ATOM     36  N   UNL     1       8.065  -1.448  -4.112  0.00  0.00    -0.304 N 
ATOM     37  H   UNL     1       8.963  -1.118  -3.768  0.00  0.00    +0.149 HD
ATOM     38  O   UNL     1       6.687  -1.484  -5.947  0.00  0.00    -0.272 OA
BRANCH  35  39
ATOM     39  C   UNL     1       8.399   0.226  -5.905  0.00  0.00    +0.231 C 
BRANCH  39  40
ATOM     40  N   UNL     1       9.838   0.119  -5.619  0.00  0.00    -0.265 N 
ATOM     41  H   UNL     1      10.273   0.974  -5.298  0.00  0.00    +0.259 HD
ATOM     42  C   UNL     1      10.678  -0.827  -6.090  0.00  0.00    +0.377 C 
ATOM     43  N   UNL     1      11.942  -0.823  -5.862  0.00  0.00    -0.130 NA
ATOM     44  H   UNL     1      12.187  -0.014  -5.288  0.00  0.00    +0.306 HD
ATOM     45  N   UNL     1      10.163  -1.843  -6.802  0.00  0.00    -0.289 N 
ATOM     46  H   UNL     1      10.911  -2.383  -7.229  0.00  0.00    +0.255 HD
ATOM     47  H   UNL     1       9.456  -1.606  -7.485  0.00  0.00    +0.255 HD
ENDBRANCH  39  40
BRANCH  39  48
ATOM     48  C   UNL     1       7.840   1.536  -5.311  0.00  0.00    +0.053 C 
BRANCH  48  50
ATOM     49  C   UNL     1       5.867   3.051  -4.844  0.00  0.00    +0.007 C 
ATOM     50  C   UNL     1       6.331   1.777  -5.558  0.00  0.00    -0.013 C 
ATOM     51  C   UNL     1       5.958   1.876  -7.040  0.00  0.00    +0.007 C 
ENDBRANCH  48  50
ENDBRANCH  39  48
ENDBRANCH  35  39
ENDBRANCH  34  36
ENDBRANCH   1  34
TORSDOF 13
