REMARK  Name = 
REMARK  15 active torsions:
REMARK  status: ('A' for Active; 'I' for Inactive)
REMARK    1  A    between atoms: C_1  and  C_2
REMARK    2  A    between atoms: C_2  and  C_4
REMARK    3  A    between atoms: N_5  and  C_6
REMARK    4  A    between atoms: C_6  and  C_7
REMARK    5  A    between atoms: C_10  and  C_11
REMARK    6  A    between atoms: C_15  and  C_16
REMARK    7  A    between atoms: C_17  and  C_18
REMARK    8  A    between atoms: C_18  and  C_19
REMARK    9  A    between atoms: C_19  and  O_20
REMARK   10  A    between atoms: O_20  and  P_21
REMARK   11  A    between atoms: P_21  and  O_22
REMARK   12  A    between atoms: P_21  and  O_24
REMARK   13  A    between atoms: O_24  and  P_25
REMARK   14  A    between atoms: P_25  and  O_26
REMARK   15  A    between atoms: P_25  and  O_27
REMARK                            x       y       z     vdW  Elec       q    Type
REMARK                         _______ _______ _______ _____ _____    ______ ____
ROOT
ATOM      1  C   UNL     1       3.033  -0.554   0.895  0.00  0.00    +0.290 A 
ATOM      2  S   UNL     1       3.051  -2.232   1.280  0.00  0.00    -0.016 S 
ATOM      3  C   UNL     1       3.955  -1.974   2.703  0.00  0.00    +0.064 A 
ATOM      4  C   UNL     1       4.300  -0.641   2.820  0.00  0.00    +0.192 A 
ATOM      5  C   UNL     1       5.098  -0.045   3.933  0.00  0.00    +0.123 C 
ATOM      6  N   UNL     1       3.751   0.141   1.783  0.00  0.00    -0.181 N 
ENDROOT
BRANCH   1   8
ATOM      7  C   UNL     1       1.401   1.029  -0.287  0.00  0.00    +0.099 C 
ATOM      8  C   UNL     1       2.309  -0.173  -0.315  0.00  0.00    +0.231 C 
ATOM      9  O   UNL     1       2.344  -0.859  -1.333  0.00  0.00    -0.285 OA
ENDBRANCH   1   8
BRANCH   3  10
ATOM     10  C   UNL     1       4.198  -3.126   3.641  0.00  0.00    +0.077 C 
BRANCH  10  11
ATOM     11  C   UNL     1       3.042  -3.215   4.631  0.00  0.00    +0.178 C 
BRANCH  11  12
ATOM     12  O   UNL     1       3.197  -4.315   5.516  0.00  0.00    -0.286 OA
BRANCH  12  13
ATOM     13  P   UNL     1       1.938  -4.395   6.701  0.00  0.00    +0.483 P 
ATOM     14  O   UNL     1       2.336  -3.016   7.241  0.00  0.00    -0.227 OA
BRANCH  13  15
ATOM     15  O   UNL     1       2.841  -5.489   7.507  0.00  0.00    -0.302 OA
ATOM     16  H   UNL     1       2.761  -6.402   7.169  0.00  0.00    +0.222 HD
ENDBRANCH  13  15
BRANCH  13  17
ATOM     17  O   UNL     1       0.680  -4.476   7.885  0.00  0.00    -0.186 OA
BRANCH  17  18
ATOM     18  P   UNL     1      -0.191  -5.804   7.846  0.00  0.00    +0.481 P 
ATOM     19  O   UNL     1       0.515  -7.111   7.951  0.00  0.00    -0.227 OA
BRANCH  18  20
ATOM     20  O   UNL     1      -1.043  -5.618   6.509  0.00  0.00    -0.302 OA
ATOM     21  H   UNL     1      -1.897  -6.084   6.604  0.00  0.00    +0.222 HD
ENDBRANCH  18  20
BRANCH  18  22
ATOM     22  O   UNL     1      -1.318  -5.534   8.940  0.00  0.00    -0.302 OA
ATOM     23  H   UNL     1      -0.979  -5.607   9.853  0.00  0.00    +0.222 HD
ENDBRANCH  18  22
ENDBRANCH  17  18
ENDBRANCH  13  17
ENDBRANCH  12  13
ENDBRANCH  11  12
ENDBRANCH  10  11
ENDBRANCH   3  10
BRANCH   6  24
ATOM     24  C   UNL     1       4.049   1.579   1.608  0.00  0.00    +0.399 C 
BRANCH  24  25
ATOM     25  C   UNL     1       3.180   2.473   2.439  0.00  0.00    +0.075 A 
ATOM     26  C   UNL     1       3.236   3.852   2.319  0.00  0.00    +0.129 A 
ATOM     27  N   UNL     1       3.928   4.474   1.284  0.00  0.00    -0.343 N 
ATOM     28  H   UNL     1       4.930   4.330   1.273  0.00  0.00    +0.144 HD
ATOM     29  H   UNL     1       3.750   5.479   1.391  0.00  0.00    +0.144 HD
ATOM     30  N   UNL     1       2.586   4.684   3.141  0.00  0.00    -0.218 NA
ATOM     31  C   UNL     1       1.831   4.142   4.110  0.00  0.00    +0.128 A 
ATOM     32  C   UNL     1       1.205   5.046   5.127  0.00  0.00    +0.088 C 
ATOM     33  N   UNL     1       1.615   2.825   4.230  0.00  0.00    -0.240 NA
ATOM     34  C   UNL     1       2.283   2.026   3.388  0.00  0.00    +0.126 A 
ENDBRANCH  24  25
ENDBRANCH   6  24
TORSDOF 12
