REMARK  Name = 
REMARK  4 active torsions:
REMARK  status: ('A' for Active; 'I' for Inactive)
REMARK    1  A    between atoms: C_1  and  C_2
REMARK    2  A    between atoms: N_4  and  C_5
REMARK    3  A    between atoms: C_5  and  C_6
REMARK    4  A    between atoms: C_6  and  O_7
REMARK                            x       y       z     vdW  Elec       q    Type
REMARK                         _______ _______ _______ _____ _____    ______ ____
ROOT
ATOM      1  C   UNL     1       1.061   0.093   0.036  0.00  0.00    +0.109 C 
ATOM      2  C   UNL     1       2.560   0.006   0.019  0.00  0.00    +0.210 C 
ATOM      3  N   UNL     1       3.162   0.456   1.167  0.00  0.00    -0.305 N 
ATOM      4  H   UNL     1       2.586   0.825   1.914  0.00  0.00    +0.149 HD
ATOM      5  O   UNL     1       3.200  -0.497  -0.896  0.00  0.00    -0.276 OA
ENDROOT
BRANCH   3   6
ATOM      6  C   UNL     1       4.610   0.621   1.284  0.00  0.00    +0.224 C 
BRANCH   6   7
ATOM      7  C   UNL     1       5.348  -0.600   1.826  0.00  0.00    +0.322 C 
ATOM      8  O   UNL     1       6.451  -0.541   2.353  0.00  0.00    -0.249 OA
BRANCH   7   9
ATOM      9  O   UNL     1       4.720  -1.777   1.603  0.00  0.00    -0.480 OA
ATOM     10  H   UNL     1       3.952  -1.650   1.010  0.00  0.00    +0.295 HD
ENDBRANCH   7   9
ENDBRANCH   6   7
ENDBRANCH   3   6
TORSDOF 3
