REMARK  Name = 
REMARK  12 active torsions:
REMARK  status: ('A' for Active; 'I' for Inactive)
REMARK    1  A    between atoms: C_2  and  C_3
REMARK    2  A    between atoms: C_2  and  N_4
REMARK    3  A    between atoms: C_2  and  C_6
REMARK    4  A    between atoms: N_4  and  C_5
REMARK    5  A    between atoms: N_8  and  C_9
REMARK    6  A    between atoms: C_9  and  C_11
REMARK    7  A    between atoms: C_9  and  C_33
REMARK    8  A    between atoms: C_17  and  C_19
REMARK    9  A    between atoms: N_21  and  C_22
REMARK   10  A    between atoms: C_33  and  C_34
REMARK   11  A    between atoms: C_33  and  C_35
REMARK   12  A    between atoms: C_33  and  C_36
REMARK                            x       y       z     vdW  Elec       q    Type
REMARK                         _______ _______ _______ _____ _____    ______ ____
ROOT
ATOM      1  C   UNL     1       3.976   1.953  -3.448  0.00  0.00    +0.237 C 
ATOM      2  N   UNL     1       2.604   2.054  -3.454  0.00  0.00    -0.288 N 
ATOM      3  C   UNL     1       1.949   3.370  -3.486  0.00  0.00    +0.162 C 
ATOM      4  C   UNL     1       0.569   3.117  -4.107  0.00  0.00    +0.033 C 
ATOM      5  C   UNL     1       0.555   1.637  -4.481  0.00  0.00    +0.021 C 
ATOM      6  C   UNL     1       1.621   0.999  -3.601  0.00  0.00    +0.109 C 
ATOM      7  O   UNL     1       4.638   2.990  -3.585  0.00  0.00    -0.274 OA
ENDROOT
BRANCH   3   8
ATOM      8  C   UNL     1       1.843   3.998  -2.067  0.00  0.00    +0.234 C 
ATOM      9  N   UNL     1       3.052   4.233  -1.450  0.00  0.00    -0.307 N 
ATOM     10  H   UNL     1       3.900   3.957  -1.941  0.00  0.00    +0.149 HD
ATOM     11  O   UNL     1       0.775   4.335  -1.558  0.00  0.00    -0.274 OA
BRANCH   9  12
ATOM     12  C   UNL     1       3.172   4.912  -0.166  0.00  0.00    +0.103 C 
ATOM     13  C   UNL     1       3.875   4.018   0.837  0.00  0.00    -0.024 A 
ATOM     14  C   UNL     1       3.163   2.956   1.421  0.00  0.00    +0.006 A 
ATOM     15  C   UNL     1       3.774   2.108   2.343  0.00  0.00    +0.000 A 
ATOM     16  C   UNL     1       5.107   2.308   2.692  0.00  0.00    +0.000 A 
ATOM     17  C   UNL     1       5.828   3.356   2.119  0.00  0.00    +0.004 A 
ATOM     18  C   UNL     1       5.226   4.215   1.185  0.00  0.00    -0.042 A 
ATOM     19  C   UNL     1       6.030   5.367   0.635  0.00  0.00    +0.035 C 
ATOM     20  C   UNL     1       5.386   6.056  -0.565  0.00  0.00    +0.007 C 
ATOM     21  C   UNL     1       3.891   6.259  -0.339  0.00  0.00    +0.027 C 
ENDBRANCH   9  12
ENDBRANCH   3   8
BRANCH   1  22
ATOM     22  C   UNL     1       4.665   0.556  -3.298  0.00  0.00    +0.164 C 
BRANCH  22  24
ATOM     23  C   UNL     1       4.614  -1.281  -5.009  0.00  0.00    +0.230 C 
ATOM     24  N   UNL     1       4.960   0.001  -4.628  0.00  0.00    -0.302 N 
ATOM     25  H   UNL     1       5.568   0.511  -5.265  0.00  0.00    +0.150 HD
ATOM     26  O   UNL     1       3.920  -2.010  -4.302  0.00  0.00    -0.274 OA
BRANCH  23  27
ATOM     27  C   UNL     1       5.113  -1.700  -6.428  0.00  0.00    +0.137 C 
ATOM     28  C   UNL     1       5.184  -3.227  -6.536  0.00  0.00    +0.034 C 
BRANCH  27  29
ATOM     29  N   UNL     1       6.413  -1.038  -6.708  0.00  0.00    -0.309 NA
ATOM     30  H   UNL     1       7.105  -1.396  -6.047  0.00  0.00    +0.122 HD
ATOM     31  C   UNL     1       6.894  -1.294  -8.064  0.00  0.00    +0.101 C 
ENDBRANCH  27  29
ENDBRANCH  23  27
ENDBRANCH  22  24
BRANCH  22  32
ATOM     32  C   UNL     1       5.956   0.641  -2.386  0.00  0.00    -0.011 C 
ATOM     33  C   UNL     1       7.069   1.546  -2.960  0.00  0.00    +0.013 C 
ATOM     34  C   UNL     1       6.590  -0.748  -2.161  0.00  0.00    +0.013 C 
ATOM     35  C   UNL     1       5.548   1.172  -0.996  0.00  0.00    +0.013 C 
ENDBRANCH  22  32
ENDBRANCH   1  22
TORSDOF 7
