REMARK  Name = 
REMARK  2 active torsions:
REMARK  status: ('A' for Active; 'I' for Inactive)
REMARK    1  A    between atoms: C_5  and  N_6
REMARK    2  A    between atoms: N_9  and  C_10
REMARK                            x       y       z     vdW  Elec       q    Type
REMARK                         _______ _______ _______ _____ _____    ______ ____
ROOT
ATOM      1  N   UNL     1       7.138  -0.497  -1.154  0.00  0.00    -0.269 N 
ATOM      2  H   UNL     1       7.442   0.196  -1.821  0.00  0.00    +0.156 HD
ATOM      3  C   UNL     1       8.068  -1.450  -0.798  0.00  0.00    +0.304 C 
ATOM      4  N   UNL     1       9.305  -1.206  -1.370  0.00  0.00    -0.296 N 
ATOM      5  H   UNL     1       9.536  -0.258  -1.624  0.00  0.00    +0.151 HD
ATOM      6  O   UNL     1       7.875  -2.432  -0.089  0.00  0.00    -0.253 OA
ENDROOT
BRANCH   1  11
ATOM      7  I   UNL     1       1.223   0.197   0.895  0.00  0.00    -0.044 I 
ATOM      8  C   UNL     1       3.145  -0.091   0.160  0.00  0.00    +0.013 A 
ATOM      9  C   UNL     1       3.689   0.807  -0.756  0.00  0.00    +0.016 A 
ATOM     10  C   UNL     1       5.006   0.635  -1.203  0.00  0.00    +0.024 A 
ATOM     11  C   UNL     1       5.791  -0.427  -0.730  0.00  0.00    +0.035 A 
ATOM     12  C   UNL     1       5.210  -1.342   0.152  0.00  0.00    +0.024 A 
ATOM     13  C   UNL     1       3.896  -1.175   0.601  0.00  0.00    +0.016 A 
ENDBRANCH   1  11
BRANCH   4  14
ATOM     14  C   UNL     1      10.392  -2.170  -1.211  0.00  0.00    +0.074 C 
ATOM     15  C   UNL     1      11.176  -2.000   0.103  0.00  0.00    +0.022 C 
ATOM     16  C   UNL     1      12.297  -0.960   0.064  0.00  0.00    +0.002 C 
ATOM     17  C   UNL     1      13.155  -1.057  -1.192  0.00  0.00    +0.000 C 
ATOM     18  C   UNL     1      12.291  -1.010  -2.444  0.00  0.00    +0.002 C 
ATOM     19  C   UNL     1      11.297  -2.165  -2.447  0.00  0.00    +0.022 C 
ENDBRANCH   4  14
TORSDOF 2
