REMARK  Name = 
REMARK  12 active torsions:
REMARK  status: ('A' for Active; 'I' for Inactive)
REMARK    1  A    between atoms: N_1  and  C_2
REMARK    2  A    between atoms: C_2  and  C_3
REMARK    3  A    between atoms: C_3  and  O_4
REMARK    4  A    between atoms: O_4  and  C_5
REMARK    5  A    between atoms: C_5  and  C_6
REMARK    6  A    between atoms: C_6  and  O_7
REMARK    7  A    between atoms: O_7  and  C_8
REMARK    8  A    between atoms: C_8  and  C_9
REMARK    9  A    between atoms: C_9  and  N_10
REMARK   10  A    between atoms: C_11  and  C_13
REMARK   11  A    between atoms: C_16  and  S_19
REMARK   12  A    between atoms: S_19  and  N_20
REMARK                            x       y       z     vdW  Elec       q    Type
REMARK                         _______ _______ _______ _____ _____    ______ ____
ROOT
ATOM      1  N   UNL     1      10.357   2.802   4.856  0.00  0.00    -0.309 N 
ATOM      2  H   UNL     1      10.806   1.962   5.194  0.00  0.00    +0.149 HD
ATOM      3  C   UNL     1      11.114   3.774   4.234  0.00  0.00    +0.244 C 
ATOM      4  O   UNL     1      10.636   4.691   3.580  0.00  0.00    -0.270 OA
ENDROOT
BRANCH   3   5
ATOM      5  C   UNL     1      12.594   3.619   4.353  0.00  0.00    +0.037 A 
ATOM      6  C   UNL     1      13.180   2.936   5.429  0.00  0.00    +0.015 A 
ATOM      7  C   UNL     1      14.563   2.746   5.471  0.00  0.00    +0.029 A 
ATOM      8  C   UNL     1      15.362   3.262   4.448  0.00  0.00    +0.105 A 
ATOM      9  C   UNL     1      14.793   3.977   3.389  0.00  0.00    +0.029 A 
ATOM     10  C   UNL     1      13.408   4.162   3.349  0.00  0.00    +0.015 A 
BRANCH   8  11
ATOM     11  S   UNL     1      17.101   2.933   4.451  0.00  0.00    +0.056 S 
ATOM     12  O   UNL     1      17.593   2.985   3.095  0.00  0.00    -0.153 OA
ATOM     13  O   UNL     1      17.367   1.817   5.329  0.00  0.00    -0.153 OA
BRANCH  11  14
ATOM     14  N   UNL     1      17.713   4.288   5.224  0.00  0.00    -0.204 NA
ATOM     15  H   UNL     1      18.313   4.810   4.584  0.00  0.00    +0.144 HD
ATOM     16  H   UNL     1      18.179   4.011   6.089  0.00  0.00    +0.144 HD
ENDBRANCH  11  14
ENDBRANCH   8  11
ENDBRANCH   3   5
BRANCH   1  17
ATOM     17  C   UNL     1       8.910   2.784   4.759  0.00  0.00    +0.132 C 
BRANCH  17  18
ATOM     18  C   UNL     1       8.416   2.046   3.516  0.00  0.00    +0.178 C 
BRANCH  18  19
ATOM     19  O   UNL     1       6.988   2.008   3.527  0.00  0.00    -0.376 OA
BRANCH  19  20
ATOM     20  C   UNL     1       6.477   1.337   2.375  0.00  0.00    +0.188 C 
BRANCH  20  21
ATOM     21  C   UNL     1       4.953   1.377   2.399  0.00  0.00    +0.188 C 
BRANCH  21  22
ATOM     22  O   UNL     1       4.439   0.663   1.274  0.00  0.00    -0.376 OA
BRANCH  22  23
ATOM     23  C   UNL     1       3.008   0.727   1.234  0.00  0.00    +0.174 C 
BRANCH  23  24
ATOM     24  C   UNL     1       2.494  -0.032   0.004  0.00  0.00    +0.105 C 
BRANCH  24  25
ATOM     25  N   UNL     1       2.952   0.588  -1.243  0.00  0.00    -0.328 NA
ATOM     26  H   UNL     1       3.973   0.639  -1.203  0.00  0.00    +0.118 HD
ATOM     27  H   UNL     1       2.726  -0.022  -2.026  0.00  0.00    +0.118 HD
ENDBRANCH  24  25
ENDBRANCH  23  24
ENDBRANCH  22  23
ENDBRANCH  21  22
ENDBRANCH  20  21
ENDBRANCH  19  20
ENDBRANCH  18  19
ENDBRANCH  17  18
ENDBRANCH   1  17
TORSDOF 12
