REMARK  Name = 
REMARK  22 active torsions:
REMARK  status: ('A' for Active; 'I' for Inactive)
REMARK    1  A    between atoms: O_1  and  C_2
REMARK    2  A    between atoms: C_2  and  O_3
REMARK    3  A    between atoms: C_2  and  C_4
REMARK    4  A    between atoms: C_4  and  N_5
REMARK    5  A    between atoms: N_5  and  C_6
REMARK    6  A    between atoms: N_5  and  C_25
REMARK    7  A    between atoms: C_6  and  C_7
REMARK    8  A    between atoms: C_7  and  O_9
REMARK    9  A    between atoms: C_7  and  C_10
REMARK   10  A    between atoms: C_10  and  O_12
REMARK   11  A    between atoms: C_10  and  C_13
REMARK   12  A    between atoms: C_13  and  O_15
REMARK   13  A    between atoms: C_13  and  C_16
REMARK   14  A    between atoms: C_16  and  O_18
REMARK   15  A    between atoms: C_16  and  C_19
REMARK   16  A    between atoms: C_19  and  O_20
REMARK   17  A    between atoms: O_20  and  P_21
REMARK   18  A    between atoms: P_21  and  O_22
REMARK   19  A    between atoms: P_21  and  O_23
REMARK   20  A    between atoms: C_25  and  P_26
REMARK   21  A    between atoms: P_26  and  O_27
REMARK   22  A    between atoms: P_26  and  O_28
REMARK                            x       y       z     vdW  Elec       q    Type
REMARK                         _______ _______ _______ _____ _____    ______ ____
ROOT
ATOM      1  C   UNL     1       4.476  -0.358  -3.982  0.00  0.00    +0.159 C 
ENDROOT
BRANCH   1   2
ATOM      2  O   UNL     1       3.626  -0.312  -2.827  0.00  0.00    -0.388 OA
ATOM      3  H   UNL     1       3.942   0.448  -2.289  0.00  0.00    +0.210 HD
ENDBRANCH   1   2
BRANCH   1   4
ATOM      4  C   UNL     1       3.757  -1.164  -5.081  0.00  0.00    +0.175 C 
BRANCH   4   5
ATOM      5  O   UNL     1       2.465  -0.580  -5.354  0.00  0.00    -0.387 OA
ATOM      6  H   UNL     1       2.037  -0.480  -4.479  0.00  0.00    +0.210 HD
ENDBRANCH   4   5
BRANCH   4   7
ATOM      7  C   UNL     1       3.507  -2.628  -4.657  0.00  0.00    +0.176 C 
BRANCH   7   8
ATOM      8  O   UNL     1       2.835  -3.327  -5.721  0.00  0.00    -0.386 OA
ATOM      9  H   UNL     1       2.278  -2.657  -6.168  0.00  0.00    +0.210 HD
ENDBRANCH   7   8
BRANCH   7  10
ATOM     10  C   UNL     1       4.797  -3.364  -4.271  0.00  0.00    +0.172 C 
BRANCH  10  11
ATOM     11  O   UNL     1       5.767  -3.289  -5.325  0.00  0.00    -0.387 OA
ATOM     12  H   UNL     1       6.476  -3.918  -5.080  0.00  0.00    +0.210 HD
ENDBRANCH  10  11
BRANCH  10  13
ATOM     13  C   UNL     1       4.533  -4.817  -3.929  0.00  0.00    +0.206 C 
BRANCH  13  14
ATOM     14  O   UNL     1       5.750  -5.348  -3.409  0.00  0.00    -0.284 OA
BRANCH  14  15
ATOM     15  P   UNL     1       5.528  -6.974  -2.863  0.00  0.00    +0.472 P 
ATOM     16  O   UNL     1       5.329  -8.430  -2.374  0.00  0.00    -0.228 OA
BRANCH  15  17
ATOM     17  O   UNL     1       7.085  -7.203  -3.310  0.00  0.00    -0.303 OA
ATOM     18  H   UNL     1       7.163  -7.967  -3.905  0.00  0.00    +0.222 HD
ENDBRANCH  15  17
BRANCH  15  19
ATOM     19  O   UNL     1       5.845  -6.393  -1.366  0.00  0.00    -0.303 OA
ATOM     20  H   UNL     1       5.041  -6.191  -0.862  0.00  0.00    +0.222 HD
ENDBRANCH  15  19
ENDBRANCH  14  15
ENDBRANCH  13  14
ENDBRANCH  10  13
ENDBRANCH   7  10
ENDBRANCH   4   7
ENDBRANCH   1   4
BRANCH   1  21
ATOM     21  C   UNL     1       4.839   1.078  -4.421  0.00  0.00    +0.119 C 
BRANCH  21  22
ATOM     22  N   UNL     1       5.596   1.866  -3.382  0.00  0.00    -0.282 NA
BRANCH  22  23
ATOM     23  C   UNL     1       6.943   1.254  -3.188  0.00  0.00    +0.212 C 
BRANCH  23  24
ATOM     24  P   UNL     1       7.971   2.177  -1.988  0.00  0.00    +0.342 P 
ATOM     25  O   UNL     1       8.840   2.959  -0.973  0.00  0.00    -0.257 OA
BRANCH  24  26
ATOM     26  O   UNL     1       8.995   0.895  -2.057  0.00  0.00    -0.323 OA
ATOM     27  H   UNL     1       9.737   1.085  -1.446  0.00  0.00    +0.220 HD
ENDBRANCH  24  26
BRANCH  24  28
ATOM     28  O   UNL     1       6.952   1.609  -0.812  0.00  0.00    -0.323 OA
ATOM     29  H   UNL     1       6.044   1.448  -1.136  0.00  0.00    +0.220 HD
ENDBRANCH  24  28
ENDBRANCH  23  24
ENDBRANCH  22  23
BRANCH  22  30
ATOM     30  C   UNL     1       5.706   3.288  -3.846  0.00  0.00    +0.173 C 
BRANCH  30  31
ATOM     31  C   UNL     1       6.505   3.668  -5.136  0.00  0.00    +0.360 C 
BRANCH  31  32
ATOM     32  O   UNL     1       5.994   3.040  -6.291  0.00  0.00    -0.506 OA
ATOM     33  H   UNL     1       5.389   3.666  -6.724  0.00  0.00    +0.287 HD
ENDBRANCH  31  32
BRANCH  31  34
ATOM     34  O   UNL     1       7.867   3.329  -5.024  0.00  0.00    -0.506 OA
ATOM     35  H   UNL     1       8.189   3.340  -5.950  0.00  0.00    +0.287 HD
ENDBRANCH  31  34
ENDBRANCH  30  31
ENDBRANCH  22  30
ENDBRANCH  21  22
ENDBRANCH   1  21
TORSDOF 22
