REMARK  Name = 
REMARK  6 active torsions:
REMARK  status: ('A' for Active; 'I' for Inactive)
REMARK    1  A    between atoms: C_2  and  C_3
REMARK    2  A    between atoms: C_2  and  C_7
REMARK    3  A    between atoms: C_2  and  C_13
REMARK    4  A    between atoms: C_3  and  C_4
REMARK    5  A    between atoms: C_4  and  C_5
REMARK    6  A    between atoms: C_14  and  O_15
REMARK                            x       y       z     vdW  Elec       q    Type
REMARK                         _______ _______ _______ _____ _____    ______ ____
ROOT
ATOM      1  C   UNL     1       2.532   0.790  -1.076  0.00  0.00    +0.087 A 
ATOM      2  C   UNL     1       3.054   2.077  -0.536  0.00  0.00    +0.345 A 
ATOM      3  O   UNL     1       3.229   2.240   0.669  0.00  0.00    -0.245 OA
ATOM      4  O   UNL     1       3.292   3.110  -1.428  0.00  0.00    -0.422 OA
ATOM      5  C   UNL     1       3.401   2.854  -2.801  0.00  0.00    +0.143 A 
ATOM      6  C   UNL     1       3.064   1.611  -3.318  0.00  0.00    +0.059 A 
ATOM      7  C   UNL     1       3.284   1.382  -4.683  0.00  0.00    +0.015 A 
ATOM      8  C   UNL     1       3.830   2.381  -5.495  0.00  0.00    +0.001 A 
ATOM      9  C   UNL     1       4.135   3.631  -4.956  0.00  0.00    +0.004 A 
ATOM     10  C   UNL     1       3.910   3.875  -3.603  0.00  0.00    +0.047 A 
ATOM     11  C   UNL     1       2.536   0.595  -2.411  0.00  0.00    +0.138 A 
ENDROOT
BRANCH  11  12
ATOM     12  O   UNL     1       2.067  -0.529  -3.053  0.00  0.00    -0.506 OA
ATOM     13  H   UNL     1       2.020  -1.275  -2.436  0.00  0.00    +0.292 HD
ENDBRANCH  11  12
BRANCH   1  14
ATOM     14  C   UNL     1       2.040  -0.207  -0.008  0.00  0.00    +0.067 C 
BRANCH  14  15
ATOM     15  C   UNL     1       2.795  -1.531  -0.145  0.00  0.00    -0.039 A 
ATOM     16  C   UNL     1       2.185  -2.731  -0.537  0.00  0.00    +0.004 A 
ATOM     17  C   UNL     1       2.954  -3.847  -0.877  0.00  0.00    +0.000 A 
ATOM     18  C   UNL     1       4.343  -3.792  -0.798  0.00  0.00    +0.000 A 
ATOM     19  C   UNL     1       4.964  -2.640  -0.328  0.00  0.00    +0.000 A 
ATOM     20  C   UNL     1       4.197  -1.524   0.009  0.00  0.00    +0.004 A 
ENDBRANCH  14  15
BRANCH  14  21
ATOM     21  C   UNL     1       0.500  -0.236  -0.067  0.00  0.00    +0.087 C 
BRANCH  21  22
ATOM     22  C   UNL     1      -0.185  -1.019   1.037  0.00  0.00    +0.131 C 
ATOM     23  O   UNL     1      -0.845  -2.026   0.769  0.00  0.00    -0.298 OA
ATOM     24  C   UNL     1      -0.162  -0.474   2.438  0.00  0.00    +0.086 C 
ENDBRANCH  21  22
ENDBRANCH  14  21
ENDBRANCH   1  14
TORSDOF 5
