REMARK  Name = 
REMARK  3 active torsions:
REMARK  status: ('A' for Active; 'I' for Inactive)
REMARK    1  A    between atoms: N_4  and  C_5
REMARK    2  A    between atoms: C_5  and  C_6
REMARK    3  A    between atoms: C_6  and  O_7
REMARK                            x       y       z     vdW  Elec       q    Type
REMARK                         _______ _______ _______ _____ _____    ______ ____
ROOT
ATOM      1  N   UNL     1       1.169   0.013   0.132  0.00  0.00    -0.289 N 
ATOM      2  H   UNL     1       0.747   0.914   0.318  0.00  0.00    +0.255 HD
ATOM      3  H   UNL     1       0.634  -0.499  -0.560  0.00  0.00    +0.255 HD
ATOM      4  C   UNL     1       2.497   0.047  -0.067  0.00  0.00    +0.377 C 
ATOM      5  N   UNL     1       3.108   1.026   0.628  0.00  0.00    -0.266 N 
ATOM      6  H   UNL     1       2.600   1.322   1.453  0.00  0.00    +0.258 HD
ATOM      7  N   UNL     1       3.129  -0.749  -0.854  0.00  0.00    -0.130 NA
ATOM      8  H   UNL     1       2.459  -1.414  -1.256  0.00  0.00    +0.306 HD
ENDROOT
BRANCH   5   9
ATOM      9  C   UNL     1       4.557   1.040   0.845  0.00  0.00    +0.316 C 
BRANCH   9  10
ATOM     10  C   UNL     1       5.358   1.442  -0.389  0.00  0.00    +0.339 C 
ATOM     11  O   UNL     1       6.158   2.371  -0.396  0.00  0.00    -0.247 OA
BRANCH  10  12
ATOM     12  O   UNL     1       5.172   0.651  -1.470  0.00  0.00    -0.478 OA
ATOM     13  H   UNL     1       4.445  -0.010  -1.298  0.00  0.00    +0.295 HD
ENDBRANCH  10  12
ENDBRANCH   9  10
ENDBRANCH   5   9
TORSDOF 3
