REMARK  Name = 
REMARK  8 active torsions:
REMARK  status: ('A' for Active; 'I' for Inactive)
REMARK    1  A    between atoms: C_1  and  C_2
REMARK    2  A    between atoms: C_2  and  C_3
REMARK    3  A    between atoms: C_4  and  O_5
REMARK    4  A    between atoms: C_7  and  O_8
REMARK    5  A    between atoms: C_9  and  C_11
REMARK    6  A    between atoms: C_14  and  C_15
REMARK    7  A    between atoms: C_15  and  O_16
REMARK    8  A    between atoms: C_18  and  C_19
REMARK                            x       y       z     vdW  Elec       q    Type
REMARK                         _______ _______ _______ _____ _____    ______ ____
ROOT
ATOM      1  C   UNL     1       6.019   2.856   1.685  0.00  0.00    +0.104 A 
ATOM      2  C   UNL     1       6.993   1.791   1.809  0.00  0.00    +0.042 A 
ATOM      3  C   UNL     1       8.191   2.442   2.104  0.00  0.00    +0.151 A 
ATOM      4  N   UNL     1       7.887   3.776   2.065  0.00  0.00    -0.270 N 
ATOM      5  H   UNL     1       8.535   4.544   2.215  0.00  0.00    +0.189 HD
ATOM      6  N   UNL     1       6.596   4.051   1.891  0.00  0.00    -0.172 NA
ENDROOT
BRANCH   2   7
ATOM      7  C   UNL     1       6.817   0.340   1.685  0.00  0.00    -0.010 A 
ATOM      8  C   UNL     1       7.766  -0.434   0.991  0.00  0.00    +0.058 A 
ATOM      9  C   UNL     1       7.553  -1.794   0.883  0.00  0.00    +0.167 A 
ATOM     10  C   UNL     1       6.435  -2.399   1.402  0.00  0.00    +0.166 A 
ATOM     11  O   UNL     1       6.405  -3.735   1.152  0.00  0.00    -0.453 OA
ATOM     12  C   UNL     1       7.583  -3.880   0.329  0.00  0.00    +0.466 C 
ATOM     13  C   UNL     1       5.479  -1.681   2.083  0.00  0.00    +0.050 A 
ATOM     14  O   UNL     1       8.378  -2.678   0.262  0.00  0.00    -0.453 OA
ATOM     15  C   UNL     1       5.688  -0.303   2.239  0.00  0.00    +0.012 A 
ENDBRANCH   2   7
BRANCH   1  18
ATOM     16  C   UNL     1       2.351   3.491   2.326  0.00  0.00    -0.005 A 
ATOM     17  C   UNL     1       3.752   3.612   2.305  0.00  0.00    +0.021 A 
ATOM     18  C   UNL     1       4.560   2.803   1.484  0.00  0.00    +0.045 A 
ATOM     19  C   UNL     1       3.929   1.953   0.571  0.00  0.00    +0.130 A 
ATOM     20  C   UNL     1       2.538   1.823   0.569  0.00  0.00    +0.091 A 
ATOM     21  C   UNL     1       1.766   2.555   1.470  0.00  0.00    +0.124 A 
BRANCH  16  23
ATOM     22  C   UNL     1       1.675   3.745   4.714  0.00  0.00    +0.009 C 
ATOM     23  C   UNL     1       1.573   4.327   3.311  0.00  0.00    +0.035 C 
ENDBRANCH  16  23
BRANCH  19  24
ATOM     24  O   UNL     1       4.667   1.223  -0.320  0.00  0.00    -0.506 OA
ATOM     25  H   UNL     1       4.075   0.627  -0.809  0.00  0.00    +0.292 HD
ENDBRANCH  19  24
BRANCH  21  26
ATOM     26  O   UNL     1       0.430   2.279   1.473  0.00  0.00    -0.506 OA
ATOM     27  H   UNL     1       0.054   2.554   2.326  0.00  0.00    +0.292 HD
ENDBRANCH  21  26
ENDBRANCH   1  18
BRANCH   3  28
ATOM     28  C   UNL     1       9.552   2.077   2.391  0.00  0.00    +0.355 C 
ATOM     29  O   UNL     1      10.502   2.830   2.234  0.00  0.00    -0.243 OA
BRANCH  28  30
ATOM     30  O   UNL     1       9.693   0.855   2.945  0.00  0.00    -0.476 OA
ATOM     31  H   UNL     1       8.850   0.401   3.123  0.00  0.00    +0.295 HD
ENDBRANCH  28  30
ENDBRANCH   3  28
TORSDOF 7
