REMARK  Name = 
REMARK  5 active torsions:
REMARK  status: ('A' for Active; 'I' for Inactive)
REMARK    1  A    between atoms: N_1  and  C_2
REMARK    2  A    between atoms: C_2  and  C_3
REMARK    3  A    between atoms: C_6  and  N_7
REMARK    4  A    between atoms: C_8  and  C_10
REMARK    5  A    between atoms: C_10  and  O_11
REMARK                            x       y       z     vdW  Elec       q    Type
REMARK                         _______ _______ _______ _____ _____    ______ ____
ROOT
ATOM      1  C   UNL     1       2.815  -1.090  -0.946  0.00  0.00    -0.034 A 
ATOM      2  C   UNL     1       2.723  -2.441  -0.590  0.00  0.00    +0.007 A 
ATOM      3  C   UNL     1       2.958  -3.444  -1.540  0.00  0.00    +0.023 A 
ATOM      4  C   UNL     1       3.311  -3.112  -2.853  0.00  0.00    +0.034 A 
ATOM      5  C   UNL     1       3.442  -1.765  -3.195  0.00  0.00    +0.023 A 
ATOM      6  C   UNL     1       3.194  -0.765  -2.253  0.00  0.00    +0.007 A 
ENDROOT
BRANCH   4   7
ATOM      7  N   UNL     1       3.477  -4.155  -3.784  0.00  0.00    -0.276 N 
ATOM      8  H   UNL     1       3.203  -5.094  -3.500  0.00  0.00    +0.155 HD
ATOM      9  C   UNL     1       3.954  -4.035  -5.071  0.00  0.00    +0.325 C 
ATOM     10  O   UNL     1       4.438  -3.066  -5.643  0.00  0.00    -0.263 OA
BRANCH   9  11
ATOM     11  C   UNL     1       3.882  -5.332  -5.883  0.00  0.00    +0.393 C 
ATOM     12  O   UNL     1       3.407  -6.360  -5.444  0.00  0.00    -0.240 OA
BRANCH  11  13
ATOM     13  O   UNL     1       4.405  -5.149  -7.111  0.00  0.00    -0.474 OA
ATOM     14  H   UNL     1       4.708  -4.211  -7.184  0.00  0.00    +0.296 HD
ENDBRANCH  11  13
ENDBRANCH   9  11
ENDBRANCH   4   7
BRANCH   1  15
ATOM     15  C   UNL     1       2.461   0.007   0.025  0.00  0.00    +0.113 C 
BRANCH  15  16
ATOM     16  N   UNL     1       1.282   0.735  -0.432  0.00  0.00    -0.326 NA
ATOM     17  H   UNL     1       0.531   0.068  -0.607  0.00  0.00    +0.119 HD
ATOM     18  H   UNL     1       0.957   1.355   0.305  0.00  0.00    +0.119 HD
ENDBRANCH  15  16
ENDBRANCH   1  15
TORSDOF 5
