REMARK  Name = 
REMARK  5 active torsions:
REMARK  status: ('A' for Active; 'I' for Inactive)
REMARK    1  A    between atoms: N_1  and  C_2
REMARK    2  A    between atoms: C_2  and  C_3
REMARK    3  A    between atoms: C_6  and  N_7
REMARK    4  A    between atoms: C_8  and  C_10
REMARK    5  A    between atoms: C_15  and  C_20
REMARK                            x       y       z     vdW  Elec       q    Type
REMARK                         _______ _______ _______ _____ _____    ______ ____
ROOT
ATOM      1  C   UNL     1       3.248  -4.050  -6.797  0.00  0.00    +0.038 A 
ATOM      2  C   UNL     1       3.945  -5.221  -7.113  0.00  0.00    +0.021 A 
ATOM      3  C   UNL     1       3.895  -5.754  -8.404  0.00  0.00    -0.017 A 
ATOM      4  C   UNL     1       3.160  -5.079  -9.406  0.00  0.00    -0.017 A 
ATOM      5  C   UNL     1       3.109  -5.630 -10.697  0.00  0.00    +0.024 A 
ATOM      6  C   UNL     1       3.759  -6.839 -10.981  0.00  0.00    +0.065 A 
ATOM      7  C   UNL     1       4.487  -7.494  -9.986  0.00  0.00    +0.016 A 
ATOM      8  C   UNL     1       2.495  -3.881  -9.084  0.00  0.00    +0.009 A 
ATOM      9  C   UNL     1       4.557  -6.951  -8.704  0.00  0.00    +0.009 A 
ATOM     10  C   UNL     1       2.532  -3.369  -7.783  0.00  0.00    +0.013 A 
ENDROOT
BRANCH   6  11
ATOM     11  C   UNL     1       3.672  -7.411 -12.353  0.00  0.00    +0.308 C 
ATOM     12  N   UNL     1       3.697  -8.687 -12.585  0.00  0.00    -0.099 NA
ATOM     13  H   UNL     1       3.732  -9.228 -11.717  0.00  0.00    +0.363 HD
ATOM     14  N   UNL     1       3.565  -6.594 -13.433  0.00  0.00    -0.247 N 
ATOM     15  H   UNL     1       3.729  -7.111 -14.292  0.00  0.00    +0.288 HD
ATOM     16  H   UNL     1       4.099  -5.735 -13.392  0.00  0.00    +0.288 HD
ENDBRANCH   6  11
BRANCH   1  19
ATOM     17  N   UNL     1       2.165  -3.074  -4.861  0.00  0.00    -0.282 N 
ATOM     18  H   UNL     1       1.318  -3.177  -5.404  0.00  0.00    +0.155 HD
ATOM     19  C   UNL     1       3.339  -3.564  -5.401  0.00  0.00    +0.248 C 
ATOM     20  O   UNL     1       4.416  -3.701  -4.831  0.00  0.00    -0.270 OA
BRANCH  17  24
ATOM     21  C   UNL     1       1.611  -1.378  -1.027  0.00  0.00    -0.034 A 
ATOM     22  C   UNL     1       0.519  -1.724  -1.835  0.00  0.00    +0.007 A 
ATOM     23  C   UNL     1       0.721  -2.296  -3.096  0.00  0.00    +0.023 A 
ATOM     24  C   UNL     1       2.017  -2.543  -3.562  0.00  0.00    +0.034 A 
ATOM     25  C   UNL     1       3.100  -2.228  -2.741  0.00  0.00    +0.023 A 
ATOM     26  C   UNL     1       2.901  -1.647  -1.488  0.00  0.00    +0.007 A 
BRANCH  21  27
ATOM     27  C   UNL     1       1.415  -0.631   0.263  0.00  0.00    +0.113 C 
BRANCH  27  28
ATOM     28  N   UNL     1       1.367   0.804   0.008  0.00  0.00    -0.326 NA
ATOM     29  H   UNL     1       0.658   0.991  -0.700  0.00  0.00    +0.119 HD
ATOM     30  H   UNL     1       1.079   1.290   0.852  0.00  0.00    +0.119 HD
ENDBRANCH  27  28
ENDBRANCH  21  27
ENDBRANCH  17  24
ENDBRANCH   1  19
TORSDOF 5
