REMARK  Name = 
REMARK  8 active torsions:
REMARK  status: ('A' for Active; 'I' for Inactive)
REMARK    1  A    between atoms: N_10  and  C_11
REMARK    2  A    between atoms: C_14  and  C_16
REMARK    3  A    between atoms: C_16  and  O_17
REMARK    4  A    between atoms: O_17  and  W_18
REMARK    5  A    between atoms: W_18  and  O_19
REMARK    6  A    between atoms: W_18  and  O_20
REMARK    7  A    between atoms: C_22  and  O_24
REMARK    8  A    between atoms: C_25  and  O_27
REMARK                            x       y       z     vdW  Elec       q    Type
REMARK                         _______ _______ _______ _____ _____    ______ ____
ROOT
ATOM      1  C   UNL     1       6.503  -3.063   0.099  0.00  0.00    +0.000 C 
ATOM      2  C   UNL     1       6.560  -4.486   0.673  0.00  0.00    +0.000 C 
ATOM      3  C   UNL     1       7.921  -4.532   1.368  0.00  0.00    +0.000 C 
ATOM      4  C   UNL     1       8.358  -3.059   1.348  0.00  0.00    +0.000 C 
ATOM      5  O   UNL     1       7.229  -2.273   1.018  0.00  0.00    +0.000 OA
ENDROOT
BRANCH   1  13
ATOM      6  N   UNL     1       8.506  -3.217  -5.692  0.00  0.00    +0.000 N 
ATOM      7  H   UNL     1       8.370  -2.205  -5.826  0.00  0.00    +0.000 HD
ATOM      8  H   UNL     1       8.812  -3.789  -6.493  0.00  0.00    +0.000 HD
ATOM      9  C   UNL     1       8.239  -3.835  -4.446  0.00  0.00    +0.000 A 
ATOM     10  C   UNL     1       7.783  -3.118  -3.340  0.00  0.00    +0.000 A 
ATOM     11  N   UNL     1       7.524  -1.806  -3.210  0.00  0.00    +0.000 NA
ATOM     12  C   UNL     1       7.062  -1.693  -1.935  0.00  0.00    +0.000 A 
ATOM     13  N   UNL     1       7.028  -2.883  -1.274  0.00  0.00    +0.000 N 
ATOM     14  C   UNL     1       7.500  -3.764  -2.178  0.00  0.00    +0.000 A 
ATOM     15  N   UNL     1       7.657  -5.102  -2.047  0.00  0.00    +0.000 NA
ATOM     16  C   UNL     1       8.117  -5.813  -3.118  0.00  0.00    +0.000 A 
ATOM     17  N   UNL     1       8.397  -5.184  -4.302  0.00  0.00    +0.000 NA
ENDBRANCH   1  13
BRANCH   2  18
ATOM     18  O   UNL     1       5.536  -4.638   1.633  0.00  0.00    +0.000 OA
ATOM     19  H   UNL     1       5.592  -3.901   2.295  0.00  0.00    +0.000 HD
ENDBRANCH   2  18
BRANCH   3  20
ATOM     20  O   UNL     1       8.844  -5.311   0.658  0.00  0.00    +0.000 OA
ATOM     21  H   UNL     1       9.639  -5.399   1.247  0.00  0.00    +0.000 HD
ENDBRANCH   3  20
BRANCH   4  22
ATOM     22  C   UNL     1       8.992  -2.575   2.653  0.00  0.00    +0.000 C 
BRANCH  22  23
ATOM     23  O   UNL     1      10.115  -3.308   3.055  0.00  0.00    +0.000 OA
BRANCH  23  24
ATOM     24  W   UNL     1      10.548  -2.297   4.725  0.00  0.00    +0.000 W 
ATOM     25  O   UNL     1      12.293  -2.531   4.411  0.00  0.00    +0.000 OA
BRANCH  24  26
ATOM     26  O   UNL     1      10.520  -3.987   5.797  0.00  0.00    +0.000 OA
ATOM     27  H   UNL     1       9.583  -4.092   6.098  0.00  0.00    +0.000 HD
ENDBRANCH  24  26
BRANCH  24  28
ATOM     28  O   UNL     1      10.990  -1.275   6.379  0.00  0.00    +0.000 OA
ATOM     29  H   UNL     1      10.211  -0.655   6.449  0.00  0.00    +0.000 HD
ENDBRANCH  24  28
ENDBRANCH  23  24
ENDBRANCH  22  23
ENDBRANCH   4  22
TORSDOF 8
