REMARK  Name = 
REMARK  9 active torsions:
REMARK  status: ('A' for Active; 'I' for Inactive)
REMARK    1  A    between atoms: O_1  and  C_2
REMARK    2  A    between atoms: C_2  and  C_4
REMARK    3  A    between atoms: C_4  and  C_6
REMARK    4  A    between atoms: C_4  and  N_13
REMARK    5  A    between atoms: C_6  and  C_7
REMARK    6  A    between atoms: N_13  and  C_14
REMARK    7  A    between atoms: C_14  and  C_15
REMARK    8  A    between atoms: C_18  and  C_20
REMARK    9  A    between atoms: C_29  and  C_31
REMARK                            x       y       z     vdW  Elec       q    Type
REMARK                         _______ _______ _______ _____ _____    ______ ____
ROOT
ATOM      1  N   UNL     1       4.577  -0.282  -1.076  0.00  0.00    -0.279 N 
ATOM      2  C   UNL     1       5.483  -0.891  -1.991  0.00  0.00    +0.249 C 
ATOM      3  O   UNL     1       5.071  -1.543  -2.947  0.00  0.00    -0.270 OA
ENDROOT
BRANCH   2   4
ATOM      4  C   UNL     1       6.975  -0.748  -1.854  0.00  0.00    +0.055 A 
ATOM      5  C   UNL     1       7.852  -1.776  -2.259  0.00  0.00    +0.054 A 
ATOM      6 CL   UNL     1       7.336  -3.304  -2.888  0.00  0.00    -0.083 Cl
ATOM      7  C   UNL     1       9.242  -1.614  -2.145  0.00  0.00    +0.040 A 
ATOM      8  C   UNL     1       9.769  -0.451  -1.598  0.00  0.00    +0.042 A 
ATOM      9 CL   UNL     1      11.470  -0.280  -1.418  0.00  0.00    -0.083 Cl
ATOM     10  C   UNL     1       8.924   0.581  -1.211  0.00  0.00    +0.021 A 
ATOM     11  C   UNL     1       7.542   0.452  -1.388  0.00  0.00    +0.016 A 
ENDBRANCH   2   4
BRANCH   1  12
ATOM     12  C   UNL     1       3.113  -0.450  -1.417  0.00  0.00    +0.189 C 
BRANCH  12  13
ATOM     13  C   UNL     1       2.043   0.191  -0.521  0.00  0.00    +0.326 C 
ATOM     14  O   UNL     1       1.825   1.387  -0.385  0.00  0.00    -0.249 OA
BRANCH  13  15
ATOM     15  O   UNL     1       1.326  -0.719   0.176  0.00  0.00    -0.479 OA
ATOM     16  H   UNL     1       0.733  -0.184   0.743  0.00  0.00    +0.295 HD
ENDBRANCH  13  15
ENDBRANCH  12  13
BRANCH  12  17
ATOM     17  C   UNL     1       2.768   0.123  -2.832  0.00  0.00    +0.069 C 
BRANCH  17  18
ATOM     18  C   UNL     1       1.409  -0.292  -3.361  0.00  0.00    -0.045 A 
ATOM     19  C   UNL     1       1.113  -1.642  -3.595  0.00  0.00    +0.004 A 
ATOM     20  C   UNL     1      -0.135  -2.015  -4.096  0.00  0.00    +0.000 A 
ATOM     21  C   UNL     1      -1.093  -1.044  -4.382  0.00  0.00    +0.000 A 
ATOM     22  C   UNL     1      -0.804   0.302  -4.165  0.00  0.00    +0.000 A 
ATOM     23  C   UNL     1       0.440   0.676  -3.654  0.00  0.00    +0.004 A 
ENDBRANCH  17  18
ENDBRANCH  12  17
ENDBRANCH   1  12
BRANCH   1  24
ATOM     24  C   UNL     1       5.066   0.045   0.274  0.00  0.00    +0.151 C 
BRANCH  24  25
ATOM     25  C   UNL     1       4.143   0.047   1.437  0.00  0.00    +0.008 A 
ATOM     26  S   UNL     1       3.877  -1.390   2.316  0.00  0.00    -0.089 S 
ATOM     27  C   UNL     1       3.031  -0.563   3.553  0.00  0.00    +0.055 A 
ATOM     28  C   UNL     1       2.886   0.779   3.258  0.00  0.00    +0.019 A 
ATOM     29  C   UNL     1       3.550   1.134   2.051  0.00  0.00    +0.013 A 
BRANCH  27  30
ATOM     30  C   UNL     1       2.618  -1.227   4.754  0.00  0.00    +0.143 A 
ATOM     31  O   UNL     1       2.056  -0.557   5.813  0.00  0.00    -0.454 OA
ATOM     32  C   UNL     1       1.911  -1.444   6.837  0.00  0.00    +0.136 A 
ATOM     33  C   UNL     1       1.420  -1.151   8.104  0.00  0.00    +0.047 A 
ATOM     34  C   UNL     1       1.396  -2.209   9.018  0.00  0.00    +0.004 A 
ATOM     35  C   UNL     1       1.834  -3.488   8.660  0.00  0.00    +0.001 A 
ATOM     36  C   UNL     1       2.300  -3.755   7.368  0.00  0.00    +0.011 A 
ATOM     37  C   UNL     1       2.340  -2.704   6.440  0.00  0.00    +0.021 A 
ATOM     38  C   UNL     1       2.760  -2.563   5.099  0.00  0.00    +0.059 A 
ENDBRANCH  27  30
ENDBRANCH  24  25
ENDBRANCH   1  24
TORSDOF 9
