REMARK  Name = 
REMARK  6 active torsions:
REMARK  status: ('A' for Active; 'I' for Inactive)
REMARK    1  A    between atoms: N_1  and  C_2
REMARK    2  A    between atoms: C_2  and  C_3
REMARK    3  A    between atoms: C_3  and  C_5
REMARK    4  A    between atoms: C_3  and  C_7
REMARK    5  A    between atoms: C_5  and  S_6
REMARK    6  A    between atoms: C_7  and  O_8
REMARK                            x       y       z     vdW  Elec       q    Type
REMARK                         _______ _______ _______ _____ _____    ______ ____
ROOT
ATOM      1  C   UNL     1       2.918  -0.889   1.223  0.00  0.00    +0.121 C 
ENDROOT
BRANCH   1   2
ATOM      2  C   UNL     1       4.436  -0.886   1.194  0.00  0.00    +0.310 C 
ATOM      3  O   UNL     1       5.134  -1.409   2.055  0.00  0.00    -0.251 OA
BRANCH   2   4
ATOM      4  O   UNL     1       4.977  -0.239   0.138  0.00  0.00    -0.480 OA
ATOM      5  H   UNL     1       4.337   0.144  -0.494  0.00  0.00    +0.295 HD
ENDBRANCH   2   4
ENDBRANCH   1   2
BRANCH   1   6
ATOM      6  C   UNL     1       2.440  -0.083   2.439  0.00  0.00    +0.093 C 
BRANCH   6   7
ATOM      7  N   UNL     1       2.738  -0.704   3.727  0.00  0.00    -0.329 NA
ATOM      8  H   UNL     1       3.725  -0.990   3.752  0.00  0.00    +0.118 HD
ATOM      9  H   UNL     1       2.642  -0.012   4.471  0.00  0.00    +0.118 HD
ENDBRANCH   6   7
ENDBRANCH   1   6
BRANCH   1  10
ATOM     10  C   UNL     1       2.449  -2.344   1.151  0.00  0.00    +0.081 C 
BRANCH  10  11
ATOM     11  S   UNL     1       0.640  -2.506   1.018  0.00  0.00    -0.177 S 
ATOM     12  H   UNL     1       0.386  -2.335   2.327  0.00  0.00    +0.102 HD
ENDBRANCH  10  11
ENDBRANCH   1  10
TORSDOF 6
