REMARK  Name = 
REMARK  18 active torsions:
REMARK  status: ('A' for Active; 'I' for Inactive)
REMARK    1  A    between atoms: N_1  and  C_2
REMARK    2  A    between atoms: C_2  and  C_3
REMARK    3  A    between atoms: C_3  and  C_4
REMARK    4  A    between atoms: C_4  and  C_5
REMARK    5  A    between atoms: C_5  and  C_6
REMARK    6  A    between atoms: C_6  and  C_7
REMARK    7  A    between atoms: C_7  and  O_8
REMARK    8  A    between atoms: O_8  and  P_9
REMARK    9  A    between atoms: P_9  and  O_10
REMARK   10  A    between atoms: P_9  and  O_12
REMARK   11  A    between atoms: O_12  and  P_13
REMARK   12  A    between atoms: P_13  and  O_14
REMARK   13  A    between atoms: P_13  and  O_16
REMARK   14  A    between atoms: O_16  and  C_17
REMARK   15  A    between atoms: C_17  and  C_18
REMARK   16  A    between atoms: C_21  and  N_29
REMARK   17  A    between atoms: C_23  and  O_25
REMARK   18  A    between atoms: C_26  and  O_28
REMARK                            x       y       z     vdW  Elec       q    Type
REMARK                         _______ _______ _______ _____ _____    ______ ____
ROOT
ATOM      1  O   UNL     1      14.573   5.665  -6.596  0.00  0.00    -0.284 OA
ENDROOT
BRANCH   1   2
ATOM      2  P   UNL     1      16.139   5.324  -7.247  0.00  0.00    +0.483 P 
ATOM      3  O   UNL     1      15.511   4.314  -8.206  0.00  0.00    -0.227 OA
BRANCH   2   4
ATOM      4  O   UNL     1      16.172   6.712  -8.103  0.00  0.00    -0.302 OA
ATOM      5  H   UNL     1      15.890   6.503  -9.018  0.00  0.00    +0.222 HD
ENDBRANCH   2   4
BRANCH   2   6
ATOM      6  O   UNL     1      17.705   4.983  -7.899  0.00  0.00    -0.186 OA
BRANCH   6   7
ATOM      7  P   UNL     1      18.920   5.494  -6.778  0.00  0.00    +0.483 P 
ATOM      8  O   UNL     1      19.886   4.424  -7.275  0.00  0.00    -0.227 OA
BRANCH   7   9
ATOM      9  O   UNL     1      20.134   6.006  -5.658  0.00  0.00    -0.302 OA
ATOM     10  H   UNL     1      20.317   5.277  -5.038  0.00  0.00    +0.222 HD
ENDBRANCH   7   9
BRANCH   7  11
ATOM     11  O   UNL     1      19.118   6.911  -7.591  0.00  0.00    -0.286 OA
BRANCH  11  12
ATOM     12  C   UNL     1      20.136   7.014  -8.575  0.00  0.00    +0.172 C 
BRANCH  12  13
ATOM     13  C   UNL     1      20.209   8.436  -9.153  0.00  0.00    +0.029 C 
BRANCH  13  14
ATOM     14  C   UNL     1      20.550   9.531  -8.128  0.00  0.00    +0.002 C 
BRANCH  14  15
ATOM     15  C   UNL     1      20.643  10.917  -8.795  0.00  0.00    +0.001 C 
BRANCH  15  16
ATOM     16  C   UNL     1      20.958  12.037  -7.793  0.00  0.00    +0.015 C 
BRANCH  16  17
ATOM     17  C   UNL     1      21.027  13.404  -8.484  0.00  0.00    +0.077 C 
BRANCH  17  18
ATOM     18  N   UNL     1      21.316  14.461  -7.521  0.00  0.00    -0.330 NA
ATOM     19  H   UNL     1      22.233  14.308  -7.105  0.00  0.00    +0.118 HD
ATOM     20  H   UNL     1      21.374  15.356  -8.010  0.00  0.00    +0.118 HD
ENDBRANCH  17  18
ENDBRANCH  16  17
ENDBRANCH  15  16
ENDBRANCH  14  15
ENDBRANCH  13  14
ENDBRANCH  12  13
ENDBRANCH  11  12
ENDBRANCH   7  11
ENDBRANCH   6   7
ENDBRANCH   2   6
ENDBRANCH   1   2
BRANCH   1  21
ATOM     21  C   UNL     1      14.330   7.058  -6.334  0.00  0.00    +0.206 C 
BRANCH  21  22
ATOM     22  C   UNL     1      12.923   7.331  -5.797  0.00  0.00    +0.178 C 
ATOM     23  C   UNL     1      12.657   8.838  -5.689  0.00  0.00    +0.178 C 
ATOM     24  C   UNL     1      11.927   9.213  -6.985  0.00  0.00    +0.195 C 
ATOM     25  C   UNL     1      11.754   7.870  -7.721  0.00  0.00    +0.255 C 
ATOM     26  O   UNL     1      11.929   6.850  -6.723  0.00  0.00    -0.346 OA
BRANCH  25  27
ATOM     27  N   UNL     1      10.473   7.725  -8.410  0.00  0.00    -0.271 N 
ATOM     28  C   UNL     1      10.225   8.595  -9.465  0.00  0.00    +0.331 A 
ATOM     29  O   UNL     1      10.980   9.517  -9.776  0.00  0.00    -0.246 OA
ATOM     30  N   UNL     1       9.061   8.380 -10.153  0.00  0.00    -0.275 N 
ATOM     31  H   UNL     1       8.862   9.002 -10.924  0.00  0.00    +0.173 HD
ATOM     32  C   UNL     1       8.146   7.403  -9.909  0.00  0.00    +0.254 A 
ATOM     33  O   UNL     1       7.121   7.262 -10.557  0.00  0.00    -0.268 OA
ATOM     34  C   UNL     1       8.469   6.503  -8.781  0.00  0.00    +0.088 A 
ATOM     35  C   UNL     1       9.600   6.701  -8.101  0.00  0.00    +0.098 A 
ENDBRANCH  25  27
BRANCH  24  36
ATOM     36  O   UNL     1      12.703  10.137  -7.754  0.00  0.00    -0.385 OA
ATOM     37  H   UNL     1      12.203  10.294  -8.587  0.00  0.00    +0.210 HD
ENDBRANCH  24  36
BRANCH  23  38
ATOM     38  O   UNL     1      11.809   9.096  -4.560  0.00  0.00    -0.386 OA
ATOM     39  H   UNL     1      11.038   8.505  -4.618  0.00  0.00    +0.210 HD
ENDBRANCH  23  38
ENDBRANCH  21  22
ENDBRANCH   1  21
TORSDOF 18
