REMARK  Name = 
REMARK  5 active torsions:
REMARK  status: ('A' for Active; 'I' for Inactive)
REMARK    1  A    between atoms: O_1  and  C_2
REMARK    2  A    between atoms: C_2  and  C_3
REMARK    3  A    between atoms: C_3  and  O_5
REMARK    4  A    between atoms: C_3  and  C_6
REMARK    5  A    between atoms: C_6  and  C_7
REMARK                            x       y       z     vdW  Elec       q    Type
REMARK                         _______ _______ _______ _____ _____    ______ ____
ROOT
ATOM      1  C   UNL     1       4.470   1.249  -0.929  0.00  0.00    +0.068 C 
ENDROOT
BRANCH   1   2
ATOM      2  C   UNL     1       4.923   2.311  -1.901  0.00  0.00    -0.045 A 
ATOM      3  C   UNL     1       5.643   1.962  -3.051  0.00  0.00    +0.004 A 
ATOM      4  C   UNL     1       5.959   2.928  -4.005  0.00  0.00    +0.000 A 
ATOM      5  C   UNL     1       5.562   4.253  -3.816  0.00  0.00    +0.000 A 
ATOM      6  C   UNL     1       4.873   4.615  -2.663  0.00  0.00    +0.000 A 
ATOM      7  C   UNL     1       4.564   3.652  -1.703  0.00  0.00    +0.004 A 
ENDBRANCH   1   2
BRANCH   1   8
ATOM      8  C   UNL     1       2.944   1.119  -0.873  0.00  0.00    +0.144 C 
BRANCH   8   9
ATOM      9  O   UNL     1       2.591   0.114   0.087  0.00  0.00    -0.389 OA
ATOM     10  H   UNL     1       1.630  -0.018  -0.039  0.00  0.00    +0.210 HD
ENDBRANCH   8   9
BRANCH   8  11
ATOM     11  C   UNL     1       2.326   0.734  -2.223  0.00  0.00    +0.187 C 
BRANCH  11  12
ATOM     12  O   UNL     1       0.909   0.620  -2.056  0.00  0.00    -0.392 OA
ATOM     13  H   UNL     1       0.541   0.452  -2.942  0.00  0.00    +0.210 HD
ENDBRANCH  11  12
ENDBRANCH   8  11
ENDBRANCH   1   8
TORSDOF 5
