REMARK  Name = 
REMARK  3 active torsions:
REMARK  status: ('A' for Active; 'I' for Inactive)
REMARK    1  A    between atoms: O_1  and  C_2
REMARK    2  A    between atoms: C_5  and  C_6
REMARK    3  A    between atoms: C_7  and  C_9
REMARK                            x       y       z     vdW  Elec       q    Type
REMARK                         _______ _______ _______ _____ _____    ______ ____
ROOT
ATOM      1  C   UNL     1       2.438   0.120   0.125  0.00  0.00    +0.117 A 
ATOM      2  C   UNL     1       3.088  -1.105   0.076  0.00  0.00    +0.046 A 
ATOM      3  C   UNL     1       4.474  -1.147  -0.099  0.00  0.00    +0.011 A 
ATOM      4  C   UNL     1       5.217   0.035  -0.215  0.00  0.00    -0.022 A 
ATOM      5  C   UNL     1       4.539   1.262  -0.159  0.00  0.00    +0.011 A 
ATOM      6  C   UNL     1       3.152   1.308   0.015  0.00  0.00    +0.046 A 
ENDROOT
BRANCH   4   7
ATOM      7  C   UNL     1       6.661   0.041  -0.485  0.00  0.00    +0.048 C 
ATOM      8  C   UNL     1       7.563  -0.862  -0.065  0.00  0.00    +0.146 C 
ATOM      9  F   UNL     1       7.166  -1.894   0.721  0.00  0.00    -0.204 F 
BRANCH   8  10
ATOM     10  C   UNL     1       9.064  -0.731  -0.456  0.00  0.00    +0.100 C 
ATOM     11  O   UNL     1       9.818  -1.641  -0.002  0.00  0.00    -0.542 OA
ATOM     12  O   UNL     1       9.366   0.261  -1.185  0.00  0.00    -0.542 OA
ENDBRANCH   8  10
ENDBRANCH   4   7
BRANCH   1  13
ATOM     13  O   UNL     1       1.081   0.121   0.269  0.00  0.00    -0.507 OA
ATOM     14  H   UNL     1       0.775   1.040   0.214  0.00  0.00    +0.292 HD
ENDBRANCH   1  13
TORSDOF 3
