REMARK  Name = 
REMARK  12 active torsions:
REMARK  status: ('A' for Active; 'I' for Inactive)
REMARK    1  A    between atoms: O_1  and  C_2
REMARK    2  A    between atoms: C_2  and  C_3
REMARK    3  A    between atoms: C_6  and  O_8
REMARK    4  A    between atoms: O_8  and  C_9
REMARK    5  A    between atoms: C_11  and  O_13
REMARK    6  A    between atoms: C_14  and  O_16
REMARK    7  A    between atoms: C_17  and  O_19
REMARK    8  A    between atoms: C_21  and  C_23
REMARK    9  A    between atoms: C_23  and  O_24
REMARK   10  A    between atoms: C_25  and  O_27
REMARK   11  A    between atoms: C_28  and  O_30
REMARK   12  A    between atoms: C_31  and  O_33
REMARK                            x       y       z     vdW  Elec       q    Type
REMARK                         _______ _______ _______ _____ _____    ______ ____
ROOT
ATOM      1  O   UNL     1       2.189  -2.377   0.418  0.00  0.00    -0.340 OA
ENDROOT
BRANCH   1   6
ATOM      2  C   UNL     1       1.033  -2.593  -2.313  0.00  0.00    +0.178 C 
ATOM      3  C   UNL     1       1.070  -4.087  -2.626  0.00  0.00    +0.177 C 
ATOM      4  C   UNL     1       1.822  -4.840  -1.515  0.00  0.00    +0.179 C 
ATOM      5  C   UNL     1       3.123  -4.134  -1.108  0.00  0.00    +0.201 C 
ATOM      6  C   UNL     1       2.913  -2.631  -0.824  0.00  0.00    +0.282 C 
ATOM      7  O   UNL     1       2.318  -2.045  -1.981  0.00  0.00    -0.341 OA
BRANCH   3   8
ATOM      8  O   UNL     1      -0.278  -4.582  -2.716  0.00  0.00    -0.386 OA
ATOM      9  H   UNL     1      -0.709  -4.467  -1.850  0.00  0.00    +0.210 HD
ENDBRANCH   3   8
BRANCH   4  10
ATOM     10  O   UNL     1       2.134  -6.167  -1.974  0.00  0.00    -0.386 OA
ATOM     11  H   UNL     1       2.823  -6.522  -1.381  0.00  0.00    +0.210 HD
ENDBRANCH   4  10
BRANCH   5  12
ATOM     12  O   UNL     1       3.714  -4.821   0.005  0.00  0.00    -0.384 OA
ATOM     13  H   UNL     1       3.194  -4.585   0.789  0.00  0.00    +0.210 HD
ENDBRANCH   5  12
BRANCH   2  14
ATOM     14  C   UNL     1       0.401  -1.746  -3.426  0.00  0.00    +0.190 C 
BRANCH  14  15
ATOM     15  O   UNL     1       1.268  -1.636  -4.551  0.00  0.00    -0.392 OA
ATOM     16  H   UNL     1       2.085  -1.220  -4.221  0.00  0.00    +0.210 HD
ENDBRANCH  14  15
ENDBRANCH   2  14
ENDBRANCH   1   6
BRANCH   1  17
ATOM     17  C   UNL     1       2.362  -1.004   0.890  0.00  0.00    +0.183 C 
ATOM     18  C   UNL     1       1.920  -0.770   2.381  0.00  0.00    +0.178 C 
ATOM     19  O   UNL     1       0.486  -0.715   2.581  0.00  0.00    -0.341 OA
ATOM     20  C   UNL     1      -0.193   0.253   1.773  0.00  0.00    +0.279 C 
ATOM     21  C   UNL     1       0.049  -0.114   0.315  0.00  0.00    +0.201 C 
ATOM     22  C   UNL     1       1.562  -0.011   0.019  0.00  0.00    +0.179 C 
BRANCH  20  23
ATOM     23  O   UNL     1       0.222   1.583   2.054  0.00  0.00    -0.365 OA
ATOM     24  H   UNL     1      -0.282   2.149   1.446  0.00  0.00    +0.213 HD
ENDBRANCH  20  23
BRANCH  21  25
ATOM     25  O   UNL     1      -0.484  -1.430   0.131  0.00  0.00    -0.384 OA
ATOM     26  H   UNL     1      -0.090  -1.986   0.841  0.00  0.00    +0.210 HD
ENDBRANCH  21  25
BRANCH  22  27
ATOM     27  O   UNL     1       2.062   1.323   0.195  0.00  0.00    -0.386 OA
ATOM     28  H   UNL     1       1.821   1.638   1.091  0.00  0.00    +0.210 HD
ENDBRANCH  22  27
BRANCH  18  29
ATOM     29  C   UNL     1       2.429  -1.823   3.365  0.00  0.00    +0.190 C 
BRANCH  29  30
ATOM     30  O   UNL     1       2.058  -1.449   4.698  0.00  0.00    -0.392 OA
ATOM     31  H   UNL     1       1.111  -1.212   4.659  0.00  0.00    +0.210 HD
ENDBRANCH  29  30
ENDBRANCH  18  29
ENDBRANCH   1  17
TORSDOF 12
