REMARK  Name = 
REMARK  8 active torsions:
REMARK  status: ('A' for Active; 'I' for Inactive)
REMARK    1  A    between atoms: O_1  and  C_2
REMARK    2  A    between atoms: C_5  and  C_6
REMARK    3  A    between atoms: C_6  and  C_7
REMARK    4  A    between atoms: C_7  and  O_8
REMARK    5  A    between atoms: C_13  and  C_23
REMARK    6  A    between atoms: C_15  and  C_16
REMARK    7  A    between atoms: C_16  and  C_17
REMARK    8  A    between atoms: C_26  and  O_27
REMARK                            x       y       z     vdW  Elec       q    Type
REMARK                         _______ _______ _______ _____ _____    ______ ____
ROOT
ATOM      1  C   UNL     1       6.987  -1.323  -0.334  0.00  0.00    +0.244 C 
ATOM      2  C   UNL     1       7.484  -1.754  -1.740  0.00  0.00    +0.288 C 
ATOM      3  O   UNL     1       7.769  -0.998  -2.656  0.00  0.00    -0.267 OA
ATOM      4  N   UNL     1       7.440  -3.108  -1.738  0.00  0.00    -0.264 N 
ATOM      5  C   UNL     1       7.675  -3.981  -2.761  0.00  0.00    +0.124 A 
ATOM      6  C   UNL     1       7.505  -5.302  -2.543  0.00  0.00    +0.088 A 
ATOM      7  N   UNL     1       7.151  -5.823  -1.307  0.00  0.00    -0.246 NA
ATOM      8  C   UNL     1       6.897  -4.985  -0.337  0.00  0.00    +0.089 A 
ATOM      9  C   UNL     1       6.967  -3.503  -0.543  0.00  0.00    +0.161 A 
ATOM     10  N   UNL     1       6.627  -2.611   0.324  0.00  0.00    -0.221 NA
ENDROOT
BRANCH   6  11
ATOM     11  C   UNL     1       7.638  -6.258  -3.680  0.00  0.00    +0.002 A 
ATOM     12  C   UNL     1       6.796  -7.382  -3.736  0.00  0.00    +0.013 A 
ATOM     13  C   UNL     1       6.850  -8.268  -4.813  0.00  0.00    +0.046 A 
ATOM     14  C   UNL     1       7.753  -8.041  -5.846  0.00  0.00    +0.117 A 
ATOM     15  C   UNL     1       8.628  -6.963  -5.795  0.00  0.00    +0.046 A 
ATOM     16  C   UNL     1       8.576  -6.081  -4.710  0.00  0.00    +0.013 A 
BRANCH  14  17
ATOM     17  O   UNL     1       7.741  -8.900  -6.902  0.00  0.00    -0.507 OA
ATOM     18  H   UNL     1       8.299  -8.531  -7.606  0.00  0.00    +0.292 HD
ENDBRANCH  14  17
ENDBRANCH   6  11
BRANCH   1  19
ATOM     19  O   UNL     1       5.905  -0.419  -0.511  0.00  0.00    -0.361 OA
ATOM     20  H   UNL     1       6.102   0.111  -1.307  0.00  0.00    +0.213 HD
ENDBRANCH   1  19
BRANCH   1  21
ATOM     21  C   UNL     1       8.153  -0.690   0.465  0.00  0.00    +0.104 C 
BRANCH  21  25
ATOM     22  C   UNL     1       7.564   0.540   4.576  0.00  0.00    +0.117 A 
ATOM     23  C   UNL     1       8.827   0.574   4.003  0.00  0.00    +0.045 A 
ATOM     24  C   UNL     1       9.001   0.148   2.682  0.00  0.00    +0.007 A 
ATOM     25  C   UNL     1       7.912  -0.314   1.922  0.00  0.00    -0.042 A 
ATOM     26  C   UNL     1       6.654  -0.370   2.539  0.00  0.00    +0.007 A 
ATOM     27  C   UNL     1       6.476   0.057   3.859  0.00  0.00    +0.045 A 
BRANCH  22  28
ATOM     28  O   UNL     1       7.424   1.007   5.849  0.00  0.00    -0.507 OA
ATOM     29  H   UNL     1       6.479   1.008   6.071  0.00  0.00    +0.292 HD
ENDBRANCH  22  28
ENDBRANCH  21  25
ENDBRANCH   1  21
BRANCH   8  30
ATOM     30  C   UNL     1       6.573  -5.460   1.058  0.00  0.00    +0.094 C 
BRANCH  30  31
ATOM     31  C   UNL     1       5.116  -5.793   1.238  0.00  0.00    -0.041 A 
ATOM     32  C   UNL     1       4.190  -4.799   1.587  0.00  0.00    +0.004 A 
ATOM     33  C   UNL     1       2.837  -5.113   1.717  0.00  0.00    +0.000 A 
ATOM     34  C   UNL     1       2.400  -6.420   1.503  0.00  0.00    +0.000 A 
ATOM     35  C   UNL     1       3.315  -7.415   1.164  0.00  0.00    +0.000 A 
ATOM     36  C   UNL     1       4.667  -7.102   1.030  0.00  0.00    +0.004 A 
ENDBRANCH  30  31
ENDBRANCH   8  30
TORSDOF 8
