REMARK  Name = 
REMARK  5 active torsions:
REMARK  status: ('A' for Active; 'I' for Inactive)
REMARK    1  A    between atoms: O_1  and  C_2
REMARK    2  A    between atoms: C_2  and  C_3
REMARK    3  A    between atoms: C_6  and  C_14
REMARK    4  A    between atoms: C_8  and  O_10
REMARK    5  A    between atoms: C_11  and  O_13
REMARK                            x       y       z     vdW  Elec       q    Type
REMARK                         _______ _______ _______ _____ _____    ______ ____
ROOT
ATOM      1  C   UNL     1       2.964   1.218   1.030  0.00  0.00    +0.175 C 
ATOM      2  C   UNL     1       2.014   1.316   2.224  0.00  0.00    +0.177 C 
ATOM      3  C   UNL     1       1.890   2.809   2.519  0.00  0.00    +0.179 C 
ATOM      4  C   UNL     1       2.785   3.484   1.466  0.00  0.00    +0.183 C 
ATOM      5  O   UNL     1       2.950   2.518   0.405  0.00  0.00    -0.361 OA
ENDROOT
BRANCH   4   6
ATOM      6  C   UNL     1       2.205   4.776   0.978  0.00  0.00    +0.027 A 
ATOM      7  C   UNL     1       1.935   5.914   1.766  0.00  0.00    +0.101 A 
ATOM      8  N   UNL     1       2.136   6.056   3.144  0.00  0.00    -0.235 NA
ATOM      9  C   UNL     1       1.798   7.232   3.582  0.00  0.00    +0.199 A 
ATOM     10  N   UNL     1       1.280   8.272   2.838  0.00  0.00    -0.312 N 
ATOM     11  H   UNL     1       1.043   9.149   3.271  0.00  0.00    +0.170 HD
ATOM     12  C   UNL     1       1.051   8.180   1.486  0.00  0.00    +0.275 A 
ATOM     13  O   UNL     1       0.583   9.100   0.825  0.00  0.00    -0.266 OA
ATOM     14  C   UNL     1       1.422   6.904   0.978  0.00  0.00    +0.130 A 
ATOM     15  N   UNL     1       1.356   6.424  -0.299  0.00  0.00    -0.355 N 
ATOM     16  H   UNL     1       1.019   6.943  -1.100  0.00  0.00    +0.166 HD
ATOM     17  C   UNL     1       1.829   5.130  -0.312  0.00  0.00    +0.091 A 
ENDBRANCH   4   6
BRANCH   2  18
ATOM     18  O   UNL     1       0.727   0.793   1.836  0.00  0.00    -0.386 OA
ATOM     19  H   UNL     1       0.426   1.305   1.063  0.00  0.00    +0.210 HD
ENDBRANCH   2  18
BRANCH   3  20
ATOM     20  O   UNL     1       2.285   3.126   3.856  0.00  0.00    -0.386 OA
ATOM     21  H   UNL     1       2.328   4.105   3.893  0.00  0.00    +0.210 HD
ENDBRANCH   3  20
BRANCH   1  22
ATOM     22  C   UNL     1       4.393   0.814   1.424  0.00  0.00    +0.190 C 
BRANCH  22  23
ATOM     23  O   UNL     1       4.926   1.647   2.447  0.00  0.00    -0.392 OA
ATOM     24  H   UNL     1       5.785   1.275   2.711  0.00  0.00    +0.210 HD
ENDBRANCH  22  23
ENDBRANCH   1  22
TORSDOF 5
