REMARK  Name = 
REMARK  13 active torsions:
REMARK  status: ('A' for Active; 'I' for Inactive)
REMARK    1  A    between atoms: C_1  and  C_2
REMARK    2  A    between atoms: C_2  and  N_4
REMARK    3  A    between atoms: C_2  and  C_5
REMARK    4  A    between atoms: C_5  and  C_7
REMARK    5  A    between atoms: C_5  and  C_15
REMARK    6  A    between atoms: C_7  and  C_8
REMARK    7  A    between atoms: C_8  and  C_9
REMARK    8  A    between atoms: C_9  and  C_10
REMARK    9  A    between atoms: C_10  and  C_11
REMARK   10  A    between atoms: C_11  and  C_12
REMARK   11  A    between atoms: C_12  and  O_13
REMARK   12  A    between atoms: C_15  and  C_16
REMARK   13  A    between atoms: C_16  and  O_17
REMARK                            x       y       z     vdW  Elec       q    Type
REMARK                         _______ _______ _______ _____ _____    ______ ____
ROOT
ATOM      1  C   UNL     1       3.159   1.447  -0.286  0.00  0.00    +0.016 C 
ENDROOT
BRANCH   1   3
ATOM      2  C   UNL     1       2.642   3.331  -2.036  0.00  0.00    +0.024 C 
ATOM      3  C   UNL     1       2.598   1.848  -1.679  0.00  0.00    +0.051 C 
BRANCH   3   4
ATOM      4  N   UNL     1       3.279   1.091  -2.739  0.00  0.00    -0.327 NA
ATOM      5  H   UNL     1       3.099   0.094  -2.597  0.00  0.00    +0.118 HD
ATOM      6  H   UNL     1       2.838   1.307  -3.636  0.00  0.00    +0.118 HD
ENDBRANCH   3   4
ENDBRANCH   1   3
BRANCH   1   7
ATOM      7  C   UNL     1       4.699   1.461  -0.171  0.00  0.00    +0.125 C 
BRANCH   7   8
ATOM      8  C   UNL     1       5.334   2.821  -0.042  0.00  0.00    +0.305 C 
ATOM      9  O   UNL     1       5.407   3.443   1.007  0.00  0.00    -0.251 OA
BRANCH   8  10
ATOM     10  O   UNL     1       5.839   3.298  -1.198  0.00  0.00    -0.481 OA
ATOM     11  H   UNL     1       5.657   2.714  -1.961  0.00  0.00    +0.295 HD
ENDBRANCH   8  10
ENDBRANCH   7   8
ENDBRANCH   1   7
BRANCH   1  12
ATOM     12  C   UNL     1       2.509   2.185   0.909  0.00  0.00    +0.005 C 
BRANCH  12  13
ATOM     13  C   UNL     1       0.978   2.151   0.928  0.00  0.00    +0.000 C 
BRANCH  13  14
ATOM     14  C   UNL     1       0.428   2.828   2.188  0.00  0.00    +0.001 C 
BRANCH  14  15
ATOM     15  C   UNL     1      -1.101   2.842   2.185  0.00  0.00    +0.011 C 
BRANCH  15  16
ATOM     16  C   UNL     1      -1.662   3.525   3.432  0.00  0.00    +0.120 C 
BRANCH  16  17
ATOM     17  C   UNL     1      -3.173   3.537   3.428  0.00  0.00    +0.305 C 
ATOM     18  O   UNL     1      -3.883   3.063   2.556  0.00  0.00    -0.251 OA
BRANCH  17  19
ATOM     19  O   UNL     1      -3.684   4.145   4.525  0.00  0.00    -0.481 OA
ATOM     20  H   UNL     1      -3.006   4.480   5.140  0.00  0.00    +0.295 HD
ENDBRANCH  17  19
ENDBRANCH  16  17
ENDBRANCH  15  16
ENDBRANCH  14  15
ENDBRANCH  13  14
ENDBRANCH  12  13
ENDBRANCH   1  12
TORSDOF 12
