REMARK  Name = 
REMARK  7 active torsions:
REMARK  status: ('A' for Active; 'I' for Inactive)
REMARK    1  A    between atoms: C_1  and  C_2
REMARK    2  A    between atoms: C_2  and  C_4
REMARK    3  A    between atoms: C_4  and  N_6
REMARK    4  A    between atoms: C_4  and  C_7
REMARK    5  A    between atoms: C_7  and  O_8
REMARK    6  A    between atoms: O_8  and  C_9
REMARK    7  A    between atoms: C_9  and  C_10
REMARK                            x       y       z     vdW  Elec       q    Type
REMARK                         _______ _______ _______ _____ _____    ______ ____
ROOT
ATOM      1  C   UNL     1       4.856   0.183  -0.931  0.00  0.00    +0.186 C 
ENDROOT
BRANCH   1   2
ATOM      2  C   UNL     1       3.345   0.166  -1.215  0.00  0.00    +0.143 C 
BRANCH   2   4
ATOM      3  C   UNL     1       1.053   0.002  -0.012  0.00  0.00    +0.087 C 
ATOM      4  C   UNL     1       2.558   0.053   0.093  0.00  0.00    +0.149 C 
ATOM      5  O   UNL     1       3.109  -0.068   1.188  0.00  0.00    -0.296 OA
ENDBRANCH   2   4
BRANCH   2   6
ATOM      6  N   UNL     1       2.944   1.382  -1.959  0.00  0.00    -0.319 NA
ATOM      7  H   UNL     1       3.658   1.533  -2.679  0.00  0.00    +0.119 HD
ATOM      8  H   UNL     1       2.079   1.206  -2.466  0.00  0.00    +0.119 HD
ENDBRANCH   2   6
ENDBRANCH   1   2
BRANCH   1   9
ATOM      9  O   UNL     1       5.550   0.246  -2.183  0.00  0.00    -0.373 OA
BRANCH   9  10
ATOM     10  C   UNL     1       6.966   0.272  -1.998  0.00  0.00    +0.195 C 
BRANCH  10  11
ATOM     11  C   UNL     1       7.656   0.402  -3.335  0.00  0.00    -0.022 A 
ATOM     12  C   UNL     1       7.088  -0.126  -4.504  0.00  0.00    +0.006 A 
ATOM     13  C   UNL     1       7.740  -0.008  -5.731  0.00  0.00    +0.000 A 
ATOM     14  C   UNL     1       8.979   0.624  -5.803  0.00  0.00    +0.000 A 
ATOM     15  C   UNL     1       9.569   1.131  -4.647  0.00  0.00    +0.000 A 
ATOM     16  C   UNL     1       8.914   1.016  -3.418  0.00  0.00    +0.006 A 
ENDBRANCH  10  11
ENDBRANCH   9  10
ENDBRANCH   1   9
TORSDOF 6
