REMARK  Name = 
REMARK  7 active torsions:
REMARK  status: ('A' for Active; 'I' for Inactive)
REMARK    1  A    between atoms: N_1  and  CA_2
REMARK    2  A    between atoms: CA_2  and  C_4
REMARK    3  A    between atoms: CA_2  and  C_7
REMARK    4  A    between atoms: C_4  and  O_5
REMARK    5  A    between atoms: C_7  and  O_9
REMARK    6  A    between atoms: O_9  and  S_10
REMARK    7  A    between atoms: S_10  and  O_11
REMARK                            x       y       z     vdW  Elec       q    Type
REMARK                         _______ _______ _______ _____ _____    ______ ____
ROOT
ATOM      1  CA  UNL     1       2.641  -0.083  -0.065  0.00  0.00    +0.272 C 
ENDROOT
BRANCH   1   2
ATOM      2  N   UNL     1       1.162   0.094  -0.070  0.00  0.00    -0.309 NA
ATOM      3  H1  UNL     1       0.730  -0.834  -0.138  0.00  0.00    +0.119 HD
ATOM      4  H2  UNL     1       0.823   0.482   0.808  0.00  0.00    +0.119 HD
ENDBRANCH   1   2
BRANCH   1   5
ATOM      5  C   UNL     1       3.077  -1.077  -1.135  0.00  0.00    +0.363 C 
ATOM      6  O   UNL     1       2.384  -1.984  -1.587  0.00  0.00    -0.246 OA
BRANCH   5   7
ATOM      7  O   UNL     1       4.385  -0.913  -1.405  0.00  0.00    -0.284 OA
BRANCH   7   8
ATOM      8  S   UNL     1       5.240  -2.050  -2.172  0.00  0.00    +0.254 S 
ATOM      9  O   UNL     1       6.623  -1.872  -1.791  0.00  0.00    -0.108 OA
ATOM     10  O   UNL     1       4.838  -2.061  -3.560  0.00  0.00    -0.108 OA
BRANCH   8  11
ATOM     11  O   UNL     1       4.720  -3.428  -1.519  0.00  0.00    -0.222 OA
ATOM     12  H   UNL     1       3.764  -3.532  -1.727  0.00  0.00    +0.248 HD
ENDBRANCH   8  11
ENDBRANCH   7   8
ENDBRANCH   5   7
ENDBRANCH   1   5
BRANCH   1  13
ATOM     13  C   UNL     1       3.120  -0.589   1.292  0.00  0.00    +0.333 C 
ATOM     14  OXT UNL     1       3.701  -1.648   1.470  0.00  0.00    -0.249 OA
BRANCH  13  15
ATOM     15  O   UNL     1       2.837   0.258   2.315  0.00  0.00    -0.479 OA
ATOM     16  H   UNL     1       2.436   1.102   2.037  0.00  0.00    +0.295 HD
ENDBRANCH  13  15
ENDBRANCH   1  13
TORSDOF 7
