REMARK  Name = 
REMARK  41 active torsions:
REMARK  status: ('A' for Active; 'I' for Inactive)
REMARK    1  A    between atoms: C_1  and  C_2
REMARK    2  A    between atoms: C_2  and  C_3
REMARK    3  A    between atoms: C_3  and  C_4
REMARK    4  A    between atoms: C_4  and  C_5
REMARK    5  A    between atoms: C_5  and  C_6
REMARK    6  A    between atoms: C_6  and  C_7
REMARK    7  A    between atoms: C_7  and  C_8
REMARK    8  A    between atoms: C_8  and  C_9
REMARK    9  A    between atoms: C_9  and  C_10
REMARK   10  A    between atoms: C_10  and  C_11
REMARK   11  A    between atoms: C_11  and  C_12
REMARK   12  A    between atoms: C_12  and  C_13
REMARK   13  A    between atoms: C_13  and  C_14
REMARK   14  A    between atoms: C_14  and  S_16
REMARK   15  A    between atoms: S_16  and  C_17
REMARK   16  A    between atoms: C_17  and  C_18
REMARK   17  A    between atoms: C_18  and  N_19
REMARK   18  A    between atoms: C_20  and  C_22
REMARK   19  A    between atoms: C_22  and  C_23
REMARK   20  A    between atoms: C_23  and  N_24
REMARK   21  A    between atoms: C_25  and  C_27
REMARK   22  A    between atoms: C_27  and  O_29
REMARK   23  A    between atoms: C_27  and  C_30
REMARK   24  A    between atoms: C_30  and  C_31
REMARK   25  A    between atoms: C_30  and  C_32
REMARK   26  A    between atoms: C_30  and  C_33
REMARK   27  A    between atoms: C_33  and  O_34
REMARK   28  A    between atoms: O_34  and  P_35
REMARK   29  A    between atoms: P_35  and  O_36
REMARK   30  A    between atoms: P_35  and  O_38
REMARK   31  A    between atoms: O_38  and  P_39
REMARK   32  A    between atoms: P_39  and  O_40
REMARK   33  A    between atoms: P_39  and  O_42
REMARK   34  A    between atoms: O_42  and  C_43
REMARK   35  A    between atoms: C_43  and  C_44
REMARK   36  A    between atoms: C_47  and  N_59
REMARK   37  A    between atoms: C_49  and  O_51
REMARK   38  A    between atoms: C_52  and  O_54
REMARK   39  A    between atoms: O_54  and  P_55
REMARK   40  A    between atoms: P_55  and  O_56
REMARK   41  A    between atoms: P_55  and  O_57
REMARK                            x       y       z     vdW  Elec       q    Type
REMARK                         _______ _______ _______ _____ _____    ______ ____
ROOT
ATOM      1  P   UNL     1      32.037  -3.489 -26.755  0.00  0.00    +0.483 P 
ATOM      2  O   UNL     1      30.948  -4.294 -27.383  0.00  0.00    -0.227 OA
ENDROOT
BRANCH   1   3
ATOM      3  O   UNL     1      33.449  -3.830 -27.413  0.00  0.00    -0.302 OA
ATOM      4  H   UNL     1      33.366  -3.917 -28.381  0.00  0.00    +0.222 HD
ENDBRANCH   1   3
BRANCH   1   5
ATOM      5  O   UNL     1      32.161  -3.787 -25.207  0.00  0.00    -0.186 OA
BRANCH   5   6
ATOM      6  P   UNL     1      32.080  -5.458 -24.764  0.00  0.00    +0.483 P 
ATOM      7  O   UNL     1      32.025  -5.067 -23.287  0.00  0.00    -0.227 OA
BRANCH   6   8
ATOM      8  O   UNL     1      33.669  -5.643 -25.075  0.00  0.00    -0.302 OA
ATOM      9  H   UNL     1      34.159  -5.438 -24.254  0.00  0.00    +0.222 HD
ENDBRANCH   6   8
BRANCH   6  10
ATOM     10  O   UNL     1      31.999  -7.128 -24.322  0.00  0.00    -0.284 OA
BRANCH  10  11
ATOM     11  C   UNL     1      31.596  -8.004 -25.357  0.00  0.00    +0.206 C 
BRANCH  11  12
ATOM     12  C   UNL     1      31.588  -9.449 -24.846  0.00  0.00    +0.179 C 
ATOM     13  C   UNL     1      32.957  -9.953 -24.368  0.00  0.00    +0.194 C 
ATOM     14  C   UNL     1      32.849 -10.015 -22.847  0.00  0.00    +0.196 C 
ATOM     15  C   UNL     1      31.491  -9.379 -22.545  0.00  0.00    +0.253 C 
ATOM     16  O   UNL     1      30.687  -9.574 -23.723  0.00  0.00    -0.346 OA
BRANCH  15  17
ATOM     17  N   UNL     1      30.809  -9.905 -21.376  0.00  0.00    -0.286 N 
ATOM     18  C   UNL     1      31.370  -9.978 -20.127  0.00  0.00    +0.167 A 
ATOM     19  N   UNL     1      32.674  -9.898 -19.806  0.00  0.00    -0.216 NA
ATOM     20  C   UNL     1      32.837  -9.914 -18.466  0.00  0.00    +0.225 A 
ATOM     21  N   UNL     1      31.888  -9.938 -17.508  0.00  0.00    -0.219 NA
ATOM     22  C   UNL     1      30.590  -9.973 -17.889  0.00  0.00    +0.147 A 
ATOM     23  N   UNL     1      29.619  -9.884 -16.909  0.00  0.00    -0.341 N 
ATOM     24  H   UNL     1      28.685 -10.157 -17.187  0.00  0.00    +0.144 HD
ATOM     25  H   UNL     1      29.943 -10.076 -15.972  0.00  0.00    +0.144 HD
ATOM     26  C   UNL     1      30.294 -10.057 -19.259  0.00  0.00    +0.147 A 
ATOM     27  N   UNL     1      29.108 -10.155 -19.959  0.00  0.00    -0.231 NA
ATOM     28  C   UNL     1      29.457 -10.070 -21.227  0.00  0.00    +0.203 A 
ENDBRANCH  15  17
BRANCH  14  29
ATOM     29  O   UNL     1      33.923  -9.284 -22.250  0.00  0.00    -0.385 OA
ATOM     30  H   UNL     1      33.794  -9.343 -21.278  0.00  0.00    +0.210 HD
ENDBRANCH  14  29
BRANCH  13  31
ATOM     31  O   UNL     1      33.072 -11.248 -24.950  0.00  0.00    -0.278 OA
BRANCH  31  32
ATOM     32  P   UNL     1      34.296 -12.213 -24.643  0.00  0.00    +0.473 P 
ATOM     33  O   UNL     1      35.474 -11.647 -23.938  0.00  0.00    -0.228 OA
BRANCH  32  34
ATOM     34  O   UNL     1      33.591 -13.416 -23.868  0.00  0.00    -0.303 OA
ATOM     35  H   UNL     1      34.094 -13.676 -23.077  0.00  0.00    +0.222 HD
ENDBRANCH  32  34
BRANCH  32  36
ATOM     36  O   UNL     1      34.615 -12.848 -26.071  0.00  0.00    -0.303 OA
ATOM     37  H   UNL     1      34.938 -12.172 -26.696  0.00  0.00    +0.222 HD
ENDBRANCH  32  36
ENDBRANCH  31  32
ENDBRANCH  13  31
ENDBRANCH  11  12
ENDBRANCH  10  11
ENDBRANCH   6  10
ENDBRANCH   5   6
ENDBRANCH   1   5
BRANCH   1  38
ATOM     38  O   UNL     1      31.974  -1.880 -26.806  0.00  0.00    -0.286 OA
BRANCH  38  39
ATOM     39  C   UNL     1      31.283  -1.237 -25.744  0.00  0.00    +0.181 C 
BRANCH  39  40
ATOM     40  C   UNL     1      31.457   0.300 -25.723  0.00  0.00    +0.024 C 
ATOM     41  C   UNL     1      32.850   0.598 -25.132  0.00  0.00    +0.016 C 
ATOM     42  C   UNL     1      31.462   0.914 -27.129  0.00  0.00    +0.016 C 
BRANCH  40  43
ATOM     43  C   UNL     1      30.327   0.938 -24.854  0.00  0.00    +0.208 C 
BRANCH  43  46
ATOM     44  N   UNL     1      28.119  -0.198 -24.842  0.00  0.00    -0.313 N 
ATOM     45  H   UNL     1      28.468  -0.513 -23.938  0.00  0.00    +0.149 HD
ATOM     46  C   UNL     1      28.887   0.786 -25.442  0.00  0.00    +0.242 C 
ATOM     47  O   UNL     1      28.497   1.463 -26.386  0.00  0.00    -0.273 OA
BRANCH  44  48
ATOM     48  C   UNL     1      26.729  -0.528 -25.178  0.00  0.00    +0.113 C 
BRANCH  48  49
ATOM     49  C   UNL     1      26.249  -0.287 -26.615  0.00  0.00    +0.114 C 
BRANCH  49  52
ATOM     50  N   UNL     1      28.045  -1.756 -27.365  0.00  0.00    -0.314 N 
ATOM     51  H   UNL     1      28.256  -1.796 -26.378  0.00  0.00    +0.149 HD
ATOM     52  C   UNL     1      26.982  -0.997 -27.745  0.00  0.00    +0.215 C 
ATOM     53  O   UNL     1      26.609  -0.895 -28.912  0.00  0.00    -0.276 OA
BRANCH  50  54
ATOM     54  C   UNL     1      28.936  -2.502 -28.217  0.00  0.00    +0.115 C 
BRANCH  54  55
ATOM     55  C   UNL     1      29.200  -2.111 -29.667  0.00  0.00    +0.096 C 
BRANCH  55  56
ATOM     56  S   UNL     1      29.889  -0.446 -29.793  0.00  0.00    -0.087 S 
BRANCH  56  57
ATOM     57  C   UNL     1      29.644  -0.170 -31.491  0.00  0.00    +0.189 C 
ATOM     58  O   UNL     1      30.038  -0.975 -32.323  0.00  0.00    -0.285 OA
BRANCH  57  59
ATOM     59  C   UNL     1      28.966   1.146 -31.805  0.00  0.00    +0.086 C 
BRANCH  59  60
ATOM     60  C   UNL     1      28.159   1.036 -33.088  0.00  0.00    +0.008 C 
BRANCH  60  61
ATOM     61  C   UNL     1      26.990   0.061 -32.933  0.00  0.00    +0.000 C 
BRANCH  61  62
ATOM     62  C   UNL     1      26.259  -0.097 -34.258  0.00  0.00    +0.000 C 
BRANCH  62  63
ATOM     63  C   UNL     1      25.107  -1.087 -34.134  0.00  0.00    +0.000 C 
BRANCH  63  64
ATOM     64  C   UNL     1      24.392  -1.219 -35.473  0.00  0.00    +0.000 C 
BRANCH  64  65
ATOM     65  C   UNL     1      23.228  -2.198 -35.381  0.00  0.00    -0.000 C 
BRANCH  65  66
ATOM     66  C   UNL     1      22.518  -2.309 -36.726  0.00  0.00    -0.000 C 
BRANCH  66  67
ATOM     67  C   UNL     1      21.348  -3.283 -36.644  0.00  0.00    -0.000 C 
BRANCH  67  68
ATOM     68  C   UNL     1      20.636  -3.395 -37.990  0.00  0.00    -0.000 C 
BRANCH  68  69
ATOM     69  C   UNL     1      19.464  -4.371 -37.905  0.00  0.00    -0.000 C 
BRANCH  69  71
ATOM     70  C   UNL     1      17.580  -5.459 -39.161  0.00  0.00    +0.004 C 
ATOM     71  C   UNL     1      18.745  -4.488 -39.246  0.00  0.00    -0.003 C 
ENDBRANCH  69  71
ENDBRANCH  68  69
ENDBRANCH  67  68
ENDBRANCH  66  67
ENDBRANCH  65  66
ENDBRANCH  64  65
ENDBRANCH  63  64
ENDBRANCH  62  63
ENDBRANCH  61  62
ENDBRANCH  60  61
ENDBRANCH  59  60
ENDBRANCH  57  59
ENDBRANCH  56  57
ENDBRANCH  55  56
ENDBRANCH  54  55
ENDBRANCH  50  54
ENDBRANCH  49  52
ENDBRANCH  48  49
ENDBRANCH  44  48
ENDBRANCH  43  46
BRANCH  43  72
ATOM     72  O   UNL     1      30.350   0.377 -23.533  0.00  0.00    -0.382 OA
ATOM     73  H   UNL     1      29.875   1.007 -22.960  0.00  0.00    +0.210 HD
ENDBRANCH  43  72
ENDBRANCH  40  43
ENDBRANCH  39  40
ENDBRANCH  38  39
ENDBRANCH   1  38
TORSDOF 38
