REMARK  Name = 
REMARK  7 active torsions:
REMARK  status: ('A' for Active; 'I' for Inactive)
REMARK    1  A    between atoms: C_1  and  C_2
REMARK    2  A    between atoms: N_4  and  C_5
REMARK    3  A    between atoms: C_8  and  C_10
REMARK    4  A    between atoms: C_10  and  O_11
REMARK    5  A    between atoms: C_12  and  O_14
REMARK    6  A    between atoms: C_15  and  O_17
REMARK    7  A    between atoms: C_18  and  O_20
REMARK                            x       y       z     vdW  Elec       q    Type
REMARK                         _______ _______ _______ _____ _____    ______ ____
ROOT
ATOM      1  C   UNL     1       4.420  -0.042   1.079  0.00  0.00    +0.237 C 
ATOM      2  C   UNL     1       5.212   0.868   0.112  0.00  0.00    +0.192 C 
ATOM      3  C   UNL     1       5.229   0.323  -1.327  0.00  0.00    +0.178 C 
ATOM      4  C   UNL     1       5.549  -1.171  -1.402  0.00  0.00    +0.177 C 
ATOM      5  C   UNL     1       4.794  -1.998  -0.350  0.00  0.00    +0.177 C 
ATOM      6  O   UNL     1       4.772  -1.425   0.970  0.00  0.00    -0.348 OA
ENDROOT
BRANCH   1   9
ATOM      7  C   UNL     1       0.828   0.984   1.573  0.00  0.00    +0.109 C 
ATOM      8  C   UNL     1       2.307   1.191   1.354  0.00  0.00    +0.212 C 
ATOM      9  N   UNL     1       2.979   0.034   1.040  0.00  0.00    -0.288 N 
ATOM     10  H   UNL     1       2.511  -0.837   1.269  0.00  0.00    +0.151 HD
ATOM     11  O   UNL     1       2.832   2.290   1.437  0.00  0.00    -0.276 OA
ENDBRANCH   1   9
BRANCH   2  12
ATOM     12  O   UNL     1       6.547   1.014   0.630  0.00  0.00    -0.385 OA
ATOM     13  H   UNL     1       7.105   1.410  -0.060  0.00  0.00    +0.210 HD
ENDBRANCH   2  12
BRANCH   3  14
ATOM     14  O   UNL     1       3.991   0.544  -2.014  0.00  0.00    -0.386 OA
ATOM     15  H   UNL     1       3.442   1.157  -1.493  0.00  0.00    +0.210 HD
ENDBRANCH   3  14
BRANCH   4  16
ATOM     16  O   UNL     1       6.962  -1.355  -1.249  0.00  0.00    -0.386 OA
ATOM     17  H   UNL     1       7.162  -2.285  -1.462  0.00  0.00    +0.210 HD
ENDBRANCH   4  16
BRANCH   5  18
ATOM     18  C   UNL     1       3.373  -2.394  -0.778  0.00  0.00    +0.190 C 
BRANCH  18  19
ATOM     19  O   UNL     1       2.778  -3.233   0.222  0.00  0.00    -0.392 OA
ATOM     20  H   UNL     1       3.377  -3.237   0.994  0.00  0.00    +0.210 HD
ENDBRANCH  18  19
ENDBRANCH   5  18
TORSDOF 6
