REMARK  Name = 
REMARK  3 active torsions:
REMARK  status: ('A' for Active; 'I' for Inactive)
REMARK    1  A    between atoms: N_1  and  CA_2
REMARK    2  A    between atoms: CA_2  and  C_4
REMARK    3  A    between atoms: C_4  and  O_5
REMARK                            x       y       z     vdW  Elec       q    Type
REMARK                         _______ _______ _______ _____ _____    ______ ____
ROOT
ATOM      1  CA  ALA A   1       2.324   0.051   0.045  0.00  0.00    +0.102 C 
ATOM      2  CB  ALA A   1       2.987  -0.296  -1.065  0.00  0.00    +0.040 C 
ENDROOT
BRANCH   1   3
ATOM      3  N   ALA A   1       0.947   0.248   0.117  0.00  0.00    -0.353 N 
ATOM      4  H1  ALA A   1       0.556  -0.275   0.908  0.00  0.00    +0.143 HD
ATOM      5  H2  ALA A   1       0.488  -0.075  -0.735  0.00  0.00    +0.143 HD
ENDBRANCH   1   3
BRANCH   1   6
ATOM      6  C   ALA A   1       3.139   0.279   1.297  0.00  0.00    +0.350 C 
ATOM      7  OXT ALA A   1       4.265  -0.133   1.508  0.00  0.00    -0.244 OA
BRANCH   6   8
ATOM      8  O   ALA A   1       2.409   1.012   2.173  0.00  0.00    -0.476 OA
ATOM      9  H   ALA A   1       1.606   1.332   1.708  0.00  0.00    +0.295 HD
ENDBRANCH   6   8
ENDBRANCH   1   6
TORSDOF 3
