REMARK  Name = 
REMARK  6 active torsions:
REMARK  status: ('A' for Active; 'I' for Inactive)
REMARK    1  A    between atoms: N_1  and  CA_2
REMARK    2  A    between atoms: CA_2  and  CB_4
REMARK    3  A    between atoms: CA_2  and  C_8
REMARK    4  A    between atoms: CB_4  and  CG_5
REMARK    5  A    between atoms: CG_5  and  OD1_6
REMARK    6  A    between atoms: C_8  and  O_9
REMARK                            x       y       z     vdW  Elec       q    Type
REMARK                         _______ _______ _______ _____ _____    ______ ____
ROOT
ATOM      1  CA  ASP A   1       2.525  -0.146   0.037  0.00  0.00    +0.171 C 
ENDROOT
BRANCH   1   2
ATOM      2  N   ASP A   1       3.070  -1.526   0.148  0.00  0.00    -0.318 NA
ATOM      3  H1  ASP A   1       2.771  -2.078  -0.665  0.00  0.00    +0.119 HD
ATOM      4  H2  ASP A   1       4.093  -1.486   0.047  0.00  0.00    +0.119 HD
ENDBRANCH   1   2
BRANCH   1   5
ATOM      5  C   ASP A   1       2.978   0.646   1.275  0.00  0.00    +0.322 C 
ATOM      6  OXT ASP A   1       3.049   1.863   1.353  0.00  0.00    -0.249 OA
BRANCH   5   7
ATOM      7  O   ASP A   1       3.249  -0.186   2.316  0.00  0.00    -0.480 OA
ATOM      8  H   ASP A   1       3.125  -1.112   1.986  0.00  0.00    +0.295 HD
ENDBRANCH   5   7
ENDBRANCH   1   5
BRANCH   1   9
ATOM      9  CB  ASP A   1       2.925   0.592  -1.235  0.00  0.00    +0.150 C 
BRANCH   9  10
ATOM     10  CG  ASP A   1       2.521  -0.071  -2.525  0.00  0.00    +0.307 C 
ATOM     11  OD2 ASP A   1       3.239  -0.073  -3.516  0.00  0.00    -0.251 OA
BRANCH  10  12
ATOM     12  OD1 ASP A   1       1.298  -0.635  -2.548  0.00  0.00    -0.481 OA
ATOM     13  HD1 ASP A   1       0.731  -0.518  -1.765  0.00  0.00    +0.295 HD
ENDBRANCH  10  12
ENDBRANCH   9  10
ENDBRANCH   1   9
TORSDOF 6
