REMARK  Name = 
REMARK  4 active torsions:
REMARK  status: ('A' for Active; 'I' for Inactive)
REMARK    1  A    between atoms: C_2  and  C_6
REMARK    2  A    between atoms: C_11  and  C_15
REMARK    3  A    between atoms: C_19  and  O_20
REMARK    4  A    between atoms: O_20  and  C_21
REMARK                            x       y       z     vdW  Elec       q    Type
REMARK                         _______ _______ _______ _____ _____    ______ ____
ROOT
ATOM      1  C   UNL     1       3.223  -1.250  -0.041  0.00  0.00    +0.063 A 
ATOM      2  C   UNL     1       4.619  -1.236   0.180  0.00  0.00    +0.045 A 
ATOM      3  C   UNL     1       5.359  -2.424   0.027  0.00  0.00    +0.090 A 
ATOM      4  C   UNL     1       4.689  -3.576  -0.350  0.00  0.00    +0.067 A 
ATOM      5  N   UNL     1       5.668  -4.521  -0.397  0.00  0.00    -0.338 N 
ATOM      6  H   UNL     1       5.608  -5.524  -0.584  0.00  0.00    +0.167 HD
ATOM      7  C   UNL     1       6.868  -3.960  -0.022  0.00  0.00    +0.139 A 
ATOM      8  C   UNL     1       3.319  -3.647  -0.578  0.00  0.00    +0.028 A 
ATOM      9  N   UNL     1       6.699  -2.658   0.205  0.00  0.00    -0.228 NA
ATOM     10  C   UNL     1       2.599  -2.460  -0.408  0.00  0.00    +0.018 A 
ENDROOT
BRANCH   1  14
ATOM     11  N   UNL     1       1.383   0.181  -0.679  0.00  0.00    -0.250 N 
ATOM     12  H   UNL     1       1.168  -0.485  -1.413  0.00  0.00    +0.288 HD
ATOM     13  H   UNL     1       0.793   0.997  -0.605  0.00  0.00    +0.288 HD
ATOM     14  C   UNL     1       2.421  -0.021   0.108  0.00  0.00    +0.266 C 
ATOM     15  N   UNL     1       2.727   0.864   1.030  0.00  0.00    -0.288 N 
ATOM     16  H   UNL     1       2.210   1.720   1.166  0.00  0.00    +0.301 HD
ATOM     17  H   UNL     1       3.509   0.690   1.655  0.00  0.00    +0.301 HD
ENDBRANCH   1  14
BRANCH   7  18
ATOM     18  C   UNL     1       8.075  -4.815   0.131  0.00  0.00    +0.013 A 
ATOM     19  C   UNL     1       7.995  -6.259  -0.002  0.00  0.00    -0.054 A 
ATOM     20  O   UNL     1       6.920  -6.874  -0.362  0.00  0.00    -0.871 OA
ATOM     21  C   UNL     1       9.203  -6.955   0.323  0.00  0.00    +0.114 A 
ATOM     22  C   UNL     1      10.400  -6.278   0.616  0.00  0.00    +0.045 A 
ATOM     23  C   UNL     1      10.444  -4.893   0.677  0.00  0.00    +0.004 A 
ATOM     24  C   UNL     1       9.282  -4.169   0.455  0.00  0.00    +0.011 A 
BRANCH  21  25
ATOM     25  O   UNL     1       9.178  -8.344   0.296  0.00  0.00    -0.489 OA
BRANCH  25  26
ATOM     26  C   UNL     1       9.888  -8.993   1.351  0.00  0.00    +0.173 C 
ATOM     27  C   UNL     1      11.265  -9.483   0.877  0.00  0.00    +0.044 C 
ATOM     28  C   UNL     1      11.441 -10.905   1.404  0.00  0.00    +0.004 C 
ATOM     29  C   UNL     1      10.288 -11.125   2.368  0.00  0.00    +0.004 C 
ATOM     30  C   UNL     1       9.171 -10.278   1.778  0.00  0.00    +0.044 C 
ENDBRANCH  25  26
ENDBRANCH  21  25
ENDBRANCH   7  18
TORSDOF 4
