REMARK  Name = 
REMARK  1 active torsions:
REMARK  status: ('A' for Active; 'I' for Inactive)
REMARK    1  A    between atoms: O_1  and  C_2
REMARK                            x       y       z     vdW  Elec       q    Type
REMARK                         _______ _______ _______ _____ _____    ______ ____
ROOT
ATOM      1  C   UNL     1       2.412   0.058  -0.063  0.00  0.00    +0.145 A 
ATOM      2  C   UNL     1       3.140  -1.136  -0.062  0.00  0.00    +0.061 A 
ATOM      3 BR   UNL     1       2.275  -2.824  -0.066  0.00  0.00    -0.046 Br
ATOM      4  C   UNL     1       4.536  -1.108  -0.060  0.00  0.00    +0.034 A 
ATOM      5  C   UNL     1       5.199   0.119  -0.057  0.00  0.00    +0.020 A 
ATOM      6 BR   UNL     1       7.090   0.158  -0.053  0.00  0.00    -0.050 Br
ATOM      7  C   UNL     1       4.486   1.316  -0.057  0.00  0.00    +0.034 A 
ATOM      8  C   UNL     1       3.091   1.281  -0.060  0.00  0.00    +0.061 A 
ATOM      9 BR   UNL     1       2.137   2.920  -0.060  0.00  0.00    -0.046 Br
ENDROOT
BRANCH   1  10
ATOM     10  O   UNL     1       1.043   0.014  -0.065  0.00  0.00    -0.505 OA
ATOM     11  H   UNL     1       0.710   0.929  -0.065  0.00  0.00    +0.292 HD
ENDBRANCH   1  10
TORSDOF 1
