REMARK  Name = 
REMARK  15 active torsions:
REMARK  status: ('A' for Active; 'I' for Inactive)
REMARK    1  A    between atoms: C_1  and  C_2
REMARK    2  A    between atoms: C_7  and  C_8
REMARK    3  A    between atoms: N_9  and  S_35
REMARK    4  A    between atoms: N_18  and  C_19
REMARK    5  A    between atoms: C_19  and  C_20
REMARK    6  A    between atoms: C_20  and  O_22
REMARK    7  A    between atoms: C_20  and  C_23
REMARK    8  A    between atoms: C_23  and  O_25
REMARK    9  A    between atoms: C_23  and  C_26
REMARK   10  A    between atoms: C_26  and  O_28
REMARK   11  A    between atoms: C_26  and  C_29
REMARK   12  A    between atoms: C_29  and  O_30
REMARK   13  A    between atoms: O_30  and  P_31
REMARK   14  A    between atoms: P_31  and  O_32
REMARK   15  A    between atoms: P_31  and  O_33
REMARK                            x       y       z     vdW  Elec       q    Type
REMARK                         _______ _______ _______ _____ _____    ______ ____
ROOT
ATOM      1  C   UNL     1      -0.009  -8.976   1.921  0.00  0.00    +0.044 C 
ATOM      2  C   UNL     1      -0.451  -8.355   3.221  0.00  0.00    -0.045 A 
ATOM      3  C   UNL     1      -1.103  -9.120   4.190  0.00  0.00    -0.041 A 
ATOM      4  C   UNL     1      -1.463 -10.567   3.950  0.00  0.00    +0.044 C 
ATOM      5  C   UNL     1      -1.460  -8.514   5.403  0.00  0.00    +0.086 A 
ATOM      6  C   UNL     1      -1.247  -7.139   5.663  0.00  0.00    +0.262 A 
ATOM      7  N   UNL     1      -1.623  -6.521   6.915  0.00  0.00    -0.033 N 
ATOM      8  C   UNL     1      -1.287  -5.297   7.146  0.00  0.00    +0.344 A 
ATOM      9  C   UNL     1      -0.815  -4.397   6.051  0.00  0.00    +0.220 A 
ATOM     10  N   UNL     1      -0.392  -4.966   4.866  0.00  0.00    -0.312 N 
ATOM     11  N   UNL     1      -0.823  -3.116   6.258  0.00  0.00    -0.169 NA
ATOM     12  C   UNL     1      -1.212  -2.545   7.441  0.00  0.00    +0.351 A 
ATOM     13  O   UNL     1      -1.031  -1.355   7.661  0.00  0.00    -0.245 OA
ATOM     14  N   UNL     1      -1.737  -3.342   8.415  0.00  0.00    -0.268 N 
ATOM     15  H   UNL     1      -1.778  -2.840   9.297  0.00  0.00    +0.174 HD
ATOM     16  C   UNL     1      -1.300  -4.621   8.478  0.00  0.00    +0.330 A 
ATOM     17  O   UNL     1      -0.802  -5.200   9.425  0.00  0.00    -0.260 OA
ATOM     18  C   UNL     1      -0.603  -6.348   4.661  0.00  0.00    +0.119 A 
ATOM     19  C   UNL     1      -0.190  -6.995   3.477  0.00  0.00    +0.036 A 
ENDROOT
BRANCH   7  20
ATOM     20  S   UNL     1      -2.461  -7.437   8.099  0.00  0.00    +0.136 S 
ATOM     21  O   UNL     1      -2.999  -6.455   9.017  0.00  0.00    -0.123 OA
ATOM     22  O   UNL     1      -1.381  -8.294   8.572  0.00  0.00    -0.123 OA
ATOM     23  O   UNL     1      -3.477  -8.100   7.286  0.00  0.00    -0.670 OA
ENDBRANCH   7  20
BRANCH  10  24
ATOM     24  C   UNL     1       0.097  -4.045   3.782  0.00  0.00    +0.158 C 
BRANCH  24  25
ATOM     25  C   UNL     1      -1.083  -3.464   2.956  0.00  0.00    +0.165 C 
BRANCH  25  26
ATOM     26  O   UNL     1      -2.090  -2.910   3.819  0.00  0.00    -0.387 OA
ATOM     27  H   UNL     1      -1.631  -2.446   4.546  0.00  0.00    +0.210 HD
ENDBRANCH  25  26
BRANCH  25  28
ATOM     28  C   UNL     1      -0.698  -2.454   1.832  0.00  0.00    +0.175 C 
BRANCH  28  29
ATOM     29  O   UNL     1      -1.860  -2.141   1.050  0.00  0.00    -0.387 OA
ATOM     30  H   UNL     1      -2.184  -2.952   0.622  0.00  0.00    +0.210 HD
ENDBRANCH  28  29
BRANCH  28  31
ATOM     31  C   UNL     1      -0.030  -1.110   2.213  0.00  0.00    +0.172 C 
BRANCH  31  32
ATOM     32  O   UNL     1       1.190  -1.357   2.922  0.00  0.00    -0.387 OA
ATOM     33  H   UNL     1       1.651  -0.494   2.932  0.00  0.00    +0.210 HD
ENDBRANCH  31  32
BRANCH  31  34
ATOM     34  C   UNL     1      -0.896  -0.114   3.005  0.00  0.00    +0.206 C 
BRANCH  34  35
ATOM     35  O   UNL     1      -0.173   1.122   3.158  0.00  0.00    -0.284 OA
BRANCH  35  36
ATOM     36  P   UNL     1      -1.025   2.294   4.103  0.00  0.00    +0.472 P 
ATOM     37  O   UNL     1      -1.788   3.343   4.949  0.00  0.00    -0.228 OA
BRANCH  36  38
ATOM     38  O   UNL     1      -1.205   3.051   2.666  0.00  0.00    -0.303 OA
ATOM     39  H   UNL     1      -0.434   3.643   2.575  0.00  0.00    +0.222 HD
ENDBRANCH  36  38
BRANCH  36  40
ATOM     40  O   UNL     1       0.472   2.910   4.356  0.00  0.00    -0.303 OA
ATOM     41  H   UNL     1       1.042   2.259   4.800  0.00  0.00    +0.222 HD
ENDBRANCH  36  40
ENDBRANCH  35  36
ENDBRANCH  34  35
ENDBRANCH  31  34
ENDBRANCH  28  31
ENDBRANCH  25  28
ENDBRANCH  24  25
ENDBRANCH  10  24
TORSDOF 13
