REMARK  Name = 
REMARK  3 active torsions:
REMARK  status: ('A' for Active; 'I' for Inactive)
REMARK    1  A    between atoms: C_1  and  C_2
REMARK    2  A    between atoms: C_8  and  C_10
REMARK    3  A    between atoms: C_14  and  C_19
REMARK                            x       y       z     vdW  Elec       q    Type
REMARK                         _______ _______ _______ _____ _____    ______ ____
ROOT
ATOM      1  C   UNL     1       5.411  -2.527   0.099  0.00  0.00    +0.139 A 
ATOM      2  N   UNL     1       6.787  -2.582   0.113  0.00  0.00    -0.338 N 
ATOM      3  H   UNL     1       7.335  -1.722   0.123  0.00  0.00    +0.167 HD
ATOM      4  C   UNL     1       7.190  -3.883   0.115  0.00  0.00    +0.067 A 
ATOM      5  C   UNL     1       6.001  -4.594   0.091  0.00  0.00    +0.090 A 
ATOM      6  C   UNL     1       6.052  -5.996   0.078  0.00  0.00    +0.045 A 
ATOM      7  C   UNL     1       7.303  -6.650   0.108  0.00  0.00    +0.063 A 
ATOM      8  C   UNL     1       8.480  -5.874   0.142  0.00  0.00    +0.018 A 
ATOM      9  C   UNL     1       8.449  -4.475   0.135  0.00  0.00    +0.028 A 
ATOM     10  N   UNL     1       4.912  -3.758   0.084  0.00  0.00    -0.228 NA
ENDROOT
BRANCH   1  14
ATOM     11  C   UNL     1       1.046  -0.117   0.080  0.00  0.00    +0.044 C 
ATOM     12  C   UNL     1       2.542  -0.069   0.087  0.00  0.00    -0.049 A 
ATOM     13  C   UNL     1       3.294  -1.243   0.091  0.00  0.00    +0.014 A 
ATOM     14  C   UNL     1       4.709  -1.218   0.098  0.00  0.00    +0.011 A 
ATOM     15  C   UNL     1       5.448   0.023   0.106  0.00  0.00    -0.083 A 
ATOM     16  O   UNL     1       6.736   0.077   0.116  0.00  0.00    -0.872 OA
ATOM     17  C   UNL     1       4.626   1.185   0.100  0.00  0.00    +0.011 A 
ATOM     18 BR   UNL     1       5.388   2.951   0.106  0.00  0.00    -0.051 Br
ATOM     19  C   UNL     1       3.219   1.146   0.092  0.00  0.00    +0.018 A 
ENDBRANCH   1  14
BRANCH   7  20
ATOM     20  C   UNL     1       7.374  -8.122   0.108  0.00  0.00    +0.266 C 
ATOM     21  N   UNL     1       8.379  -8.734  -0.486  0.00  0.00    -0.288 N 
ATOM     22  H   UNL     1       8.471  -9.738  -0.503  0.00  0.00    +0.301 HD
ATOM     23  H   UNL     1       9.087  -8.193  -0.971  0.00  0.00    +0.301 HD
ATOM     24  N   UNL     1       6.433  -8.828   0.699  0.00  0.00    -0.250 N 
ATOM     25  H   UNL     1       6.433  -9.838   0.709  0.00  0.00    +0.288 HD
ATOM     26  H   UNL     1       5.675  -8.358   1.183  0.00  0.00    +0.288 HD
ENDBRANCH   7  20
TORSDOF 2
