REMARK  Name = 
REMARK  7 active torsions:
REMARK  status: ('A' for Active; 'I' for Inactive)
REMARK    1  A    between atoms: O_1  and  C_2
REMARK    2  A    between atoms: C_4  and  C_6
REMARK    3  A    between atoms: C_6  and  O_7
REMARK    4  A    between atoms: O_7  and  P_8
REMARK    5  A    between atoms: P_8  and  O_9
REMARK    6  A    between atoms: P_8  and  O_10
REMARK    7  A    between atoms: C_20  and  O_22
REMARK                            x       y       z     vdW  Elec       q    Type
REMARK                         _______ _______ _______ _____ _____    ______ ____
ROOT
ATOM      1  C   UNL     1       2.305   0.089  -0.049  0.00  0.00    +0.179 C 
ATOM      2  C   UNL     1       2.814  -0.336  -1.415  0.00  0.00    +0.205 C 
ATOM      3  C   UNL     1       4.225   0.274  -1.436  0.00  0.00    +0.244 C 
ATOM      4  C   UNL     1       4.563   0.721  -2.874  0.00  0.00    +0.274 C 
ATOM      5  O   UNL     1       4.065   1.657  -3.483  0.00  0.00    -0.270 OA
ATOM      6  N   UNL     1       5.526  -0.114  -3.354  0.00  0.00    -0.236 N 
ATOM      7  H   UNL     1       5.963  -0.018  -4.252  0.00  0.00    +0.159 HD
ATOM      8  C   UNL     1       6.016  -0.886  -2.356  0.00  0.00    +0.308 C 
ATOM      9  O   UNL     1       6.997  -1.604  -2.425  0.00  0.00    -0.252 OA
ATOM     10  N   UNL     1       5.268  -0.690  -1.220  0.00  0.00    -0.261 N 
ATOM     11  H   UNL     1       5.611  -0.986  -0.316  0.00  0.00    +0.154 HD
ATOM     12  O   UNL     1       4.321   1.266  -0.429  0.00  0.00    -0.338 OA
ATOM     13  C   UNL     1       3.006   1.431   0.135  0.00  0.00    +0.179 C 
ENDROOT
BRANCH   1  14
ATOM     14  O   UNL     1       0.890   0.218  -0.026  0.00  0.00    -0.386 OA
ATOM     15  H   UNL     1       0.608   0.352   0.895  0.00  0.00    +0.210 HD
ENDBRANCH   1  14
BRANCH   2  16
ATOM     16  O   UNL     1       2.790  -1.761  -1.570  0.00  0.00    -0.384 OA
ATOM     17  H   UNL     1       3.573  -2.124  -1.116  0.00  0.00    +0.210 HD
ENDBRANCH   2  16
BRANCH  13  18
ATOM     18  C   UNL     1       3.106   1.851   1.596  0.00  0.00    +0.206 C 
BRANCH  18  19
ATOM     19  O   UNL     1       3.715   0.797   2.327  0.00  0.00    -0.284 OA
BRANCH  19  20
ATOM     20  P   UNL     1       4.013   1.033   3.880  0.00  0.00    +0.472 P 
ATOM     21  O   UNL     1       3.033   1.888   4.602  0.00  0.00    -0.228 OA
BRANCH  20  22
ATOM     22  O   UNL     1       5.522   1.533   3.883  0.00  0.00    -0.303 OA
ATOM     23  H   UNL     1       5.624   2.464   3.624  0.00  0.00    +0.222 HD
ENDBRANCH  20  22
BRANCH  20  24
ATOM     24  O   UNL     1       4.125  -0.470   4.398  0.00  0.00    -0.303 OA
ATOM     25  H   UNL     1       3.265  -0.924   4.388  0.00  0.00    +0.222 HD
ENDBRANCH  20  24
ENDBRANCH  19  20
ENDBRANCH  18  19
ENDBRANCH  13  18
TORSDOF 7
