REMARK  Name = 
REMARK  12 active torsions:
REMARK  status: ('A' for Active; 'I' for Inactive)
REMARK    1  A    between atoms: O_1  and  C_2
REMARK    2  A    between atoms: C_4  and  O_6
REMARK    3  A    between atoms: C_7  and  C_9
REMARK    4  A    between atoms: C_9  and  C_10
REMARK    5  A    between atoms: N_16  and  C_17
REMARK    6  A    between atoms: C_17  and  C_18
REMARK    7  A    between atoms: C_22  and  C_24
REMARK    8  A    between atoms: N_34  and  C_35
REMARK    9  A    between atoms: C_35  and  C_36
REMARK   10  A    between atoms: C_40  and  C_42
REMARK   11  A    between atoms: C_50  and  C_52
REMARK   12  A    between atoms: C_52  and  C_53
REMARK                            x       y       z     vdW  Elec       q    Type
REMARK                         _______ _______ _______ _____ _____    ______ ____
ROOT
ATOM      1  C   UNL     1       2.293  -0.368   0.008  0.00  0.00    +0.165 C 
ATOM      2  C   UNL     1       2.855   0.868  -0.719  0.00  0.00    +0.113 C 
ATOM      3  N   UNL     1       4.286   1.102  -0.284  0.00  0.00    -0.275 N 
ATOM      4  C   UNL     1       5.409   0.315  -0.611  0.00  0.00    +0.306 C 
ATOM      5  O   UNL     1       6.551   0.615  -0.262  0.00  0.00    -0.252 OA
ATOM      6  N   UNL     1       5.195  -0.940  -1.172  0.00  0.00    -0.275 N 
ATOM      7  C   UNL     1       4.422  -1.862  -0.295  0.00  0.00    +0.113 C 
ATOM      8  C   UNL     1       2.871  -1.734  -0.424  0.00  0.00    +0.165 C 
ENDROOT
BRANCH   1   9
ATOM      9  O   UNL     1       2.455  -0.196   1.431  0.00  0.00    -0.387 OA
ATOM     10  H   UNL     1       3.390   0.024   1.597  0.00  0.00    +0.210 HD
ENDBRANCH   1   9
BRANCH   8  11
ATOM     11  O   UNL     1       2.430  -2.090  -1.735  0.00  0.00    -0.387 OA
ATOM     12  H   UNL     1       1.465  -1.947  -1.767  0.00  0.00    +0.210 HD
ENDBRANCH   8  11
BRANCH   2  13
ATOM     13  C   UNL     1       2.635   0.922  -2.256  0.00  0.00    +0.060 C 
BRANCH  13  14
ATOM     14  C   UNL     1       1.247   0.929  -2.898  0.00  0.00    -0.046 A 
ATOM     15  C   UNL     1       1.041   0.173  -4.073  0.00  0.00    +0.004 A 
ATOM     16  C   UNL     1      -0.099   0.344  -4.871  0.00  0.00    +0.000 A 
ATOM     17  C   UNL     1      -1.066   1.272  -4.506  0.00  0.00    +0.000 A 
ATOM     18  C   UNL     1      -0.910   1.990  -3.321  0.00  0.00    +0.000 A 
ATOM     19  C   UNL     1       0.233   1.819  -2.519  0.00  0.00    +0.004 A 
ENDBRANCH  13  14
ENDBRANCH   2  13
BRANCH   3  20
ATOM     20  C   UNL     1       4.489   2.230   0.673  0.00  0.00    +0.144 C 
BRANCH  20  21
ATOM     21  C   UNL     1       4.848   3.545   0.019  0.00  0.00    -0.029 A 
ATOM     22  C   UNL     1       6.017   3.628  -0.749  0.00  0.00    +0.018 A 
ATOM     23  C   UNL     1       6.330   4.772  -1.479  0.00  0.00    +0.037 A 
ATOM     24  C   UNL     1       5.485   5.882  -1.394  0.00  0.00    +0.013 A 
ATOM     25  C   UNL     1       4.373   5.858  -0.551  0.00  0.00    +0.001 A 
ATOM     26  C   UNL     1       4.058   4.696   0.160  0.00  0.00    +0.005 A 
BRANCH  23  27
ATOM     27  C   UNL     1       7.486   4.823  -2.417  0.00  0.00    +0.250 C 
ATOM     28  N   UNL     1       8.471   3.867  -2.245  0.00  0.00    -0.261 N 
ATOM     29  H   UNL     1       8.471   3.211  -1.483  0.00  0.00    +0.157 HD
ATOM     30  C   UNL     1       9.552   3.808  -3.078  0.00  0.00    +0.165 A 
ATOM     31  S   UNL     1      10.751   2.680  -2.612  0.00  0.00    -0.061 S 
ATOM     32  C   UNL     1      11.719   3.205  -3.931  0.00  0.00    +0.068 A 
ATOM     33  C   UNL     1      11.044   4.155  -4.655  0.00  0.00    +0.120 A 
ATOM     34  N   UNL     1       9.798   4.495  -4.165  0.00  0.00    -0.233 NA
ATOM     35  O   UNL     1       7.512   5.726  -3.240  0.00  0.00    -0.270 OA
ENDBRANCH  23  27
ENDBRANCH  20  21
ENDBRANCH   3  20
BRANCH   6  36
ATOM     36  C   UNL     1       5.384  -1.149  -2.646  0.00  0.00    +0.144 C 
BRANCH  36  37
ATOM     37  C   UNL     1       6.588  -1.782  -3.402  0.00  0.00    -0.029 A 
ATOM     38  C   UNL     1       7.405  -2.869  -3.023  0.00  0.00    +0.018 A 
ATOM     39  C   UNL     1       8.344  -3.454  -3.935  0.00  0.00    +0.037 A 
ATOM     40  C   UNL     1       8.483  -2.955  -5.235  0.00  0.00    +0.013 A 
ATOM     41  C   UNL     1       7.689  -1.898  -5.641  0.00  0.00    +0.001 A 
ATOM     42  C   UNL     1       6.763  -1.334  -4.746  0.00  0.00    +0.005 A 
BRANCH  39  43
ATOM     43  C   UNL     1       9.214  -4.641  -3.632  0.00  0.00    +0.250 C 
ATOM     44  N   UNL     1       8.589  -5.651  -2.940  0.00  0.00    -0.261 N 
ATOM     45  H   UNL     1       7.605  -5.598  -2.733  0.00  0.00    +0.157 HD
ATOM     46  C   UNL     1       9.198  -6.855  -2.693  0.00  0.00    +0.165 A 
ATOM     47  S   UNL     1       8.147  -8.040  -2.047  0.00  0.00    -0.061 S 
ATOM     48  C   UNL     1       9.447  -9.162  -2.030  0.00  0.00    +0.068 A 
ATOM     49  C   UNL     1      10.588  -8.547  -2.501  0.00  0.00    +0.120 A 
ATOM     50  N   UNL     1      10.438  -7.227  -2.881  0.00  0.00    -0.233 NA
ATOM     51  O   UNL     1      10.348  -4.665  -4.098  0.00  0.00    -0.270 OA
ENDBRANCH  39  43
ENDBRANCH  36  37
ENDBRANCH   6  36
BRANCH   7  52
ATOM     52  C   UNL     1       4.956  -3.311  -0.334  0.00  0.00    +0.060 C 
BRANCH  52  53
ATOM     53  C   UNL     1       4.424  -4.201   0.775  0.00  0.00    -0.046 A 
ATOM     54  C   UNL     1       4.998  -4.199   2.056  0.00  0.00    +0.004 A 
ATOM     55  C   UNL     1       4.456  -4.983   3.082  0.00  0.00    +0.000 A 
ATOM     56  C   UNL     1       3.331  -5.768   2.841  0.00  0.00    +0.000 A 
ATOM     57  C   UNL     1       2.762  -5.792   1.571  0.00  0.00    +0.000 A 
ATOM     58  C   UNL     1       3.312  -5.023   0.541  0.00  0.00    +0.004 A 
ENDBRANCH  52  53
ENDBRANCH   7  52
TORSDOF 12
