REMARK  Name = 
REMARK  3 active torsions:
REMARK  status: ('A' for Active; 'I' for Inactive)
REMARK    1  A    between atoms: N_8  and  C_9
REMARK    2  A    between atoms: P_16  and  O_17
REMARK    3  A    between atoms: C_22  and  O_24
REMARK                            x       y       z     vdW  Elec       q    Type
REMARK                         _______ _______ _______ _____ _____    ______ ____
ROOT
ATOM      1  N   UNL     1       9.429  -5.608  -3.400  0.00  0.00    -0.329 N 
ATOM      2  H   UNL     1       9.828  -5.727  -4.322  0.00  0.00    +0.145 HD
ATOM      3  H   UNL     1       9.867  -4.844  -2.891  0.00  0.00    +0.145 HD
ATOM      4  C   UNL     1       8.078  -5.554  -3.329  0.00  0.00    +0.195 A 
ATOM      5  N   UNL     1       7.387  -6.330  -4.239  0.00  0.00    -0.293 N 
ATOM      6  H   UNL     1       7.886  -6.980  -4.821  0.00  0.00    +0.172 HD
ATOM      7  C   UNL     1       6.002  -6.404  -4.324  0.00  0.00    +0.280 A 
ATOM      8  O   UNL     1       5.440  -7.202  -5.067  0.00  0.00    -0.265 OA
ATOM      9  C   UNL     1       5.349  -5.498  -3.402  0.00  0.00    +0.172 A 
ATOM     10  N   UNL     1       4.018  -5.254  -3.171  0.00  0.00    -0.229 NA
ATOM     11  C   UNL     1       4.011  -4.452  -2.120  0.00  0.00    +0.203 A 
ATOM     12  N   UNL     1       5.270  -4.246  -1.624  0.00  0.00    -0.285 N 
ATOM     13  C   UNL     1       6.145  -4.800  -2.526  0.00  0.00    +0.171 A 
ATOM     14  N   UNL     1       7.498  -4.789  -2.441  0.00  0.00    -0.196 NA
ENDROOT
BRANCH  12  15
ATOM     15  C   UNL     1       5.630  -3.956  -0.240  0.00  0.00    +0.253 C 
ATOM     16  C   UNL     1       5.873  -5.277   0.507  0.00  0.00    +0.196 C 
ATOM     17  C   UNL     1       4.514  -5.523   1.135  0.00  0.00    +0.194 C 
ATOM     18  C   UNL     1       4.107  -4.112   1.540  0.00  0.00    +0.179 C 
ATOM     19  C   UNL     1       4.717  -3.649   2.876  0.00  0.00    +0.206 C 
ATOM     20  O   UNL     1       4.914  -4.675   3.836  0.00  0.00    -0.284 OA
ATOM     21  P   UNL     1       4.228  -6.103   3.636  0.00  0.00    +0.475 P 
ATOM     22  O   UNL     1       4.531  -7.147   4.653  0.00  0.00    -0.227 OA
ATOM     23  O   UNL     1       4.600  -6.507   2.135  0.00  0.00    -0.278 OA
ATOM     24  O   UNL     1       4.536  -3.273   0.441  0.00  0.00    -0.346 OA
BRANCH  16  25
ATOM     25  O   UNL     1       6.880  -5.123   1.515  0.00  0.00    -0.385 OA
ATOM     26  H   UNL     1       6.945  -5.982   1.975  0.00  0.00    +0.210 HD
ENDBRANCH  16  25
BRANCH  21  27
ATOM     27  O   UNL     1       2.666  -5.775   3.517  0.00  0.00    -0.302 OA
ATOM     28  H   UNL     1       2.144  -6.595   3.607  0.00  0.00    +0.222 HD
ENDBRANCH  21  27
ENDBRANCH  12  15
TORSDOF 3
