REMARK  Name = 
REMARK  4 active torsions:
REMARK  status: ('A' for Active; 'I' for Inactive)
REMARK    1  A    between atoms: C_1  and  C_2
REMARK    2  A    between atoms: C_2  and  O_4
REMARK    3  A    between atoms: C_2  and  C_5
REMARK    4  A    between atoms: C_5  and  N_6
REMARK                            x       y       z     vdW  Elec       q    Type
REMARK                         _______ _______ _______ _____ _____    ______ ____
ROOT
ATOM      1  N   UNL     1       4.522   0.974   0.846  0.00  0.00    -0.312 N 
ATOM      2  C   UNL     1       5.364  -0.103   0.847  0.00  0.00    +0.165 A 
ATOM      3  N   UNL     1       5.039  -1.405   0.897  0.00  0.00    -0.216 NA
ATOM      4  C   UNL     1       6.146  -2.175   0.883  0.00  0.00    +0.225 A 
ATOM      5  N   UNL     1       7.439  -1.787   0.823  0.00  0.00    -0.219 NA
ATOM      6  C   UNL     1       7.710  -0.464   0.754  0.00  0.00    +0.147 A 
ATOM      7  N   UNL     1       9.038  -0.068   0.668  0.00  0.00    -0.341 N 
ATOM      8  H   UNL     1       9.195   0.892   0.953  0.00  0.00    +0.144 HD
ATOM      9  H   UNL     1       9.675  -0.776   1.006  0.00  0.00    +0.144 HD
ATOM     10  C   UNL     1       6.637   0.443   0.787  0.00  0.00    +0.147 A 
ATOM     11  N   UNL     1       6.579   1.823   0.780  0.00  0.00    -0.231 NA
ATOM     12  C   UNL     1       5.293   2.105   0.809  0.00  0.00    +0.201 A 
ENDROOT
BRANCH   1  13
ATOM     13  C   UNL     1       3.079   0.933   0.829  0.00  0.00    +0.155 C 
BRANCH  13  15
ATOM     14  C   UNL     1       2.768   0.982   3.358  0.00  0.00    +0.039 C 
ATOM     15  C   UNL     1       2.435   0.271   2.052  0.00  0.00    +0.131 C 
BRANCH  15  16
ATOM     16  O   UNL     1       1.015   0.303   1.874  0.00  0.00    -0.390 OA
ATOM     17  H   UNL     1       0.622  -0.253   2.569  0.00  0.00    +0.210 HD
ENDBRANCH  15  16
ENDBRANCH  13  15
ENDBRANCH   1  13
TORSDOF 3
