REMARK  Name = 
REMARK  9 active torsions:
REMARK  status: ('A' for Active; 'I' for Inactive)
REMARK    1  A    between atoms: C_1  and  C_2
REMARK    2  A    between atoms: C_2  and  C_3
REMARK    3  A    between atoms: C_6  and  C_7
REMARK    4  A    between atoms: C_6  and  C_8
REMARK    5  A    between atoms: C_11  and  C_15
REMARK    6  A    between atoms: C_15  and  C_18
REMARK    7  A    between atoms: N_16  and  O_17
REMARK    8  A    between atoms: C_23  and  C_28
REMARK    9  A    between atoms: C_28  and  O_29
REMARK                            x       y       z     vdW  Elec       q    Type
REMARK                         _______ _______ _______ _____ _____    ______ ____
ROOT
ATOM      1  C   UNL     1       4.225   3.062   4.672  0.00  0.00    +0.117 C 
ATOM      2  N   UNL     1       4.589   4.318   4.703  0.00  0.00    -0.086 NA
ENDROOT
BRANCH   1   8
ATOM      3  C   UNL     1       0.868   0.028  -0.039  0.00  0.00    +0.016 C 
ATOM      4  C   UNL     1       2.412  -0.024  -0.025  0.00  0.00    -0.010 C 
ATOM      5  C   UNL     1       2.929   0.742   1.201  0.00  0.00    -0.038 A 
ATOM      6  C   UNL     1       3.544   0.099   2.296  0.00  0.00    -0.037 A 
ATOM      7  C   UNL     1       4.072   0.898   3.343  0.00  0.00    +0.014 A 
ATOM      8  C   UNL     1       3.832   2.278   3.434  0.00  0.00    +0.004 A 
ATOM      9  C   UNL     1       3.149   2.884   2.383  0.00  0.00    +0.010 A 
ATOM     10  C   UNL     1       3.618  -1.432   2.411  0.00  0.00    -0.010 C 
ATOM     11  C   UNL     1       5.079  -1.899   2.262  0.00  0.00    +0.016 C 
ATOM     12  C   UNL     1       3.090  -1.904   3.790  0.00  0.00    +0.016 C 
ATOM     13  C   UNL     1       2.731  -2.129   1.354  0.00  0.00    +0.012 C 
ATOM     14  C   UNL     1       2.746   2.138   1.270  0.00  0.00    +0.005 A 
ATOM     15  C   UNL     1       2.884  -1.495  -0.018  0.00  0.00    +0.012 C 
ATOM     16  C   UNL     1       2.933   0.598  -1.341  0.00  0.00    +0.016 C 
ENDBRANCH   1   8
BRANCH   1  17
ATOM     17  C   UNL     1       4.223   2.372   6.022  0.00  0.00    +0.005 A 
ATOM     18  C   UNL     1       3.407   1.272   6.313  0.00  0.00    +0.018 A 
ATOM     19  C   UNL     1       3.545   0.567   7.522  0.00  0.00    -0.017 A 
ATOM     20  C   UNL     1       4.437   1.042   8.512  0.00  0.00    -0.017 A 
ATOM     21  C   UNL     1       4.575   0.335   9.719  0.00  0.00    +0.023 A 
ATOM     22  C   UNL     1       3.859  -0.852   9.928  0.00  0.00    +0.059 A 
ATOM     23  C   UNL     1       3.013  -1.342   8.931  0.00  0.00    +0.015 A 
ATOM     24  C   UNL     1       5.187   2.197   8.252  0.00  0.00    +0.009 A 
ATOM     25  C   UNL     1       2.842  -0.626   7.746  0.00  0.00    +0.009 A 
ATOM     26  C   UNL     1       5.094   2.841   7.015  0.00  0.00    +0.011 A 
BRANCH  22  27
ATOM     27  C   UNL     1       4.021  -1.656  11.162  0.00  0.00    +0.337 C 
ATOM     28  O   UNL     1       3.986  -2.873  11.172  0.00  0.00    -0.245 OA
BRANCH  27  29
ATOM     29  O   UNL     1       4.154  -0.908  12.279  0.00  0.00    -0.477 OA
ATOM     30  H   UNL     1       3.977   0.044  12.163  0.00  0.00    +0.295 HD
ENDBRANCH  27  29
ENDBRANCH  22  27
ENDBRANCH   1  17
BRANCH   2  31
ATOM     31  O   UNL     1       4.705   4.930   3.458  0.00  0.00    -0.409 OA
ATOM     32  H   UNL     1       4.918   5.850   3.701  0.00  0.00    +0.328 HD
ENDBRANCH   2  31
TORSDOF 5
