REMARK  Name = 
REMARK  11 active torsions:
REMARK  status: ('A' for Active; 'I' for Inactive)
REMARK    1  A    between atoms: O_1  and  C_2
REMARK    2  A    between atoms: C_2  and  C_4
REMARK    3  A    between atoms: C_4  and  C_5
REMARK    4  A    between atoms: C_5  and  C_6
REMARK    5  A    between atoms: C_6  and  C_7
REMARK    6  A    between atoms: C_7  and  C_8
REMARK    7  A    between atoms: C_8  and  C_9
REMARK    8  A    between atoms: C_9  and  C_11
REMARK    9  A    between atoms: C_11  and  C_12
REMARK   10  A    between atoms: C_12  and  C_13
REMARK   11  A    between atoms: C_13  and  O_14
REMARK                            x       y       z     vdW  Elec       q    Type
REMARK                         _______ _______ _______ _____ _____    ______ ____
ROOT
ATOM      1  C   UNL     1       7.653  -3.336   0.875  0.00  0.00    +0.074 C 
ENDROOT
BRANCH   1   2
ATOM      2  C   UNL     1       9.141  -3.040   0.850  0.00  0.00    +0.134 C 
ATOM      3  O   UNL     1       9.653  -2.233   0.071  0.00  0.00    -0.297 OA
BRANCH   2   4
ATOM      4  C   UNL     1      10.057  -3.884   1.699  0.00  0.00    +0.085 C 
BRANCH   4   5
ATOM      5  C   UNL     1      10.476  -5.137   0.955  0.00  0.00    +0.128 C 
BRANCH   5   6
ATOM      6  C   UNL     1      11.383  -4.997  -0.252  0.00  0.00    +0.305 C 
ATOM      7  O   UNL     1      11.859  -5.989  -0.793  0.00  0.00    -0.251 OA
BRANCH   6   8
ATOM      8  O   UNL     1      11.635  -3.768  -0.725  0.00  0.00    -0.481 OA
ATOM      9  H   UNL     1      11.115  -3.004  -0.386  0.00  0.00    +0.295 HD
ENDBRANCH   6   8
ENDBRANCH   5   6
ENDBRANCH   4   5
ENDBRANCH   2   4
ENDBRANCH   1   2
BRANCH   1  10
ATOM     10  C   UNL     1       6.843  -2.093   0.524  0.00  0.00    +0.007 C 
BRANCH  10  11
ATOM     11  C   UNL     1       5.336  -2.347   0.590  0.00  0.00    +0.001 C 
BRANCH  11  12
ATOM     12  C   UNL     1       4.564  -1.066   0.267  0.00  0.00    +0.011 C 
BRANCH  12  13
ATOM     13  C   UNL     1       3.052  -1.272   0.322  0.00  0.00    +0.120 C 
BRANCH  13  14
ATOM     14  C   UNL     1       2.309   0.009   0.009  0.00  0.00    +0.305 C 
ATOM     15  O   UNL     1       2.827   1.085  -0.242  0.00  0.00    -0.251 OA
BRANCH  14  16
ATOM     16  O   UNL     1       0.966  -0.155   0.039  0.00  0.00    -0.481 OA
ATOM     17  H   UNL     1       0.684  -1.064   0.252  0.00  0.00    +0.295 HD
ENDBRANCH  14  16
ENDBRANCH  13  14
ENDBRANCH  12  13
ENDBRANCH  11  12
ENDBRANCH  10  11
ENDBRANCH   1  10
TORSDOF 11
