REMARK  Name = 
REMARK  2 active torsions:
REMARK  status: ('A' for Active; 'I' for Inactive)
REMARK    1  A    between atoms: O_1  and  S_2
REMARK    2  A    between atoms: S_2  and  C_5
REMARK                            x       y       z     vdW  Elec       q    Type
REMARK                         _______ _______ _______ _____ _____    ______ ____
ROOT
ATOM      1  C   UNL     1       3.269  -1.340   1.042  0.00  0.00    +0.118 A 
ATOM      2  C   UNL     1       4.027  -0.718   2.029  0.00  0.00    +0.040 A 
ATOM      3  C   UNL     1       4.276  -1.398   3.204  0.00  0.00    +0.012 A 
ATOM      4  C   UNL     1       3.967  -2.754   3.298  0.00  0.00    +0.042 A 
ATOM      5  N   UNL     1       4.455  -3.268   4.500  0.00  0.00    -0.281 N 
ATOM      6  H   UNL     1       4.394  -4.232   4.794  0.00  0.00    +0.155 HD
ATOM      7  C   UNL     1       5.082  -2.280   5.261  0.00  0.00    +0.251 C 
ATOM      8  O   UNL     1       5.639  -2.411   6.334  0.00  0.00    -0.270 OA
ATOM      9  C   UNL     1       3.297  -3.426   2.287  0.00  0.00    +0.026 A 
ATOM     10  C   UNL     1       4.896  -1.012   4.474  0.00  0.00    +0.071 C 
ATOM     11  C   UNL     1       5.174   0.216   4.944  0.00  0.00    +0.092 C 
ATOM     12  C   UNL     1       4.730   1.447   4.198  0.00  0.00    +0.210 C 
ATOM     13  O   UNL     1       3.796   1.636   3.442  0.00  0.00    -0.285 OA
ATOM     14  C   UNL     1       5.547   2.527   4.710  0.00  0.00    +0.045 A 
ATOM     15  C   UNL     1       6.187   2.033   5.846  0.00  0.00    +0.042 A 
ATOM     16  C   UNL     1       6.881   2.924   6.629  0.00  0.00    +0.024 A 
ATOM     17  C   UNL     1       6.980   4.265   6.190  0.00  0.00    +0.002 A 
ATOM     18  C   UNL     1       6.388   4.700   4.986  0.00  0.00    +0.001 A 
ATOM     19  C   UNL     1       5.641   3.817   4.226  0.00  0.00    +0.013 A 
ATOM     20  N   UNL     1       5.867   0.681   6.058  0.00  0.00    -0.310 N 
ATOM     21  H   UNL     1       6.459   0.048   6.580  0.00  0.00    +0.152 HD
ATOM     22  C   UNL     1       2.907  -2.692   1.155  0.00  0.00    +0.031 A 
ENDROOT
BRANCH   1  23
ATOM     23  S   UNL     1       2.709  -0.318  -0.296  0.00  0.00    +0.110 S 
ATOM     24  O   UNL     1       3.855   0.389  -0.826  0.00  0.00    -0.142 OA
ATOM     25  O   UNL     1       1.842  -1.106  -1.143  0.00  0.00    -0.142 OA
BRANCH  23  26
ATOM     26  O   UNL     1       1.786   0.797   0.420  0.00  0.00    -0.250 OA
ATOM     27  H   UNL     1       2.018   1.678   0.061  0.00  0.00    +0.245 HD
ENDBRANCH  23  26
ENDBRANCH   1  23
TORSDOF 2
