REMARK  Name = 
REMARK  6 active torsions:
REMARK  status: ('A' for Active; 'I' for Inactive)
REMARK    1  A    between atoms: C_1  and  C_2
REMARK    2  A    between atoms: C_2  and  C_4
REMARK    3  A    between atoms: C_2  and  O_16
REMARK    4  A    between atoms: C_4  and  N_5
REMARK    5  A    between atoms: O_16  and  C_17
REMARK    6  A    between atoms: C_17  and  P_18
REMARK                            x       y       z     vdW  Elec       q    Type
REMARK                         _______ _______ _______ _____ _____    ______ ____
ROOT
ATOM      1  N   UNL     1       2.713   2.581  -0.177  0.00  0.00    -0.312 N 
ATOM      2  C   UNL     1       3.433   3.752  -0.145  0.00  0.00    +0.167 A 
ATOM      3  N   UNL     1       4.625   3.985   0.444  0.00  0.00    -0.195 NA
ATOM      4  C   UNL     1       5.065   5.227   0.195  0.00  0.00    +0.216 A 
ATOM      5  N   UNL     1       4.454   6.186  -0.526  0.00  0.00    -0.198 NA
ATOM      6  C   UNL     1       3.234   5.925  -1.055  0.00  0.00    +0.149 A 
ATOM      7  N   UNL     1       2.611   6.918  -1.817  0.00  0.00    -0.341 N 
ATOM      8  H   UNL     1       1.936   6.488  -2.446  0.00  0.00    +0.144 HD
ATOM      9  H   UNL     1       3.315   7.494  -2.258  0.00  0.00    +0.144 HD
ATOM     10  N   UNL     1       6.334   5.526   0.667  0.00  0.00    -0.327 N 
ATOM     11  H   UNL     1       6.736   6.204   0.032  0.00  0.00    +0.145 HD
ATOM     12  H   UNL     1       6.832   4.645   0.745  0.00  0.00    +0.145 HD
ATOM     13  C   UNL     1       2.678   4.651  -0.870  0.00  0.00    +0.147 A 
ATOM     14  N   UNL     1       1.493   4.085  -1.290  0.00  0.00    -0.231 NA
ATOM     15  C   UNL     1       1.571   2.830  -0.890  0.00  0.00    +0.201 A 
ENDROOT
BRANCH   1  16
ATOM     16  C   UNL     1       3.082   1.371   0.525  0.00  0.00    +0.156 C 
BRANCH  16  18
ATOM     17  C   UNL     1       2.961  -1.077   0.948  0.00  0.00    +0.040 C 
ATOM     18  C   UNL     1       2.571   0.035  -0.037  0.00  0.00    +0.135 C 
BRANCH  18  19
ATOM     19  O   UNL     1       3.131  -0.196  -1.329  0.00  0.00    -0.368 OA
BRANCH  19  20
ATOM     20  C   UNL     1       2.685  -1.455  -1.887  0.00  0.00    +0.229 C 
BRANCH  20  21
ATOM     21  P   UNL     1       3.049  -1.673  -3.731  0.00  0.00    +0.134 P 
ATOM     22  O   UNL     1       4.486  -1.194  -3.909  0.00  0.00    -0.458 OA
ATOM     23  O   UNL     1       1.972  -0.824  -4.403  0.00  0.00    -0.356 OA
ATOM     24  O   UNL     1       2.856  -3.179  -3.892  0.00  0.00    -0.356 OA
ENDBRANCH  20  21
ENDBRANCH  19  20
ENDBRANCH  18  19
ENDBRANCH  16  18
ENDBRANCH   1  16
TORSDOF 5
