REMARK  Name = 
REMARK  6 active torsions:
REMARK  status: ('A' for Active; 'I' for Inactive)
REMARK    1  A    between atoms: C_1  and  C_2
REMARK    2  A    between atoms: C_2  and  C_3
REMARK    3  A    between atoms: C_3  and  C_4
REMARK    4  A    between atoms: C_4  and  C_5
REMARK    5  A    between atoms: C_5  and  C_6
REMARK    6  A    between atoms: C_6  and  C_7
REMARK                            x       y       z     vdW  Elec       q    Type
REMARK                         _______ _______ _______ _____ _____    ______ ____
ROOT
ATOM      1  C   UNL     1       4.562   1.831   3.544  0.00  0.00    +0.095 C 
ENDROOT
BRANCH   1   2
ATOM      2  C   UNL     1       5.083   2.859   4.522  0.00  0.00    +0.210 C 
ATOM      3  O   UNL     1       5.809   3.801   4.234  0.00  0.00    -0.276 OA
ATOM      4  N   UNL     1       4.660   2.659   5.806  0.00  0.00    -0.329 N 
ATOM      5  H   UNL     1       4.948   3.328   6.507  0.00  0.00    +0.145 HD
ATOM      6  H   UNL     1       4.028   1.916   6.071  0.00  0.00    +0.145 HD
ENDBRANCH   1   2
BRANCH   1   7
ATOM      7  C   UNL     1       5.009   2.098   2.107  0.00  0.00    +0.009 C 
BRANCH   7   8
ATOM      8  C   UNL     1       4.493   1.050   1.114  0.00  0.00    +0.000 C 
BRANCH   8   9
ATOM      9  C   UNL     1       2.966   1.015   1.032  0.00  0.00    -0.000 C 
BRANCH   9  11
ATOM     10  C   UNL     1       0.940  -0.056   0.020  0.00  0.00    +0.004 C 
ATOM     11  C   UNL     1       2.460  -0.026   0.035  0.00  0.00    -0.003 C 
ENDBRANCH   9  11
ENDBRANCH   8   9
ENDBRANCH   7   8
ENDBRANCH   1   7
TORSDOF 5
