REMARK  Name = 
REMARK  5 active torsions:
REMARK  status: ('A' for Active; 'I' for Inactive)
REMARK    1  A    between atoms: CB_1  and  CA_2
REMARK    2  A    between atoms: CA_2  and  N_4
REMARK    3  A    between atoms: CA_2  and  C_8
REMARK    4  A    between atoms: C_5  and  C_6
REMARK    5  A    between atoms: C_8  and  O_9
REMARK                            x       y       z     vdW  Elec       q    Type
REMARK                         _______ _______ _______ _____ _____    ______ ____
ROOT
ATOM      1  CB  ALA A   1       0.914  -0.124  -0.037  0.00  0.00    +0.040 C 
ATOM      2  CA  ALA A   1       2.431   0.017   0.008  0.00  0.00    +0.178 C 
ENDROOT
BRANCH   2   3
ATOM      3  N   ALA A   1       2.898   0.396   1.340  0.00  0.00    -0.303 N 
ATOM      4  H   ALA A   1       3.576  -0.228   1.772  0.00  0.00    +0.149 HD
ATOM      5  C   UNK A   0       2.676   1.634   1.885  0.00  0.00    +0.211 C 
ATOM      6  O   UNK A   0       2.026   2.511   1.326  0.00  0.00    -0.276 OA
ATOM      7  C   UNK A   0       3.315   1.838   3.232  0.00  0.00    +0.109 C 
ENDBRANCH   2   3
BRANCH   2   8
ATOM      8  C   ALA A   1       3.118  -1.309  -0.352  0.00  0.00    +0.325 C 
ATOM      9  OXT ALA A   1       3.894  -1.892   0.400  0.00  0.00    -0.249 OA
BRANCH   8  10
ATOM     10  O   ALA A   1       2.837  -1.779  -1.587  0.00  0.00    -0.479 OA
ATOM     11  H   ALA A   1       2.236  -1.220  -2.115  0.00  0.00    +0.295 HD
ENDBRANCH   8  10
ENDBRANCH   2   8
TORSDOF 3
