REMARK  Name = 
REMARK  11 active torsions:
REMARK  status: ('A' for Active; 'I' for Inactive)
REMARK    1  A    between atoms: C_1  and  C_2
REMARK    2  A    between atoms: C_2  and  C_3
REMARK    3  A    between atoms: C_3  and  C_4
REMARK    4  A    between atoms: C_4  and  N_5
REMARK    5  A    between atoms: C_6  and  C_7
REMARK    6  A    between atoms: C_7  and  C_8
REMARK    7  A    between atoms: C_10  and  O_11
REMARK    8  A    between atoms: O_11  and  C_12
REMARK    9  A    between atoms: C_15  and  O_16
REMARK   10  A    between atoms: O_16  and  C_17
REMARK   11  A    between atoms: C_20  and  N_21
REMARK                            x       y       z     vdW  Elec       q    Type
REMARK                         _______ _______ _______ _____ _____    ______ ____
ROOT
ATOM      1  N   UNL     1       4.598   2.611   1.908  0.00  0.00    -0.312 N 
ATOM      2  C   UNL     1       5.611   2.875   2.796  0.00  0.00    +0.166 A 
ATOM      3  C   UNL     1       5.754   4.253   2.760  0.00  0.00    +0.148 A 
ATOM      4  C   UNL     1       6.597   4.813   3.731  0.00  0.00    +0.147 A 
ATOM      5  N   UNL     1       7.321   3.978   4.515  0.00  0.00    -0.219 NA
ATOM      6  C   UNL     1       7.141   2.647   4.378  0.00  0.00    +0.225 A 
ATOM      7  N   UNL     1       5.007   4.782   1.723  0.00  0.00    -0.227 NA
ATOM      8  N   UNL     1       6.274   2.002   3.577  0.00  0.00    -0.216 NA
ATOM      9  C   UNL     1       4.436   3.738   1.127  0.00  0.00    +0.116 A 
ENDROOT
BRANCH   4  10
ATOM     10  N   UNL     1       6.738   6.173   3.944  0.00  0.00    -0.341 N 
ATOM     11  H   UNL     1       7.554   6.426   4.482  0.00  0.00    +0.144 HD
ATOM     12  H   UNL     1       6.428   6.772   3.191  0.00  0.00    +0.144 HD
ENDBRANCH   4  10
BRANCH   1  13
ATOM     13  C   UNL     1       3.890   1.353   1.838  0.00  0.00    +0.125 C 
BRANCH  13  14
ATOM     14  C   UNL     1       3.189   0.916   3.139  0.00  0.00    +0.021 C 
BRANCH  14  16
ATOM     15  C   UNL     1       2.131   3.105   4.015  0.00  0.00    +0.004 C 
ATOM     16  C   UNL     1       1.919   1.675   3.545  0.00  0.00    -0.002 C 
ENDBRANCH  14  16
ENDBRANCH  13  14
ENDBRANCH   1  13
BRANCH   9  17
ATOM     17  C   UNL     1       3.782   3.764  -0.236  0.00  0.00    +0.113 C 
BRANCH  17  18
ATOM     18  C   UNL     1       4.653   3.342  -1.416  0.00  0.00    +0.005 A 
ATOM     19  C   UNL     1       4.145   3.191  -2.725  0.00  0.00    +0.124 A 
ATOM     20  C   UNL     1       5.004   2.808  -3.770  0.00  0.00    +0.049 A 
ATOM     21  C   UNL     1       6.356   2.556  -3.546  0.00  0.00    +0.049 A 
ATOM     22  C   UNL     1       6.879   2.667  -2.264  0.00  0.00    +0.121 A 
ATOM     23  C   UNL     1       6.037   3.079  -1.226  0.00  0.00    +0.053 A 
BRANCH  19  24
ATOM     24  O   UNL     1       2.838   3.237  -3.133  0.00  0.00    -0.495 OA
ATOM     25  C   UNL     1       2.014   4.297  -2.679  0.00  0.00    +0.277 C 
ENDBRANCH  19  24
BRANCH  22  26
ATOM     26  O   UNL     1       8.204   2.353  -2.157  0.00  0.00    -0.495 OA
ATOM     27  C   UNL     1       8.721   2.185  -0.842  0.00  0.00    +0.277 C 
ENDBRANCH  22  26
ENDBRANCH  17  18
ENDBRANCH   9  17
TORSDOF 8
