REMARK  Name = 
REMARK  78 active torsions:
REMARK  status: ('A' for Active; 'I' for Inactive)
REMARK    1  A    between atoms: CD1_1  and  CG1_2
REMARK    2  A    between atoms: CG1_2  and  CB_3
REMARK    3  A    between atoms: CB_3  and  CG2_5
REMARK    4  A    between atoms: CB_3  and  CA_6
REMARK    5  A    between atoms: CA_6  and  N_8
REMARK    6  A    between atoms: CA_6  and  C_119
REMARK    7  A    between atoms: C_9  and  CA_11
REMARK    8  A    between atoms: CA_11  and  CB_13
REMARK    9  A    between atoms: CA_11  and  N_18
REMARK   10  A    between atoms: CB_13  and  CG_14
REMARK   11  A    between atoms: CG_14  and  CD_15
REMARK   12  A    between atoms: CD_15  and  OE1_16
REMARK   13  A    between atoms: C_19  and  CA_21
REMARK   14  A    between atoms: CA_21  and  CB_23
REMARK   15  A    between atoms: CA_21  and  N_28
REMARK   16  A    between atoms: CB_23  and  CG_24
REMARK   17  A    between atoms: CG_24  and  CD_25
REMARK   18  A    between atoms: CD_25  and  OE1_26
REMARK   19  A    between atoms: C_29  and  CA_31
REMARK   20  A    between atoms: CA_31  and  CB_33
REMARK   21  A    between atoms: CA_31  and  N_40
REMARK   22  A    between atoms: CB_33  and  CG_34
REMARK   23  A    between atoms: C_41  and  CA_43
REMARK   24  A    between atoms: CA_43  and  CB_45
REMARK   25  A    between atoms: CA_43  and  N_49
REMARK   26  A    between atoms: CB_45  and  CG_46
REMARK   27  A    between atoms: CG_46  and  OD1_47
REMARK   28  A    between atoms: C_50  and  CA_52
REMARK   29  A    between atoms: CA_52  and  N_53
REMARK   30  A    between atoms: C_54  and  CA_56
REMARK   31  A    between atoms: CA_56  and  CB_58
REMARK   32  A    between atoms: CA_56  and  N_62
REMARK   33  A    between atoms: CB_58  and  CG_59
REMARK   34  A    between atoms: C_63  and  CA_65
REMARK   35  A    between atoms: CA_65  and  N_66
REMARK   36  A    between atoms: C_67  and  CA_69
REMARK   37  A    between atoms: CA_69  and  N_70
REMARK   38  A    between atoms: C_71  and  CA_73
REMARK   39  A    between atoms: CA_73  and  N_74
REMARK   40  A    between atoms: C_75  and  CA_77
REMARK   41  A    between atoms: CA_77  and  N_78
REMARK   42  A    between atoms: C_79  and  CA_81
REMARK   43  A    between atoms: C_87  and  CA_89
REMARK   44  A    between atoms: CA_89  and  CB_91
REMARK   45  A    between atoms: CA_89  and  N_98
REMARK   46  A    between atoms: CB_91  and  CG_92
REMARK   47  A    between atoms: CG_92  and  CD_93
REMARK   48  A    between atoms: CD_93  and  NE_94
REMARK   49  A    between atoms: C_99  and  CA_101
REMARK   50  A    between atoms: C_107  and  CA_109
REMARK   51  A    between atoms: CA_109  and  N_111
REMARK   52  A    between atoms: CA_109  and  CB_112
REMARK   53  A    between atoms: CB_112  and  CG_113
REMARK   54  A    between atoms: CA_125  and  C_127
REMARK   55  A    between atoms: N_129  and  CA_130
REMARK   56  A    between atoms: CA_130  and  CB_132
REMARK   57  A    between atoms: CA_130  and  C_137
REMARK   58  A    between atoms: CB_132  and  CG_133
REMARK   59  A    between atoms: CG_133  and  CD_134
REMARK   60  A    between atoms: CD_134  and  OE1_135
REMARK   61  A    between atoms: N_139  and  CA_140
REMARK   62  A    between atoms: CA_140  and  CB_142
REMARK   63  A    between atoms: CA_140  and  C_147
REMARK   64  A    between atoms: CB_142  and  CG_143
REMARK   65  A    between atoms: CG_143  and  CD_144
REMARK   66  A    between atoms: CD_144  and  OE1_145
REMARK   67  A    between atoms: N_149  and  CA_150
REMARK   68  A    between atoms: CA_150  and  CB_152
REMARK   69  A    between atoms: CA_150  and  C_160
REMARK   70  A    between atoms: CB_152  and  CG_153
REMARK   71  A    between atoms: CZ_156  and  OH_157
REMARK   72  A    between atoms: N_162  and  CA_163
REMARK   73  A    between atoms: CA_163  and  CB_165
REMARK   74  A    between atoms: CA_163  and  C_169
REMARK   75  A    between atoms: CB_165  and  CG_166
REMARK   76  A    between atoms: CG_166  and  CD1_167
REMARK   77  A    between atoms: CG_166  and  CD2_168
REMARK   78  A    between atoms: C_169  and  O_170
REMARK                            x       y       z     vdW  Elec       q    Type
REMARK                         _______ _______ _______ _____ _____    ______ ____
ROOT
ATOM      1  CA  PHE A  12      14.506 -21.365   0.562  0.00  0.00    +0.163 C 
ENDROOT
BRANCH   1   4
ATOM      2  N   GLU A  13      13.000 -23.335   0.473  0.00  0.00    -0.302 N 
ATOM      3  H   GLU A  13      13.018 -23.233  -0.537  0.00  0.00    +0.150 HD
ATOM      4  C   PHE A  12      13.771 -22.526   1.283  0.00  0.00    +0.234 C 
ATOM      5  O   PHE A  12      13.859 -22.725   2.494  0.00  0.00    -0.274 OA
BRANCH   2   6
ATOM      6  CA  GLU A  13      12.244 -24.481   0.988  0.00  0.00    +0.159 C 
BRANCH   6   9
ATOM      7  N   GLU A  14      11.733 -26.811   0.306  0.00  0.00    -0.302 N 
ATOM      8  H   GLU A  14      11.563 -26.984   1.292  0.00  0.00    +0.150 HD
ATOM      9  C   GLU A  13      12.257 -25.593  -0.085  0.00  0.00    +0.234 C 
ATOM     10  O   GLU A  13      12.710 -25.398  -1.214  0.00  0.00    -0.274 OA
BRANCH   7  11
ATOM     11  CA  GLU A  14      11.769 -27.988  -0.581  0.00  0.00    +0.159 C 
BRANCH  11  14
ATOM     12  N   ILE A  15       9.399 -28.148   0.105  0.00  0.00    -0.302 N 
ATOM     13  H   ILE A  15       9.562 -27.178   0.340  0.00  0.00    +0.150 HD
ATOM     14  C   GLU A  14      10.428 -28.787  -0.561  0.00  0.00    +0.234 C 
ATOM     15  O   GLU A  14      10.308 -29.865  -1.137  0.00  0.00    -0.274 OA
BRANCH  12  16
ATOM     16  CA  ILE A  15       8.025 -28.667   0.300  0.00  0.00    +0.162 C 
BRANCH  16  17
ATOM     17  C   ILE A  15       8.047 -30.115   0.960  0.00  0.00    +0.237 C 
ATOM     18  N   PRO A  16       6.880 -30.754   1.338  0.00  0.00    -0.288 N 
ATOM     19  CA  PRO A  16       6.921 -31.899   2.277  0.00  0.00    +0.162 C 
ATOM     20  CB  PRO A  16       5.506 -31.977   2.879  0.00  0.00    +0.033 C 
ATOM     21  CG  PRO A  16       4.752 -30.753   2.392  0.00  0.00    +0.021 C 
ATOM     22  CD  PRO A  16       5.538 -30.225   1.214  0.00  0.00    +0.109 C 
ATOM     23  O   ILE A  15       9.120 -30.651   1.276  0.00  0.00    -0.274 OA
BRANCH  19  24
ATOM     24  C   PRO A  16       7.355 -33.314   1.765  0.00  0.00    +0.234 C 
ATOM     25  N   GLU A  17       8.400 -33.373   0.871  0.00  0.00    -0.302 N 
ATOM     26  H   GLU A  17       8.947 -32.517   0.751  0.00  0.00    +0.150 HD
ATOM     27  O   PRO A  16       6.903 -34.352   2.254  0.00  0.00    -0.274 OA
BRANCH  25  28
ATOM     28  CA  GLU A  17       8.966 -34.658   0.423  0.00  0.00    +0.159 C 
BRANCH  28  29
ATOM     29  C   GLU A  17      10.205 -35.063   1.281  0.00  0.00    +0.234 C 
ATOM     30  N   GLU A  18       9.946 -35.717   2.469  0.00  0.00    -0.302 N 
ATOM     31  H   GLU A  18       8.975 -35.794   2.781  0.00  0.00    +0.150 HD
ATOM     32  O   GLU A  17      11.352 -34.797   0.917  0.00  0.00    -0.274 OA
BRANCH  30  33
ATOM     33  CA  GLU A  18      10.998 -36.190   3.410  0.00  0.00    +0.159 C 
BRANCH  33  34
ATOM     34  C   GLU A  18      10.305 -36.900   4.614  0.00  0.00    +0.234 C 
ATOM     35  N   TYR A  19      11.025 -37.846   5.329  0.00  0.00    -0.302 N 
ATOM     36  H   TYR A  19      11.969 -38.101   5.053  0.00  0.00    +0.150 HD
ATOM     37  O   GLU A  18       9.168 -36.560   4.958  0.00  0.00    -0.274 OA
BRANCH  35  38
ATOM     38  CA  TYR A  19      10.574 -38.359   6.647  0.00  0.00    +0.163 C 
BRANCH  38  39
ATOM     39  C   TYR A  19      11.619 -39.283   7.356  0.00  0.00    +0.234 C 
ATOM     40  N   LEU A  20      11.279 -39.708   8.646  0.00  0.00    -0.301 N 
ATOM     41  H   LEU A  20      10.716 -39.067   9.191  0.00  0.00    +0.150 HD
ATOM     42  O   TYR A  19      12.670 -39.609   6.807  0.00  0.00    -0.274 OA
BRANCH  40  43
ATOM     43  CA  LEU A  20      12.157 -40.647   9.415  0.00  0.00    +0.182 C 
BRANCH  43  44
ATOM     44  C   LEU A  20      11.343 -41.691  10.228  0.00  0.00    +0.325 C 
ATOM     45  OXT LEU A  20      11.822 -42.557  10.955  0.00  0.00    -0.249 OA
BRANCH  44  46
ATOM     46  O   LEU A  20       9.988 -41.542  10.097  0.00  0.00    -0.479 OA
ATOM     47  H   LEU A  20       9.783 -40.859   9.443  0.00  0.00    +0.295 HD
ENDBRANCH  44  46
ENDBRANCH  43  44
BRANCH  43  48
ATOM     48  CB  LEU A  20      13.130 -39.858  10.309  0.00  0.00    +0.036 C 
BRANCH  48  49
ATOM     49  CG  LEU A  20      14.121 -40.694  11.155  0.00  0.00    -0.015 C 
ATOM     50  CD2 LEU A  20      15.000 -39.790  12.027  0.00  0.00    +0.007 C 
ATOM     51  CD1 LEU A  20      15.011 -41.616  10.320  0.00  0.00    +0.007 C 
ENDBRANCH  48  49
ENDBRANCH  43  48
ENDBRANCH  40  43
ENDBRANCH  38  39
BRANCH  38  52
ATOM     52  CB  TYR A  19       9.197 -39.050   6.618  0.00  0.00    +0.067 C 
BRANCH  52  53
ATOM     53  CG  TYR A  19       9.063 -40.308   5.790  0.00  0.00    -0.045 A 
ATOM     54  CD2 TYR A  19       8.595 -40.232   4.471  0.00  0.00    +0.007 A 
ATOM     55  CE2 TYR A  19       8.258 -41.393   3.773  0.00  0.00    +0.045 A 
ATOM     56  CZ  TYR A  19       8.392 -42.630   4.390  0.00  0.00    +0.117 A 
ATOM     57  CE1 TYR A  19       8.926 -42.733   5.667  0.00  0.00    +0.045 A 
ATOM     58  CD1 TYR A  19       9.274 -41.572   6.359  0.00  0.00    +0.007 A 
BRANCH  56  59
ATOM     59  OH  TYR A  19       7.958 -43.732   3.714  0.00  0.00    -0.507 OA
ATOM     60  HH  TYR A  19       7.976 -44.491   4.320  0.00  0.00    +0.292 HD
ENDBRANCH  56  59
ENDBRANCH  52  53
ENDBRANCH  38  52
ENDBRANCH  35  38
ENDBRANCH  33  34
BRANCH  33  61
ATOM     61  CB  GLU A  18      11.826 -34.991   3.921  0.00  0.00    +0.043 C 
BRANCH  61  62
ATOM     62  CG  GLU A  18      13.020 -35.366   4.786  0.00  0.00    +0.123 C 
BRANCH  62  63
ATOM     63  CD  GLU A  18      13.688 -34.145   5.373  0.00  0.00    +0.305 C 
ATOM     64  OE2 GLU A  18      13.720 -33.921   6.577  0.00  0.00    -0.251 OA
BRANCH  63  65
ATOM     65  OE1 GLU A  18      14.263 -33.331   4.471  0.00  0.00    -0.481 OA
ATOM     66  HE1 GLU A  18      14.185 -33.617   3.540  0.00  0.00    +0.295 HD
ENDBRANCH  63  65
ENDBRANCH  62  63
ENDBRANCH  61  62
ENDBRANCH  33  61
ENDBRANCH  30  33
ENDBRANCH  28  29
BRANCH  28  67
ATOM     67  CB  GLU A  17       9.361 -34.553  -1.066  0.00  0.00    +0.043 C 
BRANCH  67  68
ATOM     68  CG  GLU A  17       9.908 -35.872  -1.627  0.00  0.00    +0.123 C 
BRANCH  68  69
ATOM     69  CD  GLU A  17      10.359 -35.770  -3.063  0.00  0.00    +0.305 C 
ATOM     70  OE2 GLU A  17       9.922 -36.474  -3.961  0.00  0.00    -0.251 OA
BRANCH  69  71
ATOM     71  OE1 GLU A  17      11.350 -34.875  -3.266  0.00  0.00    -0.481 OA
ATOM     72  HE1 GLU A  17      11.653 -34.427  -2.454  0.00  0.00    +0.295 HD
ENDBRANCH  69  71
ENDBRANCH  68  69
ENDBRANCH  67  68
ENDBRANCH  28  67
ENDBRANCH  25  28
ENDBRANCH  19  24
ENDBRANCH  16  17
BRANCH  16  73
ATOM     73  CB  ILE A  15       7.032 -28.251  -0.838  0.00  0.00    +0.015 C 
ATOM     74  CG2 ILE A  15       6.914 -26.709  -0.914  0.00  0.00    +0.010 C 
BRANCH  73  76
ATOM     75  CD1 ILE A  15       7.228 -30.307  -2.351  0.00  0.00    +0.004 C 
ATOM     76  CG1 ILE A  15       7.274 -28.794  -2.252  0.00  0.00    +0.002 C 
ENDBRANCH  73  76
ENDBRANCH  16  73
ENDBRANCH  12  16
ENDBRANCH  11  14
BRANCH  11  77
ATOM     77  CB  GLU A  14      12.981 -28.889  -0.249  0.00  0.00    +0.043 C 
BRANCH  77  78
ATOM     78  CG  GLU A  14      14.320 -28.186  -0.500  0.00  0.00    +0.123 C 
BRANCH  78  79
ATOM     79  CD  GLU A  14      15.516 -29.009  -0.094  0.00  0.00    +0.305 C 
ATOM     80  OE2 GLU A  14      16.270 -28.696   0.815  0.00  0.00    -0.251 OA
BRANCH  79  81
ATOM     81  OE1 GLU A  14      15.710 -30.108  -0.851  0.00  0.00    -0.481 OA
ATOM     82  HE1 GLU A  14      15.068 -30.220  -1.577  0.00  0.00    +0.295 HD
ENDBRANCH  79  81
ENDBRANCH  78  79
ENDBRANCH  77  78
ENDBRANCH  11  77
ENDBRANCH   7  11
ENDBRANCH   6   9
BRANCH   6  83
ATOM     83  CB  GLU A  13      10.805 -24.076   1.320  0.00  0.00    +0.043 C 
BRANCH  83  84
ATOM     84  CG  GLU A  13      10.737 -23.077   2.477  0.00  0.00    +0.123 C 
BRANCH  84  85
ATOM     85  CD  GLU A  13       9.318 -22.721   2.828  0.00  0.00    +0.305 C 
ATOM     86  OE2 GLU A  13       8.327 -23.215   2.312  0.00  0.00    -0.251 OA
BRANCH  85  87
ATOM     87  OE1 GLU A  13       9.252 -21.787   3.803  0.00  0.00    -0.481 OA
ATOM     88  HE1 GLU A  13      10.130 -21.487   4.121  0.00  0.00    +0.295 HD
ENDBRANCH  85  87
ENDBRANCH  84  85
ENDBRANCH  83  84
ENDBRANCH   6  83
ENDBRANCH   2   6
ENDBRANCH   1   4
BRANCH   1  89
ATOM     89  N   PHE A  12      15.184 -20.477   1.521  0.00  0.00    -0.302 N 
ATOM     90  H   PHE A  12      16.104 -20.765   1.835  0.00  0.00    +0.150 HD
ATOM     91  C   ASP A  11      14.507 -19.519   2.240  0.00  0.00    +0.234 C 
ATOM     92  O   ASP A  11      13.308 -19.288   2.093  0.00  0.00    -0.274 OA
BRANCH  91  93
ATOM     93  CA  ASP A  11      15.391 -18.662   3.174  0.00  0.00    +0.169 C 
BRANCH  93  94
ATOM     94  N   ASP A  11      14.782 -17.334   3.275  0.00  0.00    -0.302 N 
ATOM     95  H   ASP A  11      13.852 -17.234   2.872  0.00  0.00    +0.150 HD
ATOM     96  C   GLY A  10      15.478 -16.245   3.722  0.00  0.00    +0.231 C 
ATOM     97  O   GLY A  10      16.651 -16.329   4.067  0.00  0.00    -0.274 OA
BRANCH  96  98
ATOM     98  CA  GLY A  10      14.714 -14.915   3.681  0.00  0.00    +0.200 C 
BRANCH  98  99
ATOM     99  N   GLY A  10      15.128 -14.140   2.518  0.00  0.00    -0.305 N 
ATOM    100  H   GLY A  10      14.584 -14.231   1.671  0.00  0.00    +0.149 HD
ATOM    101  C   ASN A   9      16.275 -13.428   2.361  0.00  0.00    +0.234 C 
ATOM    102  O   ASN A   9      16.528 -12.965   1.245  0.00  0.00    -0.274 OA
BRANCH 101 103
ATOM    103  CA  ASN A   9      17.242 -13.232   3.545  0.00  0.00    +0.168 C 
BRANCH 103 104
ATOM    104  N   ASN A   9      18.562 -13.750   3.210  0.00  0.00    -0.302 N 
ATOM    105  H   ASN A   9      18.786 -13.959   2.243  0.00  0.00    +0.150 HD
ATOM    106  C   GLY A   8      19.468 -14.036   4.213  0.00  0.00    +0.231 C 
ATOM    107  O   GLY A   8      19.229 -13.819   5.397  0.00  0.00    -0.274 OA
BRANCH 106 108
ATOM    108  CA  GLY A   8      20.792 -14.620   3.734  0.00  0.00    +0.200 C 
BRANCH 108 109
ATOM    109  N   GLY A   8      20.600 -15.897   3.062  0.00  0.00    -0.305 N 
ATOM    110  H   GLY A   8      19.663 -16.168   2.789  0.00  0.00    +0.149 HD
ATOM    111  C   GLY A   7      21.618 -16.834   3.058  0.00  0.00    +0.231 C 
ATOM    112  O   GLY A   7      22.737 -16.587   3.498  0.00  0.00    -0.274 OA
BRANCH 111 113
ATOM    113  CA  GLY A   7      21.268 -18.159   2.370  0.00  0.00    +0.200 C 
BRANCH 113 114
ATOM    114  N   GLY A   7      21.617 -18.126   0.960  0.00  0.00    -0.305 N 
ATOM    115  H   GLY A   7      20.920 -17.858   0.273  0.00  0.00    +0.149 HD
ATOM    116  C   GLY A   6      22.844 -18.565   0.504  0.00  0.00    +0.231 C 
ATOM    117  O   GLY A   6      23.672 -19.119   1.220  0.00  0.00    -0.274 OA
BRANCH 116 118
ATOM    118  CA  GLY A   6      23.048 -18.400  -1.007  0.00  0.00    +0.200 C 
BRANCH 118 119
ATOM    119  N   GLY A   6      22.594 -19.564  -1.745  0.00  0.00    -0.305 N 
ATOM    120  H   GLY A   6      23.273 -20.281  -2.007  0.00  0.00    +0.149 HD
ATOM    121  C   GLY A   5      21.273 -19.758  -2.062  0.00  0.00    +0.231 C 
ATOM    122  O   GLY A   5      20.395 -18.940  -1.780  0.00  0.00    -0.274 OA
BRANCH 121 123
ATOM    123  CA  GLY A   5      20.965 -21.045  -2.830  0.00  0.00    +0.200 C 
BRANCH 123 124
ATOM    124  N   GLY A   5      21.259 -20.904  -4.242  0.00  0.00    -0.305 N 
ATOM    125  H   GLY A   5      20.536 -20.530  -4.850  0.00  0.00    +0.149 HD
ATOM    126  C   PRO A   4      22.507 -21.229  -4.717  0.00  0.00    +0.234 C 
ATOM    127  O   PRO A   4      23.391 -21.555  -3.912  0.00  0.00    -0.274 OA
BRANCH 126 128
ATOM    128  CA  PRO A   4      22.795 -21.041  -6.227  0.00  0.00    +0.162 C 
ATOM    129  N   PRO A   4      23.813 -22.036  -6.628  0.00  0.00    -0.288 N 
ATOM    130  C   ARG A   3      25.165 -22.122  -6.261  0.00  0.00    +0.237 C 
ATOM    131  O   ARG A   3      25.748 -23.206  -6.373  0.00  0.00    -0.274 OA
ATOM    132  CD  PRO A   4      23.162 -23.181  -7.270  0.00  0.00    +0.109 C 
ATOM    133  CG  PRO A   4      21.667 -22.866  -7.287  0.00  0.00    +0.021 C 
ATOM    134  CB  PRO A   4      21.623 -21.350  -7.165  0.00  0.00    +0.033 C 
BRANCH 130 135
ATOM    135  CA  ARG A   3      25.916 -20.853  -5.687  0.00  0.00    +0.159 C 
BRANCH 135 136
ATOM    136  N   ARG A   3      27.251 -21.026  -5.062  0.00  0.00    -0.302 N 
ATOM    137  H   ARG A   3      27.423 -20.498  -4.214  0.00  0.00    +0.150 HD
ATOM    138  C   PRO A   2      28.406 -21.421  -5.709  0.00  0.00    +0.234 C 
ATOM    139  O   PRO A   2      28.425 -21.910  -6.837  0.00  0.00    -0.274 OA
BRANCH 138 140
ATOM    140  CA  PRO A   2      29.735 -21.204  -4.912  0.00  0.00    +0.162 C 
ATOM    141  N   PRO A   2      29.571 -20.637  -3.563  0.00  0.00    -0.289 N 
ATOM    142  C   PHE A   1      29.731 -19.364  -3.072  0.00  0.00    +0.233 C 
ATOM    143  O   PHE A   1      29.482 -19.150  -1.875  0.00  0.00    -0.274 OA
ATOM    144  CD  PRO A   2      29.396 -21.721  -2.597  0.00  0.00    +0.108 C 
ATOM    145  CG  PRO A   2      29.563 -23.016  -3.381  0.00  0.00    +0.021 C 
ATOM    146  CB  PRO A   2      30.350 -22.577  -4.610  0.00  0.00    +0.033 C 
BRANCH 142 147
ATOM    147  CA  PHE A   1      30.124 -18.126  -3.922  0.00  0.00    +0.142 C 
BRANCH 147 148
ATOM    148  N   PHE A   1      28.940 -17.659  -4.689  0.00  0.00    -0.320 NA
ATOM    149  H1  PHE A   1      28.242 -17.378  -3.993  0.00  0.00    +0.119 HD
ATOM    150  H2  PHE A   1      29.197 -16.782  -5.149  0.00  0.00    +0.119 HD
ENDBRANCH 147 148
BRANCH 147 151
ATOM    151  CB  PHE A   1      31.399 -18.149  -4.777  0.00  0.00    +0.063 C 
BRANCH 151 152
ATOM    152  CG  PHE A   1      32.704 -18.532  -4.114  0.00  0.00    -0.045 A 
ATOM    153  CD2 PHE A   1      32.977 -18.270  -2.764  0.00  0.00    +0.004 A 
ATOM    154  CE2 PHE A   1      34.245 -18.517  -2.230  0.00  0.00    +0.000 A 
ATOM    155  CZ  PHE A   1      35.262 -19.019  -3.039  0.00  0.00    +0.000 A 
ATOM    156  CE1 PHE A   1      35.007 -19.289  -4.380  0.00  0.00    +0.000 A 
ATOM    157  CD1 PHE A   1      33.739 -19.046  -4.913  0.00  0.00    +0.004 A 
ENDBRANCH 151 152
ENDBRANCH 147 151
ENDBRANCH 142 147
ENDBRANCH 138 140
ENDBRANCH 135 136
BRANCH 135 158
ATOM    158  CB  ARG A   3      25.892 -19.618  -6.603  0.00  0.00    +0.035 C 
BRANCH 158 159
ATOM    159  CG  ARG A   3      26.914 -19.591  -7.734  0.00  0.00    +0.039 C 
BRANCH 159 160
ATOM    160  CD  ARG A   3      26.761 -18.322  -8.558  0.00  0.00    +0.196 C 
BRANCH 160 161
ATOM    161  NE  ARG A   3      27.755 -18.284  -9.602  0.00  0.00    -0.276 N 
ATOM    162  HE  ARG A   3      28.300 -19.127  -9.738  0.00  0.00    +0.258 HD
ATOM    163  CZ  ARG A   3      27.871 -17.312 -10.523  0.00  0.00    +0.376 C 
ATOM    164  NH2 ARG A   3      27.198 -16.223 -10.594  0.00  0.00    -0.130 NA
ATOM    165  HH2 ARG A   3      26.521 -16.203  -9.833  0.00  0.00    +0.306 HD
ATOM    166  NH1 ARG A   3      28.822 -17.564 -11.438  0.00  0.00    -0.289 N 
ATOM    167 HH11 ARG A   3      29.017 -16.720 -11.968  0.00  0.00    +0.255 HD
ATOM    168 HH12 ARG A   3      29.666 -17.982 -11.075  0.00  0.00    +0.255 HD
ENDBRANCH 160 161
ENDBRANCH 159 160
ENDBRANCH 158 159
ENDBRANCH 135 158
ENDBRANCH 130 135
ENDBRANCH 126 128
ENDBRANCH 123 124
ENDBRANCH 121 123
ENDBRANCH 118 119
ENDBRANCH 116 118
ENDBRANCH 113 114
ENDBRANCH 111 113
ENDBRANCH 108 109
ENDBRANCH 106 108
ENDBRANCH 103 104
BRANCH 103 169
ATOM    169  CB  ASN A   9      17.218 -11.787   4.044  0.00  0.00    +0.127 C 
BRANCH 169 170
ATOM    170  CG  ASN A   9      17.987 -10.781   3.219  0.00  0.00    +0.213 C 
ATOM    171  OD1 ASN A   9      18.957 -10.168   3.652  0.00  0.00    -0.276 OA
ATOM    172  ND2 ASN A   9      17.505 -10.498   1.979  0.00  0.00    -0.329 N 
ATOM    173 HD21 ASN A   9      18.062  -9.851   1.435  0.00  0.00    +0.145 HD
ATOM    174 HD22 ASN A   9      16.983 -11.189   1.446  0.00  0.00    +0.145 HD
ENDBRANCH 169 170
ENDBRANCH 103 169
ENDBRANCH 101 103
ENDBRANCH  98  99
ENDBRANCH  96  98
ENDBRANCH  93  94
BRANCH  93 175
ATOM    175  CB  ASP A  11      15.681 -19.304   4.527  0.00  0.00    +0.152 C 
BRANCH 175 176
ATOM    176  CG  ASP A  11      14.452 -19.392   5.391  0.00  0.00    +0.307 C 
ATOM    177  OD2 ASP A  11      13.663 -20.324   5.361  0.00  0.00    -0.251 OA
BRANCH 176 178
ATOM    178  OD1 ASP A  11      14.274 -18.324   6.203  0.00  0.00    -0.481 OA
ATOM    179  HD1 ASP A  11      14.999 -17.669   6.176  0.00  0.00    +0.295 HD
ENDBRANCH 176 178
ENDBRANCH 175 176
ENDBRANCH  93 175
ENDBRANCH  91  93
ENDBRANCH   1  89
BRANCH   1 180
ATOM    180  CB  PHE A  12      15.503 -21.881  -0.506  0.00  0.00    +0.067 C 
BRANCH 180 181
ATOM    181  CG  PHE A  12      16.703 -22.581   0.100  0.00  0.00    -0.045 A 
ATOM    182  CD2 PHE A  12      17.967 -21.977   0.079  0.00  0.00    +0.004 A 
ATOM    183  CE2 PHE A  12      19.020 -22.526   0.813  0.00  0.00    +0.000 A 
ATOM    184  CZ  PHE A  12      18.817 -23.675   1.576  0.00  0.00    +0.000 A 
ATOM    185  CE1 PHE A  12      17.583 -24.317   1.551  0.00  0.00    +0.000 A 
ATOM    186  CD1 PHE A  12      16.544 -23.792   0.789  0.00  0.00    +0.004 A 
ENDBRANCH 180 181
ENDBRANCH   1 180
TORSDOF 74
