REMARK  Name = 
REMARK  7 active torsions:
REMARK  status: ('A' for Active; 'I' for Inactive)
REMARK    1  A    between atoms: N_1  and  CA_2
REMARK    2  A    between atoms: CA_2  and  C_4
REMARK    3  A    between atoms: CA_2  and  C_14
REMARK    4  A    between atoms: C_4  and  C_5
REMARK    5  A    between atoms: C_5  and  C_7
REMARK    6  A    between atoms: C_12  and  N_13
REMARK    7  A    between atoms: C_14  and  O_15
REMARK                            x       y       z     vdW  Elec       q    Type
REMARK                         _______ _______ _______ _____ _____    ______ ____
ROOT
ATOM      1  C   UNL     1       2.566   0.488  -2.329  0.00  0.00    +0.167 C 
ATOM      2  O   UNL     1       2.109  -0.652  -2.467  0.00  0.00    -0.292 OA
ENDROOT
BRANCH   1   3
ATOM      3  C   UNL     1       2.750   1.353  -3.538  0.00  0.00    +0.038 A 
ATOM      4  C   UNL     1       2.875   0.743  -4.810  0.00  0.00    +0.035 A 
ATOM      5  C   UNL     1       3.068   1.557  -5.935  0.00  0.00    +0.023 A 
ATOM      6  C   UNL     1       3.054   2.947  -5.826  0.00  0.00    +0.002 A 
ATOM      7  C   UNL     1       2.883   3.543  -4.582  0.00  0.00    +0.001 A 
ATOM      8  C   UNL     1       2.729   2.754  -3.440  0.00  0.00    +0.013 A 
BRANCH   4   9
ATOM      9  N   UNL     1       3.047  -0.650  -4.965  0.00  0.00    -0.357 N 
ATOM     10  H   UNL     1       2.605  -1.160  -4.191  0.00  0.00    +0.142 HD
ATOM     11  H   UNL     1       2.728  -0.999  -5.863  0.00  0.00    +0.142 HD
ENDBRANCH   4   9
ENDBRANCH   1   3
BRANCH   1  12
ATOM     12  C   UNL     1       3.000   0.965  -0.952  0.00  0.00    +0.109 C 
BRANCH  12  13
ATOM     13  CA  UNL     1       2.057   0.451   0.144  0.00  0.00    +0.168 C 
BRANCH  13  14
ATOM     14  N   UNL     1       2.024  -1.040   0.263  0.00  0.00    -0.318 NA
ATOM     15  H1  UNL     1       2.048  -1.415  -0.703  0.00  0.00    +0.119 HD
ATOM     16  H2  UNL     1       2.921  -1.346   0.651  0.00  0.00    +0.119 HD
ENDBRANCH  13  14
BRANCH  13  17
ATOM     17  C   UNL     1       0.633   0.969  -0.112  0.00  0.00    +0.322 C 
ATOM     18  OXT UNL     1       0.354   2.135  -0.349  0.00  0.00    -0.249 OA
BRANCH  17  19
ATOM     19  O   UNL     1      -0.285  -0.026  -0.043  0.00  0.00    -0.480 OA
ATOM     20  H   UNL     1       0.227  -0.850   0.153  0.00  0.00    +0.295 HD
ENDBRANCH  17  19
ENDBRANCH  13  17
ENDBRANCH  12  13
ENDBRANCH   1  12
TORSDOF 7
