REMARK  Name = 
REMARK  24 active torsions:
REMARK  status: ('A' for Active; 'I' for Inactive)
REMARK    1  A    between atoms: O_1  and  C_2
REMARK    2  A    between atoms: C_2  and  C_3
REMARK    3  A    between atoms: C_6  and  O_8
REMARK    4  A    between atoms: O_8  and  C_9
REMARK    5  A    between atoms: C_11  and  O_13
REMARK    6  A    between atoms: C_14  and  O_16
REMARK    7  A    between atoms: C_17  and  O_19
REMARK    8  A    between atoms: O_19  and  C_20
REMARK    9  A    between atoms: C_22  and  O_24
REMARK   10  A    between atoms: C_25  and  O_27
REMARK   11  A    between atoms: C_28  and  O_30
REMARK   12  A    between atoms: O_30  and  C_31
REMARK   13  A    between atoms: C_33  and  O_35
REMARK   14  A    between atoms: C_36  and  O_38
REMARK   15  A    between atoms: C_39  and  O_41
REMARK   16  A    between atoms: C_43  and  C_45
REMARK   17  A    between atoms: C_45  and  O_46
REMARK   18  A    between atoms: C_48  and  C_50
REMARK   19  A    between atoms: C_50  and  O_51
REMARK   20  A    between atoms: C_53  and  C_55
REMARK   21  A    between atoms: C_55  and  O_56
REMARK   22  A    between atoms: C_57  and  O_59
REMARK   23  A    between atoms: C_60  and  O_62
REMARK   24  A    between atoms: C_63  and  O_65
REMARK                            x       y       z     vdW  Elec       q    Type
REMARK                         _______ _______ _______ _____ _____    ______ ____
ROOT
ATOM      1  O   UNL     1      -1.854   2.118   3.960  0.00  0.00    -0.340 OA
ENDROOT
BRANCH   1   5
ATOM      2  C   UNL     1      -2.721   4.957   1.947  0.00  0.00    +0.183 C 
ATOM      3  C   UNL     1      -1.298   4.536   2.391  0.00  0.00    +0.178 C 
ATOM      4  O   UNL     1      -0.998   3.178   2.013  0.00  0.00    -0.341 OA
ATOM      5  C   UNL     1      -1.925   2.192   2.527  0.00  0.00    +0.282 C 
ATOM      6  C   UNL     1      -3.351   2.516   2.039  0.00  0.00    +0.201 C 
ATOM      7  C   UNL     1      -3.724   3.932   2.506  0.00  0.00    +0.179 C 
BRANCH   6   8
ATOM      8  O   UNL     1      -3.453   2.375   0.621  0.00  0.00    -0.384 OA
ATOM      9  H   UNL     1      -2.745   2.915   0.213  0.00  0.00    +0.210 HD
ENDBRANCH   6   8
BRANCH   7  10
ATOM     10  O   UNL     1      -3.797   4.043   3.930  0.00  0.00    -0.386 OA
ATOM     11  H   UNL     1      -2.931   3.761   4.303  0.00  0.00    +0.210 HD
ENDBRANCH   7  10
BRANCH   3  12
ATOM     12  C   UNL     1      -0.234   5.467   1.793  0.00  0.00    +0.190 C 
BRANCH  12  13
ATOM     13  O   UNL     1       1.052   5.154   2.327  0.00  0.00    -0.392 OA
ATOM     14  H   UNL     1       1.164   4.193   2.200  0.00  0.00    +0.210 HD
ENDBRANCH  12  13
ENDBRANCH   3  12
BRANCH   2  15
ATOM     15  O   UNL     1      -2.773   5.059   0.509  0.00  0.00    -0.340 OA
BRANCH  15  20
ATOM     16  C   UNL     1      -3.137   6.237  -2.102  0.00  0.00    +0.178 C 
ATOM     17  C   UNL     1      -3.455   7.679  -1.659  0.00  0.00    +0.177 C 
ATOM     18  C   UNL     1      -3.691   7.798  -0.145  0.00  0.00    +0.179 C 
ATOM     19  C   UNL     1      -4.654   6.709   0.324  0.00  0.00    +0.201 C 
ATOM     20  C   UNL     1      -4.059   5.346  -0.066  0.00  0.00    +0.282 C 
ATOM     21  O   UNL     1      -3.996   5.266  -1.489  0.00  0.00    -0.341 OA
BRANCH  19  22
ATOM     22  O   UNL     1      -4.899   6.866   1.728  0.00  0.00    -0.384 OA
ATOM     23  H   UNL     1      -5.580   6.218   1.988  0.00  0.00    +0.210 HD
ENDBRANCH  19  22
BRANCH  18  24
ATOM     24  O   UNL     1      -4.251   9.081   0.171  0.00  0.00    -0.386 OA
ATOM     25  H   UNL     1      -4.464   9.047   1.124  0.00  0.00    +0.210 HD
ENDBRANCH  18  24
BRANCH  17  26
ATOM     26  O   UNL     1      -2.398   8.551  -2.081  0.00  0.00    -0.386 OA
ATOM     27  H   UNL     1      -1.612   8.361  -1.540  0.00  0.00    +0.210 HD
ENDBRANCH  17  26
BRANCH  16  28
ATOM     28  C   UNL     1      -3.334   6.125  -3.627  0.00  0.00    +0.190 C 
BRANCH  28  29
ATOM     29  O   UNL     1      -2.847   4.874  -4.113  0.00  0.00    -0.392 OA
ATOM     30  H   UNL     1      -3.202   4.764  -5.011  0.00  0.00    +0.210 HD
ENDBRANCH  28  29
ENDBRANCH  16  28
ENDBRANCH  15  20
ENDBRANCH   2  15
ENDBRANCH   1   5
BRANCH   1  31
ATOM     31  C   UNL     1      -2.727   1.141   4.582  0.00  0.00    +0.183 C 
ATOM     32  C   UNL     1      -2.534   1.183   6.110  0.00  0.00    +0.178 C 
ATOM     33  O   UNL     1      -1.224   0.731   6.463  0.00  0.00    -0.341 OA
ATOM     34  C   UNL     1      -0.921  -0.595   6.024  0.00  0.00    +0.282 C 
ATOM     35  C   UNL     1      -1.139  -0.833   4.514  0.00  0.00    +0.201 C 
ATOM     36  C   UNL     1      -2.515  -0.308   4.097  0.00  0.00    +0.179 C 
BRANCH  35  37
ATOM     37  O   UNL     1      -0.119  -0.207   3.728  0.00  0.00    -0.384 OA
ATOM     38  H   UNL     1       0.747  -0.394   4.131  0.00  0.00    +0.210 HD
ENDBRANCH  35  37
BRANCH  36  39
ATOM     39  O   UNL     1      -3.577  -1.138   4.588  0.00  0.00    -0.386 OA
ATOM     40  H   UNL     1      -3.318  -1.522   5.449  0.00  0.00    +0.210 HD
ENDBRANCH  36  39
BRANCH  32  41
ATOM     41  C   UNL     1      -2.701   2.599   6.677  0.00  0.00    +0.190 C 
BRANCH  41  42
ATOM     42  O   UNL     1      -2.625   2.571   8.102  0.00  0.00    -0.392 OA
ATOM     43  H   UNL     1      -1.752   2.187   8.310  0.00  0.00    +0.210 HD
ENDBRANCH  41  42
ENDBRANCH  32  41
BRANCH  34  44
ATOM     44  O   UNL     1      -1.635  -1.549   6.828  0.00  0.00    -0.340 OA
BRANCH  44  45
ATOM     45  C   UNL     1      -1.038  -2.871   6.878  0.00  0.00    +0.183 C 
ATOM     46  C   UNL     1      -1.854  -3.770   7.849  0.00  0.00    +0.178 C 
ATOM     47  O   UNL     1      -1.781  -3.274   9.198  0.00  0.00    -0.341 OA
ATOM     48  C   UNL     1      -0.448  -3.213   9.708  0.00  0.00    +0.279 C 
ATOM     49  C   UNL     1       0.447  -2.312   8.845  0.00  0.00    +0.201 C 
ATOM     50  C   UNL     1       0.421  -2.829   7.391  0.00  0.00    +0.179 C 
BRANCH  48  51
ATOM     51  O   UNL     1       0.122  -4.515   9.780  0.00  0.00    -0.365 OA
ATOM     52  H   UNL     1       0.883  -4.441  10.386  0.00  0.00    +0.213 HD
ENDBRANCH  48  51
BRANCH  49  53
ATOM     53  O   UNL     1       0.013  -0.952   8.932  0.00  0.00    -0.384 OA
ATOM     54  H   UNL     1      -0.930  -0.924   8.673  0.00  0.00    +0.210 HD
ENDBRANCH  49  53
BRANCH  50  55
ATOM     55  O   UNL     1       1.055  -4.101   7.241  0.00  0.00    -0.386 OA
ATOM     56  H   UNL     1       0.762  -4.682   7.972  0.00  0.00    +0.210 HD
ENDBRANCH  50  55
BRANCH  46  57
ATOM     57  C   UNL     1      -3.331  -3.920   7.472  0.00  0.00    +0.190 C 
BRANCH  57  58
ATOM     58  O   UNL     1      -3.461  -4.504   6.181  0.00  0.00    -0.392 OA
ATOM     59  H   UNL     1      -4.381  -4.816   6.100  0.00  0.00    +0.210 HD
ENDBRANCH  57  58
ENDBRANCH  46  57
ENDBRANCH  44  45
ENDBRANCH  34  44
ENDBRANCH   1  31
TORSDOF 24
