REMARK  Name = 
REMARK  10 active torsions:
REMARK  status: ('A' for Active; 'I' for Inactive)
REMARK    1  A    between atoms: O_1  and  C_2
REMARK    2  A    between atoms: C_2  and  C_3
REMARK    3  A    between atoms: C_3  and  O_5
REMARK    4  A    between atoms: C_3  and  C_6
REMARK    5  A    between atoms: C_6  and  O_8
REMARK    6  A    between atoms: C_6  and  C_9
REMARK    7  A    between atoms: C_9  and  C_10
REMARK    8  A    between atoms: C_10  and  O_12
REMARK    9  A    between atoms: C_10  and  C_13
REMARK   10  A    between atoms: C_13  and  O_14
REMARK                            x       y       z     vdW  Elec       q    Type
REMARK                         _______ _______ _______ _____ _____    ______ ____
ROOT
ATOM      1  C   UNL     1       5.931  -1.550  -0.724  0.00  0.00    +0.148 C 
ENDROOT
BRANCH   1   2
ATOM      2  O   UNL     1       6.066  -1.851  -2.124  0.00  0.00    -0.389 OA
ATOM      3  H   UNL     1       6.684  -1.214  -2.532  0.00  0.00    +0.210 HD
ENDBRANCH   1   2
BRANCH   1   4
ATOM      4  C   UNL     1       6.165  -0.042  -0.486  0.00  0.00    +0.168 C 
BRANCH   4   5
ATOM      5  O   UNL     1       5.225   0.709  -1.281  0.00  0.00    -0.387 OA
ATOM      6  H   UNL     1       4.971   0.150  -2.038  0.00  0.00    +0.210 HD
ENDBRANCH   4   5
BRANCH   4   7
ATOM      7  C   UNL     1       6.029   0.391   0.978  0.00  0.00    +0.189 C 
BRANCH   7   8
ATOM      8  O   UNL     1       4.767  -0.004   1.519  0.00  0.00    -0.392 OA
ATOM      9  H   UNL     1       4.551   0.640   2.216  0.00  0.00    +0.210 HD
ENDBRANCH   7   8
ENDBRANCH   4   7
ENDBRANCH   1   4
BRANCH   1  10
ATOM     10  C   UNL     1       6.809  -2.523   0.081  0.00  0.00    +0.076 C 
BRANCH  10  11
ATOM     11  C   UNL     1       8.325  -2.392  -0.092  0.00  0.00    +0.225 C 
BRANCH  11  12
ATOM     12  C   UNL     1       8.803  -2.604  -1.533  0.00  0.00    +0.334 C 
ATOM     13  O   UNL     1       9.420  -1.744  -2.158  0.00  0.00    -0.248 OA
BRANCH  12  14
ATOM     14  O   UNL     1       8.572  -3.833  -2.035  0.00  0.00    -0.479 OA
ATOM     15  H   UNL     1       8.045  -4.423  -1.462  0.00  0.00    +0.295 HD
ENDBRANCH  12  14
ENDBRANCH  11  12
BRANCH  11  16
ATOM     16  O   UNL     1       8.746  -1.130   0.424  0.00  0.00    -0.381 OA
ATOM     17  H   UNL     1       9.630  -0.952   0.043  0.00  0.00    +0.211 HD
ENDBRANCH  11  16
ENDBRANCH  10  11
ENDBRANCH   1  10
TORSDOF 10
