REMARK  Name = 
REMARK  5 active torsions:
REMARK  status: ('A' for Active; 'I' for Inactive)
REMARK    1  A    between atoms: N_1  and  C_5
REMARK    2  A    between atoms: C_5  and  C_6
REMARK    3  A    between atoms: C_6  and  C_7
REMARK    4  A    between atoms: C_7  and  C_8
REMARK    5  A    between atoms: C_8  and  O_9
REMARK                            x       y       z     vdW  Elec       q    Type
REMARK                         _______ _______ _______ _____ _____    ______ ____
ROOT
ATOM      1  C   UNL     1       2.459  -0.060   0.012  0.00  0.00    +0.127 C 
ENDROOT
BRANCH   1   2
ATOM      2  N   UNL     1       2.864   0.407  -1.335  0.00  0.00    +0.219 N 
ATOM      3  H   UNL     1       2.446   1.324  -1.543  0.00  0.00    +0.199 HD
ATOM      4  H   UNL     1       2.557  -0.243  -2.070  0.00  0.00    +0.199 HD
ATOM      5  H   UNL     1       3.884   0.518  -1.416  0.00  0.00    +0.199 HD
ENDBRANCH   1   2
BRANCH   1   6
ATOM      6  C   UNL     1       2.995  -1.459   0.280  0.00  0.00    +0.053 C 
BRANCH   6   7
ATOM      7  C   UNL     1       4.528  -1.532   0.327  0.00  0.00    +0.033 C 
BRANCH   7   8
ATOM      8  C   UNL     1       5.012  -2.932   0.690  0.00  0.00    +0.156 C 
BRANCH   8   9
ATOM      9  O   UNL     1       4.502  -3.283   1.964  0.00  0.00    -0.395 OA
ATOM     10  H   UNL     1       5.154  -3.013   2.636  0.00  0.00    +0.209 HD
ENDBRANCH   8   9
ENDBRANCH   7   8
ENDBRANCH   6   7
ENDBRANCH   1   6
TORSDOF 5
