REMARK  Name = 
REMARK  6 active torsions:
REMARK  status: ('A' for Active; 'I' for Inactive)
REMARK    1  A    between atoms: O_1  and  C_2
REMARK    2  A    between atoms: C_2  and  C_3
REMARK    3  A    between atoms: N_7  and  O_8
REMARK    4  A    between atoms: C_9  and  O_11
REMARK    5  A    between atoms: C_12  and  O_14
REMARK    6  A    between atoms: C_15  and  O_17
REMARK                            x       y       z     vdW  Elec       q    Type
REMARK                         _______ _______ _______ _____ _____    ______ ____
ROOT
ATOM      1  C   UNK     1       2.805  -0.498   1.396  0.00  0.00    +0.221 C 
ATOM      2  C   UNK     1       4.343  -0.325   1.386  0.00  0.00    +0.191 C 
ATOM      3  C   UNK     1       5.026  -1.247   0.367  0.00  0.00    +0.187 C 
ATOM      4  C   UNK     1       4.607  -2.715   0.529  0.00  0.00    +0.265 C 
ATOM      5  C   UNK     1       3.078  -2.812   0.634  0.00  0.00    +0.365 C 
ATOM      6  N   UNK     1       2.482  -3.728  -0.072  0.00  0.00    +0.149 NA
ATOM      7  N   UNK     1       2.433  -1.920   1.461  0.00  0.00    -0.224 N 
ATOM      8  H   UNK     1       1.421  -2.029   1.372  0.00  0.00    +0.292 HD
ENDROOT
BRANCH   2   9
ATOM      9  O   UNK     1       4.865  -0.588   2.698  0.00  0.00    -0.385 OA
ATOM     10  H   UNK     1       5.811  -0.358   2.694  0.00  0.00    +0.210 HD
ENDBRANCH   2   9
BRANCH   3  11
ATOM     11  O   UNK     1       4.757  -0.800  -0.971  0.00  0.00    -0.386 OA
ATOM     12  H   UNK     1       4.900  -1.596  -1.529  0.00  0.00    +0.210 HD
ENDBRANCH   3  11
BRANCH   4  13
ATOM     13  O   UNK     1       5.090  -3.431  -0.613  0.00  0.00    -0.378 OA
ATOM     14  H   UNK     1       4.393  -4.096  -0.797  0.00  0.00    +0.211 HD
ENDBRANCH   4  13
BRANCH   6  15
ATOM     15  O   UNK     1       1.090  -3.634   0.091  0.00  0.00    -0.311 OA
ATOM     16  H   UNK     1       0.759  -4.335  -0.500  0.00  0.00    +0.361 HD
ENDBRANCH   6  15
BRANCH   1  17
ATOM     17  C   UNK     1       2.120   0.126   0.163  0.00  0.00    +0.205 C 
BRANCH  17  18
ATOM     18  O   UNK     1       0.698   0.043   0.316  0.00  0.00    -0.391 OA
ATOM     19  H   UNK     1       0.314   0.204  -0.563  0.00  0.00    +0.210 HD
ENDBRANCH  17  18
ENDBRANCH   1  17
TORSDOF 6
