REMARK  Name = 
REMARK  9 active torsions:
REMARK  status: ('A' for Active; 'I' for Inactive)
REMARK    1  A    between atoms: C_1  and  C_2
REMARK    2  A    between atoms: N_4  and  C_5
REMARK    3  A    between atoms: C_5  and  C_7
REMARK    4  A    between atoms: C_5  and  C_17
REMARK    5  A    between atoms: C_7  and  C_8
REMARK    6  A    between atoms: C_12  and  O_13
REMARK    7  A    between atoms: N_19  and  CA_20
REMARK    8  A    between atoms: CA_20  and  C_21
REMARK    9  A    between atoms: C_21  and  O_22
REMARK                            x       y       z     vdW  Elec       q    Type
REMARK                         _______ _______ _______ _____ _____    ______ ____
ROOT
ATOM      1  C   UNK A   1       4.549   0.638  -0.977  0.00  0.00    +0.163 C 
ENDROOT
BRANCH   1   4
ATOM      2  C   UNK A   0       0.820   1.317  -0.702  0.00  0.00    +0.109 C 
ATOM      3  C   UNK A   0       2.296   1.590  -0.598  0.00  0.00    +0.211 C 
ATOM      4  N   UNK A   1       3.089   0.570  -1.059  0.00  0.00    -0.304 N 
ATOM      5  H   UNK A   1       2.673  -0.169  -1.616  0.00  0.00    +0.149 HD
ATOM      6  O   UNK A   0       2.762   2.630  -0.142  0.00  0.00    -0.276 OA
ENDBRANCH   1   4
BRANCH   1   7
ATOM      7  C   UNK A   1       5.052   1.418  -2.205  0.00  0.00    +0.234 C 
ATOM      8  N   GLY A   2       5.067   2.791  -2.055  0.00  0.00    -0.303 N 
ATOM      9  H   GLY A   2       4.750   3.195  -1.173  0.00  0.00    +0.149 HD
ATOM     10  O   UNK A   1       5.323   0.878  -3.274  0.00  0.00    -0.274 OA
BRANCH   8  11
ATOM     11  CA  GLY A   2       5.679   3.650  -3.069  0.00  0.00    +0.224 C 
BRANCH  11  12
ATOM     12  C   GLY A   2       4.674   4.275  -4.027  0.00  0.00    +0.322 C 
ATOM     13  OXT GLY A   2       4.981   5.010  -4.957  0.00  0.00    -0.249 OA
BRANCH  12  14
ATOM     14  O   GLY A   2       3.385   3.982  -3.728  0.00  0.00    -0.480 OA
ATOM     15  H   GLY A   2       3.358   3.382  -2.955  0.00  0.00    +0.295 HD
ENDBRANCH  12  14
ENDBRANCH  11  12
ENDBRANCH   8  11
ENDBRANCH   1   7
BRANCH   1  16
ATOM     16  C   UNK A   1       5.197  -0.760  -0.967  0.00  0.00    +0.067 C 
BRANCH  16  17
ATOM     17  C   UNK A   1       4.736  -1.721   0.110  0.00  0.00    -0.043 A 
ATOM     18  C   UNK A   1       4.217  -1.297   1.341  0.00  0.00    +0.021 A 
ATOM     19  C   UNK A   1       3.706  -2.226   2.257  0.00  0.00    +0.056 A 
ATOM     20  I   UNK A   1       2.839  -1.488   4.015  0.00  0.00    -0.040 I 
ATOM     21  C   UNK A   1       3.745  -3.593   1.971  0.00  0.00    +0.143 A 
ATOM     22  C   UNK A   1       4.335  -4.028   0.781  0.00  0.00    +0.056 A 
ATOM     23  I   UNK A   1       4.468  -6.060   0.309  0.00  0.00    -0.040 I 
ATOM     24  C   UNK A   1       4.831  -3.100  -0.140  0.00  0.00    +0.021 A 
BRANCH  21  25
ATOM     25  O   UNK A   1       3.200  -4.484   2.855  0.00  0.00    -0.505 OA
ATOM     26  H   UNK A   1       3.256  -5.372   2.460  0.00  0.00    +0.292 HD
ENDBRANCH  21  25
ENDBRANCH  16  17
ENDBRANCH   1  16
TORSDOF 8
