REMARK  Name = 
REMARK  18 active torsions:
REMARK  status: ('A' for Active; 'I' for Inactive)
REMARK    1  A    between atoms: C_1  and  C_2
REMARK    2  A    between atoms: C_2  and  C_3
REMARK    3  A    between atoms: C_3  and  C_4
REMARK    4  A    between atoms: C_4  and  C_5
REMARK    5  A    between atoms: C_5  and  C_6
REMARK    6  A    between atoms: C_6  and  C_7
REMARK    7  A    between atoms: C_7  and  O_9
REMARK    8  A    between atoms: C_7  and  C_10
REMARK    9  A    between atoms: C_10  and  C_11
REMARK   10  A    between atoms: C_12  and  C_13
REMARK   11  A    between atoms: C_13  and  C_14
REMARK   12  A    between atoms: C_14  and  C_15
REMARK   13  A    between atoms: C_15  and  C_16
REMARK   14  A    between atoms: C_16  and  C_17
REMARK   15  A    between atoms: C_17  and  C_18
REMARK   16  A    between atoms: C_18  and  C_19
REMARK   17  A    between atoms: C_19  and  C_20
REMARK   18  A    between atoms: C_20  and  O_21
REMARK                            x       y       z     vdW  Elec       q    Type
REMARK                         _______ _______ _______ _____ _____    ______ ____
ROOT
ATOM      1  C   UNL     1       9.183   5.537   1.253  0.00  0.00    -0.029 C 
ATOM      2  C   UNL     1      10.402   5.946   0.873  0.00  0.00    -0.031 C 
ENDROOT
BRANCH   2   3
ATOM      3  C   UNL     1      10.953   7.309   1.174  0.00  0.00    +0.027 C 
BRANCH   3   4
ATOM      4  C   UNL     1      11.266   8.026  -0.140  0.00  0.00    +0.004 C 
BRANCH   4   5
ATOM      5  C   UNL     1      11.759   9.453   0.086  0.00  0.00    +0.000 C 
BRANCH   5   6
ATOM      6  C   UNL     1      12.063  10.125  -1.253  0.00  0.00    +0.000 C 
BRANCH   6   7
ATOM      7  C   UNL     1      12.558  11.557  -1.072  0.00  0.00    +0.001 C 
BRANCH   7   8
ATOM      8  C   UNL     1      12.857  12.205  -2.425  0.00  0.00    +0.011 C 
BRANCH   8   9
ATOM      9  C   UNL     1      13.353  13.639  -2.264  0.00  0.00    +0.120 C 
BRANCH   9  10
ATOM     10  C   UNL     1      13.650  14.281  -3.600  0.00  0.00    +0.305 C 
ATOM     11  O   UNL     1      13.518  13.747  -4.688  0.00  0.00    -0.251 OA
BRANCH  10  12
ATOM     12  O   UNL     1      14.090  15.555  -3.470  0.00  0.00    -0.481 OA
ATOM     13  H   UNL     1      14.146  15.857  -2.544  0.00  0.00    +0.295 HD
ENDBRANCH  10  12
ENDBRANCH   9  10
ENDBRANCH   8   9
ENDBRANCH   7   8
ENDBRANCH   6   7
ENDBRANCH   5   6
ENDBRANCH   4   5
ENDBRANCH   3   4
ENDBRANCH   2   3
BRANCH   1  14
ATOM     14  C   UNL     1       8.575   4.224   0.833  0.00  0.00    +0.058 C 
BRANCH  14  15
ATOM     15  C   UNL     1       7.219   4.434   0.127  0.00  0.00    +0.118 C 
BRANCH  15  16
ATOM     16  O   UNL     1       7.403   5.178  -1.084  0.00  0.00    -0.391 OA
ATOM     17  H   UNL     1       7.926   5.968  -0.863  0.00  0.00    +0.210 HD
ENDBRANCH  15  16
BRANCH  15  18
ATOM     18  C   UNL     1       6.519   3.123  -0.262  0.00  0.00    +0.031 C 
BRANCH  18  19
ATOM     19  C   UNL     1       6.253   2.222   0.939  0.00  0.00    +0.003 C 
BRANCH  19  20
ATOM     20  C   UNL     1       5.499   0.939   0.590  0.00  0.00    +0.000 C 
BRANCH  20  21
ATOM     21  C   UNL     1       5.353   0.097   1.860  0.00  0.00    -0.000 C 
BRANCH  21  23
ATOM     22  C   UNL     1       4.512  -1.998   2.935  0.00  0.00    +0.004 C 
ATOM     23  C   UNL     1       4.619  -1.219   1.631  0.00  0.00    -0.003 C 
ENDBRANCH  21  23
ENDBRANCH  20  21
ENDBRANCH  19  20
ENDBRANCH  18  19
ENDBRANCH  15  18
ENDBRANCH  14  15
ENDBRANCH   1  14
TORSDOF 17
