REMARK  Name = 
REMARK  33 active torsions:
REMARK  status: ('A' for Active; 'I' for Inactive)
REMARK    1  A    between atoms: C_1  and  C_2
REMARK    2  A    between atoms: C_2  and  C_3
REMARK    3  A    between atoms: C_3  and  C_4
REMARK    4  A    between atoms: C_4  and  C_5
REMARK    5  A    between atoms: C_5  and  C_6
REMARK    6  A    between atoms: C_6  and  S_8
REMARK    7  A    between atoms: S_8  and  C_9
REMARK    8  A    between atoms: C_9  and  C_10
REMARK    9  A    between atoms: C_10  and  N_11
REMARK   10  A    between atoms: C_12  and  C_14
REMARK   11  A    between atoms: C_14  and  C_15
REMARK   12  A    between atoms: C_15  and  N_16
REMARK   13  A    between atoms: C_17  and  C_19
REMARK   14  A    between atoms: C_19  and  O_21
REMARK   15  A    between atoms: C_19  and  C_22
REMARK   16  A    between atoms: C_22  and  C_23
REMARK   17  A    between atoms: C_22  and  C_24
REMARK   18  A    between atoms: C_22  and  C_25
REMARK   19  A    between atoms: C_25  and  O_26
REMARK   20  A    between atoms: O_26  and  P_27
REMARK   21  A    between atoms: P_27  and  O_28
REMARK   22  A    between atoms: P_27  and  O_30
REMARK   23  A    between atoms: O_30  and  P_31
REMARK   24  A    between atoms: P_31  and  O_32
REMARK   25  A    between atoms: P_31  and  O_34
REMARK   26  A    between atoms: O_34  and  C_35
REMARK   27  A    between atoms: C_35  and  C_36
REMARK   28  A    between atoms: C_39  and  N_51
REMARK   29  A    between atoms: C_41  and  O_43
REMARK   30  A    between atoms: C_44  and  O_46
REMARK   31  A    between atoms: O_46  and  P_47
REMARK   32  A    between atoms: P_47  and  O_48
REMARK   33  A    between atoms: P_47  and  O_49
REMARK                            x       y       z     vdW  Elec       q    Type
REMARK                         _______ _______ _______ _____ _____    ______ ____
ROOT
ATOM      1  O   UNL     1      30.646  -5.867   6.863  0.00  0.00    -0.186 OA
ENDROOT
BRANCH   1   2
ATOM      2  P   UNL     1      29.659  -5.169   8.101  0.00  0.00    +0.483 P 
ATOM      3  O   UNL     1      30.825  -5.228   9.088  0.00  0.00    -0.227 OA
BRANCH   2   4
ATOM      4  O   UNL     1      28.921  -6.614   8.330  0.00  0.00    -0.302 OA
ATOM      5  H   UNL     1      29.442  -7.085   9.021  0.00  0.00    +0.222 HD
ENDBRANCH   2   4
BRANCH   2   6
ATOM      6  O   UNL     1      28.672  -4.472   9.339  0.00  0.00    -0.284 OA
BRANCH   6   7
ATOM      7  C   UNL     1      28.881  -3.086   9.523  0.00  0.00    +0.206 C 
BRANCH   7   8
ATOM      8  C   UNL     1      27.972  -2.606  10.645  0.00  0.00    +0.179 C 
ATOM      9  C   UNL     1      26.496  -2.883  10.380  0.00  0.00    +0.194 C 
ATOM     10  C   UNL     1      26.182  -4.169  11.138  0.00  0.00    +0.196 C 
ATOM     11  C   UNL     1      27.470  -4.480  11.917  0.00  0.00    +0.253 C 
ATOM     12  O   UNL     1      28.287  -3.291  11.873  0.00  0.00    -0.346 OA
BRANCH  11  13
ATOM     13  N   UNL     1      27.218  -4.847  13.298  0.00  0.00    -0.286 N 
ATOM     14  C   UNL     1      26.439  -5.898  13.700  0.00  0.00    +0.167 A 
ATOM     15  N   UNL     1      25.790  -6.790  12.928  0.00  0.00    -0.216 NA
ATOM     16  C   UNL     1      25.107  -7.669  13.698  0.00  0.00    +0.225 A 
ATOM     17  N   UNL     1      25.011  -7.711  15.046  0.00  0.00    -0.219 NA
ATOM     18  C   UNL     1      25.663  -6.770  15.766  0.00  0.00    +0.147 A 
ATOM     19  N   UNL     1      25.541  -6.784  17.149  0.00  0.00    -0.341 N 
ATOM     20  H   UNL     1      26.285  -6.285  17.624  0.00  0.00    +0.144 HD
ATOM     21  H   UNL     1      25.271  -7.689  17.508  0.00  0.00    +0.144 HD
ATOM     22  C   UNL     1      26.441  -5.824  15.082  0.00  0.00    +0.147 A 
ATOM     23  N   UNL     1      27.244  -4.790  15.519  0.00  0.00    -0.231 NA
ATOM     24  C   UNL     1      27.709  -4.239  14.418  0.00  0.00    +0.203 A 
ENDBRANCH  11  13
BRANCH  10  25
ATOM     25  O   UNL     1      25.846  -5.223  10.233  0.00  0.00    -0.385 OA
ATOM     26  H   UNL     1      25.625  -6.003  10.783  0.00  0.00    +0.210 HD
ENDBRANCH  10  25
BRANCH   9  27
ATOM     27  O   UNL     1      25.822  -1.783  10.979  0.00  0.00    -0.278 OA
BRANCH  27  28
ATOM     28  P   UNL     1      24.262  -1.569  10.737  0.00  0.00    +0.473 P 
ATOM     29  O   UNL     1      23.563  -2.619   9.956  0.00  0.00    -0.228 OA
BRANCH  28  30
ATOM     30  O   UNL     1      24.227  -0.104  10.110  0.00  0.00    -0.303 OA
ATOM     31  H   UNL     1      24.432  -0.118   9.157  0.00  0.00    +0.222 HD
ENDBRANCH  28  30
BRANCH  28  32
ATOM     32  O   UNL     1      23.797  -1.342  12.242  0.00  0.00    -0.303 OA
ATOM     33  H   UNL     1      24.505  -0.913  12.756  0.00  0.00    +0.222 HD
ENDBRANCH  28  32
ENDBRANCH  27  28
ENDBRANCH   9  27
ENDBRANCH   7   8
ENDBRANCH   6   7
ENDBRANCH   2   6
ENDBRANCH   1   2
BRANCH   1  34
ATOM     34  P   UNL     1      32.128  -5.501   6.457  0.00  0.00    +0.483 P 
ATOM     35  O   UNL     1      33.160  -6.530   6.752  0.00  0.00    -0.227 OA
BRANCH  34  36
ATOM     36  O   UNL     1      32.523  -4.061   7.025  0.00  0.00    -0.302 OA
ATOM     37  H   UNL     1      33.490  -3.982   6.880  0.00  0.00    +0.222 HD
ENDBRANCH  34  36
BRANCH  34  38
ATOM     38  O   UNL     1      31.936  -5.125   4.910  0.00  0.00    -0.286 OA
BRANCH  38  39
ATOM     39  C   UNL     1      30.778  -4.380   4.573  0.00  0.00    +0.181 C 
BRANCH  39  40
ATOM     40  C   UNL     1      30.543  -4.325   3.055  0.00  0.00    +0.024 C 
ATOM     41  C   UNL     1      29.180  -3.622   2.857  0.00  0.00    +0.016 C 
ATOM     42  C   UNL     1      31.657  -3.452   2.460  0.00  0.00    +0.016 C 
BRANCH  40  43
ATOM     43  C   UNL     1      30.537  -5.778   2.474  0.00  0.00    +0.208 C 
BRANCH  43  46
ATOM     44  N   UNL     1      30.819  -6.980   0.354  0.00  0.00    -0.313 N 
ATOM     45  H   UNL     1      31.460  -7.551   0.892  0.00  0.00    +0.149 HD
ATOM     46  C   UNL     1      30.283  -5.860   0.957  0.00  0.00    +0.242 C 
ATOM     47  O   UNL     1      29.646  -5.024   0.327  0.00  0.00    -0.273 OA
BRANCH  44  48
ATOM     48  C   UNL     1      30.803  -7.154  -1.080  0.00  0.00    +0.113 C 
BRANCH  48  49
ATOM     49  C   UNL     1      31.495  -6.038  -1.865  0.00  0.00    +0.114 C 
BRANCH  49  52
ATOM     50  N   UNL     1      33.368  -5.170  -0.585  0.00  0.00    -0.314 N 
ATOM     51  H   UNL     1      32.659  -4.629  -0.107  0.00  0.00    +0.149 HD
ATOM     52  C   UNL     1      32.982  -6.017  -1.598  0.00  0.00    +0.215 C 
ATOM     53  O   UNL     1      33.762  -6.707  -2.242  0.00  0.00    -0.276 OA
BRANCH  50  54
ATOM     54  C   UNL     1      34.758  -5.002  -0.187  0.00  0.00    +0.115 C 
BRANCH  54  55
ATOM     55  C   UNL     1      35.052  -5.459   1.245  0.00  0.00    +0.096 C 
BRANCH  55  56
ATOM     56  S   UNL     1      34.744  -7.237   1.473  0.00  0.00    -0.087 S 
BRANCH  56  57
ATOM     57  C   UNL     1      35.091  -7.385   3.200  0.00  0.00    +0.189 C 
ATOM     58  O   UNL     1      35.530  -6.445   3.855  0.00  0.00    -0.285 OA
BRANCH  57  59
ATOM     59  C   UNL     1      34.869  -8.794   3.726  0.00  0.00    +0.086 C 
BRANCH  59  60
ATOM     60  C   UNL     1      34.545  -8.802   5.214  0.00  0.00    +0.008 C 
BRANCH  60  61
ATOM     61  C   UNL     1      34.302 -10.203   5.773  0.00  0.00    +0.000 C 
BRANCH  61  63
ATOM     62  C   UNL     1      33.730 -11.544   7.835  0.00  0.00    +0.004 C 
ATOM     63  C   UNL     1      33.993 -10.155   7.273  0.00  0.00    -0.003 C 
ENDBRANCH  61  63
ENDBRANCH  60  61
ENDBRANCH  59  60
ENDBRANCH  57  59
ENDBRANCH  56  57
ENDBRANCH  55  56
ENDBRANCH  54  55
ENDBRANCH  50  54
ENDBRANCH  49  52
ENDBRANCH  48  49
ENDBRANCH  44  48
ENDBRANCH  43  46
BRANCH  43  64
ATOM     64  O   UNL     1      31.771  -6.456   2.738  0.00  0.00    -0.382 OA
ATOM     65  H   UNL     1      31.567  -7.388   2.923  0.00  0.00    +0.210 HD
ENDBRANCH  43  64
ENDBRANCH  40  43
ENDBRANCH  39  40
ENDBRANCH  38  39
ENDBRANCH  34  38
ENDBRANCH   1  34
TORSDOF 30
