REMARK  Name = 
REMARK  11 active torsions:
REMARK  status: ('A' for Active; 'I' for Inactive)
REMARK    1  A    between atoms: NE_4  and  CD_5
REMARK    2  A    between atoms: CD_5  and  CG_6
REMARK    3  A    between atoms: CG_6  and  CB_7
REMARK    4  A    between atoms: CB_7  and  CA_8
REMARK    5  A    between atoms: CA_8  and  N_10
REMARK    6  A    between atoms: CA_8  and  C_18
REMARK    7  A    between atoms: C_11  and  C_13
REMARK    8  A    between atoms: C_13  and  C_14
REMARK    9  A    between atoms: C_14  and  C_15
REMARK   10  A    between atoms: C_15  and  O_16
REMARK   11  A    between atoms: C_18  and  O_19
REMARK                            x       y       z     vdW  Elec       q    Type
REMARK                         _______ _______ _______ _____ _____    ______ ____
ROOT
ATOM      1  CA  ARG A   1       7.037   2.596  -3.271  0.00  0.00    +0.182 C 
ENDROOT
BRANCH   1   2
ATOM      2  N   ARG A   1       6.502   3.940  -3.044  0.00  0.00    -0.302 N 
ATOM      3  H   ARG A   1       6.961   4.488  -2.322  0.00  0.00    +0.150 HD
ATOM      4  C   UNK A   0       5.686   4.560  -3.942  0.00  0.00    +0.214 C 
ATOM      5  O   UNK A   0       5.342   4.071  -5.017  0.00  0.00    -0.276 OA
BRANCH   4   6
ATOM      6  C   UNK A   0       5.249   5.953  -3.581  0.00  0.00    +0.107 C 
BRANCH   6   7
ATOM      7  C   UNK A   0       6.274   6.974  -4.030  0.00  0.00    +0.129 C 
BRANCH   7   8
ATOM      8  C   UNK A   0       6.503   7.158  -5.515  0.00  0.00    +0.305 C 
ATOM      9  O   UNK A   0       7.239   8.047  -5.929  0.00  0.00    -0.251 OA
BRANCH   8  10
ATOM     10  O   UNK A   0       5.890   6.323  -6.369  0.00  0.00    -0.481 OA
ATOM     11  H   UNK A   0       5.415   5.535  -6.022  0.00  0.00    +0.295 HD
ENDBRANCH   8  10
ENDBRANCH   7   8
ENDBRANCH   6   7
ENDBRANCH   4   6
ENDBRANCH   1   2
BRANCH   1  12
ATOM     12  C   ARG A   1       8.566   2.698  -3.271  0.00  0.00    +0.325 C 
ATOM     13  OXT ARG A   1       9.183   3.501  -2.581  0.00  0.00    -0.249 OA
BRANCH  12  14
ATOM     14  O   ARG A   1       9.186   1.790  -4.055  0.00  0.00    -0.479 OA
ATOM     15  H   ARG A   1       8.594   1.222  -4.584  0.00  0.00    +0.295 HD
ENDBRANCH  12  14
ENDBRANCH   1  12
BRANCH   1  16
ATOM     16  CB  ARG A   1       6.594   1.646  -2.155  0.00  0.00    +0.037 C 
BRANCH  16  17
ATOM     17  CG  ARG A   1       5.065   1.524  -2.055  0.00  0.00    +0.039 C 
BRANCH  17  18
ATOM     18  CD  ARG A   1       4.612   0.559  -0.958  0.00  0.00    +0.196 C 
BRANCH  18  23
ATOM     19  NH1 ARG A   1       5.170   0.945   2.568  0.00  0.00    -0.289 N 
ATOM     20 HH11 ARG A   1       5.159   1.958   2.526  0.00  0.00    +0.255 HD
ATOM     21 HH12 ARG A   1       4.781   0.621   3.443  0.00  0.00    +0.255 HD
ATOM     22  CZ  ARG A   1       4.637   0.375   1.472  0.00  0.00    +0.376 C 
ATOM     23  NE  ARG A   1       4.941   1.084   0.359  0.00  0.00    -0.276 N 
ATOM     24  HE  ARG A   1       5.873   1.472   0.427  0.00  0.00    +0.258 HD
ATOM     25  NH2 ARG A   1       3.944  -0.701   1.493  0.00  0.00    -0.130 NA
ATOM     26  HH2 ARG A   1       3.891  -1.057   2.448  0.00  0.00    +0.306 HD
ENDBRANCH  18  23
ENDBRANCH  17  18
ENDBRANCH  16  17
ENDBRANCH   1  16
TORSDOF 11
