REMARK  Name = 
REMARK  5 active torsions:
REMARK  status: ('A' for Active; 'I' for Inactive)
REMARK    1  A    between atoms: C_1  and  C_2
REMARK    2  A    between atoms: C_2  and  O_3
REMARK    3  A    between atoms: O_3  and  C_4
REMARK    4  A    between atoms: C_4  and  C_5
REMARK    5  A    between atoms: C_5  and  O_6
REMARK                            x       y       z     vdW  Elec       q    Type
REMARK                         _______ _______ _______ _____ _____    ______ ____
ROOT
ATOM      1  C   UNL     1       4.500  -0.136  -1.376  0.00  0.00    +0.187 C 
ENDROOT
BRANCH   1   2
ATOM      2  O   UNL     1       3.066  -0.129  -1.369  0.00  0.00    -0.378 OA
BRANCH   2   4
ATOM      3  C   UNL     1       1.042  -0.043  -0.098  0.00  0.00    +0.034 C 
ATOM      4  C   UNL     1       2.556  -0.071  -0.037  0.00  0.00    +0.156 C 
ENDBRANCH   2   4
ENDBRANCH   1   2
BRANCH   1   5
ATOM      5  C   UNL     1       4.973  -0.223  -2.823  0.00  0.00    +0.184 C 
BRANCH   5   6
ATOM      6  O   UNL     1       4.508   0.909  -3.555  0.00  0.00    -0.393 OA
ATOM      7  H   UNL     1       3.553   0.965  -3.354  0.00  0.00    +0.209 HD
ENDBRANCH   5   6
ENDBRANCH   1   5
TORSDOF 4
