REMARK  Name = 
REMARK  7 active torsions:
REMARK  status: ('A' for Active; 'I' for Inactive)
REMARK    1  A    between atoms: C_1  and  C_2
REMARK    2  A    between atoms: C_2  and  C_3
REMARK    3  A    between atoms: C_3  and  N_4
REMARK    4  A    between atoms: C_5  and  C_30
REMARK    5  A    between atoms: C_7  and  C_22
REMARK    6  A    between atoms: C_8  and  C_9
REMARK    7  A    between atoms: N_14  and  C_15
REMARK                            x       y       z     vdW  Elec       q    Type
REMARK                         _______ _______ _______ _____ _____    ______ ____
ROOT
ATOM      1  N   UNL     1       4.763  -0.054  -1.446  0.00  0.00    -0.326 N 
ATOM      2  C   UNL     1       5.459   0.007  -0.234  0.00  0.00    +0.095 A 
ATOM      3  C   UNL     1       6.796   0.038  -0.623  0.00  0.00    +0.099 A 
ATOM      4  N   UNL     1       6.918  -0.007  -1.981  0.00  0.00    -0.231 NA
ATOM      5  C   UNL     1       5.699  -0.037  -2.476  0.00  0.00    +0.114 A 
ENDROOT
BRANCH   2   6
ATOM      6  C   UNL     1       4.901  -0.046   1.122  0.00  0.00    +0.094 A 
ATOM      7  N   UNL     1       5.643  -0.776   1.988  0.00  0.00    -0.213 NA
ATOM      8  C   UNL     1       5.239  -0.878   3.255  0.00  0.00    +0.216 A 
ATOM      9  N   UNL     1       6.102  -1.504   4.113  0.00  0.00    -0.311 N 
ATOM     10  H   UNL     1       7.073  -1.319   3.906  0.00  0.00    +0.149 HD
ATOM     11  N   UNL     1       4.097  -0.348   3.700  0.00  0.00    -0.223 NA
ATOM     12  C   UNL     1       3.405   0.418   2.841  0.00  0.00    +0.116 A 
ATOM     13  C   UNL     1       3.780   0.633   1.537  0.00  0.00    +0.050 A 
BRANCH   9  14
ATOM     14  C   UNL     1       5.693  -1.989   5.414  0.00  0.00    +0.073 C 
ATOM     15  C   UNL     1       5.589  -0.887   6.476  0.00  0.00    +0.022 C 
ATOM     16  C   UNL     1       6.936  -0.389   6.991  0.00  0.00    +0.002 C 
ATOM     17  C   UNL     1       7.826  -1.537   7.451  0.00  0.00    +0.000 C 
ATOM     18  C   UNL     1       8.009  -2.569   6.346  0.00  0.00    +0.002 C 
ATOM     19  C   UNL     1       6.665  -3.100   5.847  0.00  0.00    +0.022 C 
ENDBRANCH   9  14
ENDBRANCH   2   6
BRANCH   3  20
ATOM     20  C   UNL     1       7.977   0.103   0.228  0.00  0.00    +0.004 A 
ATOM     21  C   UNL     1       7.996   0.876   1.395  0.00  0.00    +0.031 A 
ATOM     22  C   UNL     1       9.097   0.854   2.252  0.00  0.00    +0.060 A 
ATOM     23 CL   UNL     1       8.974   1.739   3.731  0.00  0.00    -0.082 Cl
ATOM     24  C   UNL     1      10.229   0.110   1.910  0.00  0.00    +0.059 A 
ATOM     25 CL   UNL     1      11.630   0.048   2.918  0.00  0.00    -0.082 Cl
ATOM     26  C   UNL     1      10.248  -0.614   0.715  0.00  0.00    +0.022 A 
ATOM     27  C   UNL     1       9.124  -0.622  -0.118  0.00  0.00    +0.011 A 
ENDBRANCH   3  20
BRANCH   5  28
ATOM     28  C   UNL     1       5.409  -0.013  -3.965  0.00  0.00    +0.058 C 
ATOM     29  C   UNL     1       6.481  -0.764  -4.776  0.00  0.00    +0.026 C 
ATOM     30  C   UNL     1       7.796   0.008  -4.902  0.00  0.00    +0.081 C 
ATOM     31  N   UNL     1       7.590   1.364  -5.419  0.00  0.00    -0.316 NA
ATOM     32  H   UNL     1       8.491   1.844  -5.414  0.00  0.00    +0.122 HD
ATOM     33  C   UNL     1       6.660   2.117  -4.577  0.00  0.00    +0.081 C 
ATOM     34  C   UNL     1       5.298   1.426  -4.490  0.00  0.00    +0.026 C 
ENDBRANCH   5  28
BRANCH   1  35
ATOM     35  C   UNL     1       3.320  -0.040  -1.633  0.00  0.00    +0.123 C 
BRANCH  35  37
ATOM     36  C   UNL     1       2.870  -2.558  -1.539  0.00  0.00    +0.005 C 
ATOM     37  C   UNL     1       2.517  -1.183  -1.003  0.00  0.00    +0.018 C 
ENDBRANCH  35  37
ENDBRANCH   1  35
TORSDOF 6
