REMARK  Name = 
REMARK  3 active torsions:
REMARK  status: ('A' for Active; 'I' for Inactive)
REMARK    1  A    between atoms: C_5  and  C_9
REMARK    2  A    between atoms: N_15  and  C_26
REMARK    3  A    between atoms: C_18  and  N_20
REMARK                            x       y       z     vdW  Elec       q    Type
REMARK                         _______ _______ _______ _____ _____    ______ ____
ROOT
ATOM      1  C   UNL     1       6.591  -0.242  -0.578  0.00  0.00    -0.007 A 
ATOM      2  C   UNL     1       7.302   0.975  -0.702  0.00  0.00    +0.032 A 
ATOM      3  C   UNL     1       8.655   1.062  -1.063  0.00  0.00    +0.032 A 
ATOM      4  C   UNL     1       9.365  -0.139  -1.196  0.00  0.00    +0.047 A 
ATOM      5  C   UNL     1       8.766  -1.396  -1.039  0.00  0.00    +0.050 A 
ATOM      6  N   UNL     1       9.512  -2.634  -1.150  0.00  0.00    -0.221 N 
ATOM      7  C   UNL     1       8.891  -3.868  -1.012  0.00  0.00    +0.311 C 
ATOM      8  O   UNL     1       9.479  -4.946  -0.869  0.00  0.00    -0.252 OA
ATOM      9  N   UNL     1       7.539  -3.877  -1.149  0.00  0.00    -0.295 N 
ATOM     10  H   UNL     1       7.162  -4.810  -1.064  0.00  0.00    +0.151 HD
ATOM     11  C   UNL     1       6.723  -2.793  -0.716  0.00  0.00    +0.143 C 
ATOM     12  C   UNL     1       7.365  -1.439  -0.774  0.00  0.00    -0.001 A 
ENDROOT
BRANCH   1  18
ATOM     13  F   UNL     1       0.916   0.116   0.095  0.00  0.00    -0.205 F 
ATOM     14  C   UNL     1       2.247   0.032  -0.044  0.00  0.00    +0.126 A 
ATOM     15  C   UNL     1       2.931  -1.033   0.505  0.00  0.00    +0.077 A 
ATOM     16  C   UNL     1       4.326  -1.097   0.387  0.00  0.00    +0.134 A 
ATOM     17  F   UNL     1       4.911  -2.085   1.071  0.00  0.00    -0.205 F 
ATOM     18  C   UNL     1       5.088  -0.168  -0.352  0.00  0.00    +0.018 A 
ATOM     19  C   UNL     1       4.332   0.911  -0.883  0.00  0.00    +0.014 A 
ATOM     20  C   UNL     1       2.940   1.024  -0.711  0.00  0.00    +0.039 A 
ENDBRANCH   1  18
BRANCH   6  21
ATOM     21  C   UNL     1      10.854  -2.661  -1.692  0.00  0.00    +0.079 A 
ATOM     22  C   UNL     1      11.969  -2.135  -1.013  0.00  0.00    +0.064 A 
ATOM     23 CL   UNL     1      11.867  -1.501   0.597  0.00  0.00    -0.082 Cl
ATOM     24  C   UNL     1      13.257  -2.184  -1.579  0.00  0.00    +0.022 A 
ATOM     25  C   UNL     1      13.478  -2.822  -2.799  0.00  0.00    +0.003 A 
ATOM     26  C   UNL     1      12.410  -3.423  -3.449  0.00  0.00    +0.022 A 
ATOM     27  C   UNL     1      11.115  -3.338  -2.915  0.00  0.00    +0.064 A 
ATOM     28 CL   UNL     1       9.873  -4.059  -3.897  0.00  0.00    -0.082 Cl
ENDBRANCH   6  21
BRANCH   3  29
ATOM     29  N   UNL     1       9.205   2.297  -1.392  0.00  0.00    -0.327 N 
ATOM     30  C   UNL     1       9.198   3.392  -0.400  0.00  0.00    +0.120 C 
ATOM     31  C   UNL     1       9.303   4.758  -1.132  0.00  0.00    +0.100 C 
ATOM     32  N   UNL     1      10.435   4.858  -2.078  0.00  0.00    -0.313 NA
ATOM     33  H   UNL     1      10.341   5.720  -2.615  0.00  0.00    +0.122 HD
ATOM     34  C   UNL     1      10.403   3.715  -3.009  0.00  0.00    +0.100 C 
ATOM     35  C   UNL     1      10.370   2.350  -2.292  0.00  0.00    +0.120 C 
ENDBRANCH   3  29
TORSDOF 3
