REMARK  Name = 
REMARK  7 active torsions:
REMARK  status: ('A' for Active; 'I' for Inactive)
REMARK    1  A    between atoms: C_1  and  HG_2
REMARK    2  A    between atoms: HG_2  and  S_3
REMARK    3  A    between atoms: S_3  and  C_4
REMARK    4  A    between atoms: C_4  and  C_5
REMARK    5  A    between atoms: C_5  and  N_7
REMARK    6  A    between atoms: C_5  and  C_8
REMARK    7  A    between atoms: C_8  and  O_9
REMARK                            x       y       z     vdW  Elec       q    Type
REMARK                         _______ _______ _______ _____ _____    ______ ____
ROOT
ATOM      1  C   UNK     1       0.000   0.0008881977749096058334861746298493931334601849837391072032801216898039788857196544.000  0.00  0.00    +0.000 C 
ENDROOT
BRANCH   1   2
ATOM      2  N   UNK     1       0.000   0.000   0.000  0.00  0.00    +0.000 NA
ATOM      3  H   UNK     1       0.000724871945584056369527404256122693727540953294498331996338123851369248631067161835390324433440527628814078910561653914745298662730674249413524449796590196159482412393938580234093708141681920287154175675421654183471871001589023361611722175545344.000   0.000  0.00  0.00    +0.000 HD
ATOM      4  H   UNK     1    724871943994277843011478306530138731355350677915280714810626521562859344128485659839474501837708138173544917140354478511436443767554551448350879859751245989840242907393218338648357838398448634667418867920584872297505337588109086433414532300800.000   0.000   0.000  0.00  0.00    +0.000 HD
ENDBRANCH   1   2
BRANCH   1   5
ATOM      5  C   UNK     1       0.000   0.000   0.000  0.00  0.00    +0.000 C 
ATOM      6  O   UNK     1    973960385160816472985599349775901592046697731042646246830337489820607839435592308525604329783117262909962742977882301140003295792642868117504.000   0.000   0.000  0.00  0.00    +0.000 OA
BRANCH   5   7
ATOM      7  O   UNK     1    53800447515913610533795521718687777367722588760799502059772056558028925609672724660623413408635649734930590676266945017202464965941864910802997319051708587341168440106461534183160209197135483331320787892032906408825052925652733896755295289344.00060220186291808038320814801557627832886522943729703153983856045862757604603481034185982800128460530004219720883517259581997096292056085863417103520075621140835691603945358098432.000162833797869905474977047246888718883586852737130477750035114092462014405297783025815758673328486446405929437822285049120238832975872.000  0.00  0.00    +0.000 OA
ATOM      8  H   UNK     1       0.000   0.000   0.000  0.00  0.00    +0.000 HD
ENDBRANCH   5   7
ENDBRANCH   1   5
BRANCH   1   9
ATOM      9  C   UNK     1       0.000   0.000   0.000  0.00  0.00    +0.000 C 
BRANCH   9  10
ATOM     10  S   UNK     1       0.000   0.000   0.000  0.00  0.00    +0.000 S 
BRANCH  10  12
ATOM     11  C   UNK     1       0.000   0.000   0.000  0.00  0.00    +0.000 C 
ATOM     12 HG   UNK     1       0.000   0.0008881977749095995805688568092664329445772912658071882688838322822004981610053632.000  0.00  0.00    +0.000 Hg
ENDBRANCH  10  12
ENDBRANCH   9  10
ENDBRANCH   1   9
TORSDOF 6
