REMARK  Name = 
REMARK  3 active torsions:
REMARK  status: ('A' for Active; 'I' for Inactive)
REMARK    1  A    between atoms: C_4  and  O_5
REMARK    2  A    between atoms: C_6  and  N_7
REMARK    3  A    between atoms: C_8  and  O_9
REMARK                            x       y       z     vdW  Elec       q    Type
REMARK                         _______ _______ _______ _____ _____    ______ ____
ROOT
ATOM      1  N   UNL     1       1.255   0.045  -0.189  0.00  0.00    -0.327 N 
ATOM      2  H   UNL     1       0.903  -0.829   0.177  0.00  0.00    +0.145 HD
ATOM      3  H   UNL     1       0.869   0.901   0.182  0.00  0.00    +0.145 HD
ATOM      4  C   UNL     1       2.632   0.057  -0.138  0.00  0.00    +0.219 A 
ATOM      5  N   UNL     1       3.251  -1.123  -0.071  0.00  0.00    -0.178 NA
ATOM      6  C   UNL     1       4.592  -1.082  -0.056  0.00  0.00    +0.242 A 
ATOM      7  C   UNL     1       5.355   0.068  -0.041  0.00  0.00    +0.149 A 
ATOM      8  C   UNL     1       4.578   1.202  -0.121  0.00  0.00    +0.242 A 
ATOM      9  N   UNL     1       3.241   1.248  -0.146  0.00  0.00    -0.178 NA
ENDROOT
BRANCH   7  10
ATOM     10  N   UNL     1       6.760   0.072  -0.119  0.00  0.00    -0.350 N 
ATOM     11  H   UNL     1       7.195  -0.566   0.543  0.00  0.00    +0.143 HD
ATOM     12  H   UNL     1       7.109   1.024   0.016  0.00  0.00    +0.143 HD
ENDBRANCH   7  10
BRANCH   6  13
ATOM     13  O   UNL     1       5.215  -2.303  -0.103  0.00  0.00    -0.491 OA
ATOM     14  H   UNL     1       6.097  -2.107  -0.464  0.00  0.00    +0.294 HD
ENDBRANCH   6  13
BRANCH   8  15
ATOM     15  O   UNL     1       5.172   2.431  -0.139  0.00  0.00    -0.491 OA
ATOM     16  H   UNL     1       4.384   3.001  -0.200  0.00  0.00    +0.294 HD
ENDBRANCH   8  15
TORSDOF 3
