REMARK  Name = 
REMARK  2 active torsions:
REMARK  status: ('A' for Active; 'I' for Inactive)
REMARK    1  A    between atoms: C_2  and  C_6
REMARK    2  A    between atoms: C_11  and  C_15
REMARK                            x       y       z     vdW  Elec       q    Type
REMARK                         _______ _______ _______ _____ _____    ______ ____
ROOT
ATOM      1  C   UNL     1       3.156  -0.843   1.085  0.00  0.00    +0.063 A 
ATOM      2  C   UNL     1       3.922  -0.179   2.063  0.00  0.00    +0.045 A 
ATOM      3  C   UNL     1       4.542  -0.926   3.074  0.00  0.00    +0.090 A 
ATOM      4  C   UNL     1       4.375  -2.301   3.096  0.00  0.00    +0.067 A 
ATOM      5  N   UNL     1       5.091  -2.693   4.188  0.00  0.00    -0.338 N 
ATOM      6  H   UNL     1       5.248  -3.623   4.577  0.00  0.00    +0.167 HD
ATOM      7  C   UNL     1       5.671  -1.588   4.770  0.00  0.00    +0.139 A 
ATOM      8  C   UNL     1       3.626  -3.005   2.158  0.00  0.00    +0.028 A 
ATOM      9  N   UNL     1       5.335  -0.492   4.103  0.00  0.00    -0.228 NA
ATOM     10  C   UNL     1       3.027  -2.246   1.145  0.00  0.00    +0.018 A 
ENDROOT
BRANCH   7  11
ATOM     11  C   UNL     1       6.538  -1.727   5.958  0.00  0.00    +0.012 A 
ATOM     12  C   UNL     1       6.810  -3.017   6.538  0.00  0.00    -0.097 A 
ATOM     13  O   UNL     1       6.330  -4.128   6.109  0.00  0.00    -0.873 OA
ATOM     14  C   UNL     1       7.673  -3.000   7.657  0.00  0.00    -0.005 A 
ATOM     15  C   UNL     1       8.231  -1.831   8.181  0.00  0.00    +0.038 A 
ATOM     16  C   UNL     1       7.932  -0.618   7.593  0.00  0.00    +0.124 A 
ATOM     17  F   UNL     1       8.464   0.509   8.091  0.00  0.00    -0.205 F 
ATOM     18  C   UNL     1       7.095  -0.552   6.493  0.00  0.00    +0.049 A 
ENDBRANCH   7  11
BRANCH   1  22
ATOM     19  N   UNL     1       3.088   0.993  -0.482  0.00  0.00    -0.250 N 
ATOM     20  H   UNL     1       4.014   1.256  -0.156  0.00  0.00    +0.288 HD
ATOM     21  H   UNL     1       2.665   1.571  -1.193  0.00  0.00    +0.288 HD
ATOM     22  C   UNL     1       2.497  -0.071   0.019  0.00  0.00    +0.266 C 
ATOM     23  N   UNL     1       1.313  -0.444  -0.420  0.00  0.00    -0.288 N 
ATOM     24  H   UNL     1       0.823   0.050  -1.151  0.00  0.00    +0.301 HD
ATOM     25  H   UNL     1       0.848  -1.242   0.000  0.00  0.00    +0.301 HD
ENDBRANCH   1  22
TORSDOF 2
