REMARK  Name = 
REMARK  12 active torsions:
REMARK  status: ('A' for Active; 'I' for Inactive)
REMARK    1  A    between atoms: C_1  and  N_2
REMARK    2  A    between atoms: N_2  and  C_3
REMARK    3  A    between atoms: N_2  and  C_14
REMARK    4  A    between atoms: C_3  and  C_4
REMARK    5  A    between atoms: C_4  and  O_5
REMARK    6  A    between atoms: O_5  and  P_6
REMARK    7  A    between atoms: P_6  and  O_9
REMARK    8  A    between atoms: O_9  and  P_10
REMARK    9  A    between atoms: C_14  and  C_15
REMARK   10  A    between atoms: C_15  and  C_16
REMARK   11  A    between atoms: C_17  and  C_18
REMARK   12  A    between atoms: C_17  and  C_19
REMARK                            x       y       z     vdW  Elec       q    Type
REMARK                         _______ _______ _______ _____ _____    ______ ____
ROOT
ATOM      1  C   UNL     1       3.839  -2.498  -6.743  0.00  0.00    +0.183 C 
ENDROOT
BRANCH   1   2
ATOM      2  C   UNL     1       3.816  -1.822  -8.127  0.00  0.00    +0.112 C 
BRANCH   2   4
ATOM      3  C   UNL     1       6.122  -2.310  -8.617  0.00  0.00    +0.105 C 
ATOM      4  N   UNL     1       4.759  -2.369  -9.168  0.00  0.00    -0.303 NA
BRANCH   4   5
ATOM      5  C   UNL     1       4.634  -1.468 -10.339  0.00  0.00    +0.088 C 
BRANCH   5   6
ATOM      6  C   UNL     1       5.414  -1.956 -11.567  0.00  0.00    +0.042 C 
BRANCH   6   7
ATOM      7  C   UNL     1       5.240  -1.048 -12.759  0.00  0.00    -0.027 C 
ATOM      8  C   UNL     1       5.989   0.032 -13.062  0.00  0.00    -0.080 C 
ATOM      9  C   UNL     1       5.721   0.835 -14.303  0.00  0.00    +0.038 C 
ATOM     10  C   UNL     1       7.106   0.559 -12.202  0.00  0.00    +0.038 C 
ENDBRANCH   6   7
ENDBRANCH   5   6
ENDBRANCH   4   5
ENDBRANCH   2   4
ENDBRANCH   1   2
BRANCH   1  11
ATOM     11  O   UNL     1       2.865  -1.968  -5.867  0.00  0.00    -0.326 OA
BRANCH  11  12
ATOM     12  P   UNL     1       3.034  -0.375  -5.385  0.00  0.00    +0.215 P 
ATOM     13  O   UNL     1       2.129   0.163  -6.758  0.00  0.00    -0.437 OA
ATOM     14  O   UNL     1       4.385   0.150  -5.981  0.00  0.00    -0.517 OA
BRANCH  12  15
ATOM     15  O   UNL     1       3.938  -0.913  -4.012  0.00  0.00    -0.314 OA
BRANCH  15  16
ATOM     16  P   UNL     1       3.232  -0.940  -2.537  0.00  0.00    -0.007 P 
ATOM     17  O   UNL     1       2.062  -1.910  -2.645  0.00  0.00    -0.637 OA
ATOM     18  O   UNL     1       2.803   0.497  -2.262  0.00  0.00    -0.577 OA
ATOM     19  O   UNL     1       4.328  -1.435  -1.590  0.00  0.00    -0.577 OA
ENDBRANCH  15  16
ENDBRANCH  12  15
ENDBRANCH  11  12
ENDBRANCH   1  11
TORSDOF 9
