REMARK  Name = 
REMARK  15 active torsions:
REMARK  status: ('A' for Active; 'I' for Inactive)
REMARK    1  A    between atoms: C_2  and  C_4
REMARK    2  A    between atoms: C_4  and  C_6
REMARK    3  A    between atoms: C_4  and  N_10
REMARK    4  A    between atoms: C_6  and  C_7
REMARK    5  A    between atoms: C_7  and  O_8
REMARK    6  A    between atoms: C_11  and  C_13
REMARK    7  A    between atoms: C_13  and  C_15
REMARK    8  A    between atoms: C_13  and  N_22
REMARK    9  A    between atoms: C_15  and  C_16
REMARK   10  A    between atoms: N_22  and  CA_23
REMARK   11  A    between atoms: CA_23  and  C_25
REMARK   12  A    between atoms: CA_23  and  C_33
REMARK   13  A    between atoms: C_25  and  C_26
REMARK   14  A    between atoms: C_26  and  C_27
REMARK   15  A    between atoms: C_33  and  O_34
REMARK                            x       y       z     vdW  Elec       q    Type
REMARK                         _______ _______ _______ _____ _____    ______ ____
ROOT
ATOM      1  C   UNL     1       6.869  -1.412   1.246  0.00  0.00    +0.145 C 
ENDROOT
BRANCH   1   4
ATOM      2  N   UNL     1       4.534  -1.254   0.479  0.00  0.00    -0.302 N 
ATOM      3  H   UNL     1       4.830  -0.391   0.022  0.00  0.00    +0.150 HD
ATOM      4  C   UNL     1       5.403  -1.925   1.302  0.00  0.00    +0.231 C 
ATOM      5  O   UNL     1       5.031  -2.869   1.995  0.00  0.00    -0.274 OA
BRANCH   2   6
ATOM      6  C   UNL     1       3.096  -1.520   0.385  0.00  0.00    +0.169 C 
BRANCH   6  10
ATOM      7  N   UNL     1       1.201  -0.420  -0.809  0.00  0.00    -0.328 N 
ATOM      8  H   UNL     1       0.660  -1.273  -0.812  0.00  0.00    +0.145 HD
ATOM      9  H   UNL     1       0.898   0.298  -1.458  0.00  0.00    +0.145 HD
ATOM     10  C   UNL     1       2.525  -0.385  -0.492  0.00  0.00    +0.231 C 
ATOM     11  O   UNL     1       3.211   0.584  -0.822  0.00  0.00    -0.274 OA
ENDBRANCH   6  10
BRANCH   6  12
ATOM     12  C   UNL     1       2.782  -2.925  -0.116  0.00  0.00    +0.152 C 
BRANCH  12  13
ATOM     13  C   UNL     1       3.424  -3.178  -1.452  0.00  0.00    +0.307 C 
ATOM     14  O   UNL     1       3.103  -2.589  -2.472  0.00  0.00    -0.251 OA
BRANCH  13  15
ATOM     15  O   UNL     1       4.390  -4.122  -1.431  0.00  0.00    -0.481 OA
ATOM     16  H   UNL     1       4.546  -4.522  -0.553  0.00  0.00    +0.295 HD
ENDBRANCH  13  15
ENDBRANCH  12  13
ENDBRANCH   6  12
ENDBRANCH   2   6
ENDBRANCH   1   4
BRANCH   1  17
ATOM     17  N   UNL     1       7.797  -2.304   2.001  0.00  0.00    -0.293 NA
ATOM     18  H   UNL     1       7.424  -2.349   2.959  0.00  0.00    +0.123 HD
BRANCH  17  19
ATOM     19  CA  UNL     1       7.880  -3.720   1.517  0.00  0.00    +0.164 C 
BRANCH  19  20
ATOM     20  C   UNL     1       8.870  -4.445   2.460  0.00  0.00    +0.322 C 
ATOM     21  OXT UNL     1       8.838  -5.636   2.742  0.00  0.00    -0.249 OA
BRANCH  20  22
ATOM     22  O   UNL     1       9.824  -3.599   2.934  0.00  0.00    -0.480 OA
ATOM     23  H   UNL     1       9.607  -2.697   2.599  0.00  0.00    +0.295 HD
ENDBRANCH  20  22
ENDBRANCH  19  20
BRANCH  19  24
ATOM     24  C   UNL     1       8.372  -3.883   0.062  0.00  0.00    +0.035 C 
BRANCH  24  25
ATOM     25  C   UNL     1       8.372  -5.357  -0.386  0.00  0.00    +0.037 C 
BRANCH  25  26
ATOM     26  C   UNL     1       8.852  -5.562  -1.803  0.00  0.00    -0.047 A 
ATOM     27  C   UNL     1       7.950  -5.570  -2.874  0.00  0.00    +0.003 A 
ATOM     28  C   UNL     1       8.397  -5.833  -4.172  0.00  0.00    +0.000 A 
ATOM     29  C   UNL     1       9.747  -6.079  -4.413  0.00  0.00    +0.000 A 
ATOM     30  C   UNL     1      10.656  -6.054  -3.358  0.00  0.00    +0.000 A 
ATOM     31  C   UNL     1      10.212  -5.793  -2.060  0.00  0.00    +0.003 A 
ENDBRANCH  25  26
ENDBRANCH  24  25
ENDBRANCH  19  24
ENDBRANCH  17  19
ENDBRANCH   1  17
BRANCH   1  32
ATOM     32  C   UNL     1       6.856   0.024   1.839  0.00  0.00    +0.063 C 
BRANCH  32  33
ATOM     33  C   UNL     1       8.167   0.770   1.885  0.00  0.00    -0.045 A 
ATOM     34  C   UNL     1       8.641   1.267   3.108  0.00  0.00    +0.004 A 
ATOM     35  C   UNL     1       9.805   2.034   3.163  0.00  0.00    +0.000 A 
ATOM     36  C   UNL     1      10.505   2.321   1.994  0.00  0.00    +0.000 A 
ATOM     37  C   UNL     1      10.040   1.842   0.771  0.00  0.00    +0.000 A 
ATOM     38  C   UNL     1       8.876   1.071   0.714  0.00  0.00    +0.004 A 
ENDBRANCH  32  33
ENDBRANCH   1  32
TORSDOF 15
