REMARK  Name = 
REMARK  5 active torsions:
REMARK  status: ('A' for Active; 'I' for Inactive)
REMARK    1  A    between atoms: N_1  and  S_2
REMARK    2  A    between atoms: S_2  and  C_5
REMARK    3  A    between atoms: C_8  and  C_11
REMARK    4  A    between atoms: N_13  and  C_14
REMARK    5  A    between atoms: C_14  and  C_15
REMARK                            x       y       z     vdW  Elec       q    Type
REMARK                         _______ _______ _______ _____ _____    ______ ____
ROOT
ATOM      1  C   UNL     1       3.270  -0.521  -1.715  0.00  0.00    +0.105 A 
ATOM      2  C   UNL     1       3.296  -1.883  -2.014  0.00  0.00    +0.029 A 
ATOM      3  C   UNL     1       3.513  -2.301  -3.331  0.00  0.00    +0.015 A 
ATOM      4  C   UNL     1       3.724  -1.365  -4.351  0.00  0.00    +0.037 A 
ATOM      5  C   UNL     1       3.745   0.002  -4.023  0.00  0.00    +0.015 A 
ATOM      6  C   UNL     1       3.517   0.428  -2.708  0.00  0.00    +0.029 A 
ENDROOT
BRANCH   4   7
ATOM      7  C   UNL     1       3.848  -1.754  -5.792  0.00  0.00    +0.244 C 
ATOM      8  N   UNL     1       3.813  -3.099  -6.093  0.00  0.00    -0.307 N 
ATOM      9  H   UNL     1       3.920  -3.795  -5.375  0.00  0.00    +0.149 HD
ATOM     10  O   UNL     1       3.947  -0.886  -6.656  0.00  0.00    -0.270 OA
BRANCH   8  11
ATOM     11  C   UNL     1       3.851  -3.579  -7.457  0.00  0.00    +0.139 C 
BRANCH  11  12
ATOM     12  C   UNL     1       3.161  -4.918  -7.568  0.00  0.00    -0.030 A 
ATOM     13  C   UNL     1       3.876  -6.065  -7.949  0.00  0.00    +0.008 A 
ATOM     14  C   UNL     1       3.232  -7.300  -8.046  0.00  0.00    +0.038 A 
ATOM     15  C   UNL     1       1.874  -7.392  -7.764  0.00  0.00    +0.123 A 
ATOM     16  F   UNL     1       1.261  -8.580  -7.854  0.00  0.00    -0.205 F 
ATOM     17  C   UNL     1       1.145  -6.271  -7.388  0.00  0.00    +0.038 A 
ATOM     18  C   UNL     1       1.787  -5.035  -7.293  0.00  0.00    +0.008 A 
ENDBRANCH  11  12
ENDBRANCH   8  11
ENDBRANCH   4   7
BRANCH   1  19
ATOM     19  S   UNL     1       2.828  -0.010  -0.083  0.00  0.00    +0.056 S 
ATOM     20  O   UNL     1       2.441  -1.169   0.690  0.00  0.00    -0.153 OA
ATOM     21  O   UNL     1       3.794   0.953   0.385  0.00  0.00    -0.153 OA
BRANCH  19  22
ATOM     22  N   UNL     1       1.398   0.831  -0.358  0.00  0.00    -0.204 NA
ATOM     23  H   UNL     1       0.600   0.276  -0.053  0.00  0.00    +0.144 HD
ATOM     24  H   UNL     1       1.452   1.753   0.077  0.00  0.00    +0.144 HD
ENDBRANCH  19  22
ENDBRANCH   1  19
TORSDOF 5
