REMARK  Name = 
REMARK  7 active torsions:
REMARK  status: ('A' for Active; 'I' for Inactive)
REMARK    1  A    between atoms: C_1  and  N_2
REMARK    2  A    between atoms: N_2  and  C_3
REMARK    3  A    between atoms: N_2  and  S_13
REMARK    4  A    between atoms: C_6  and  C_9
REMARK    5  A    between atoms: N_11  and  O_12
REMARK    6  A    between atoms: S_13  and  C_16
REMARK    7  A    between atoms: C_19  and  C_21
REMARK                            x       y       z     vdW  Elec       q    Type
REMARK                         _______ _______ _______ _____ _____    ______ ____
ROOT
ATOM      1  C   UNL     1       1.085   0.037   0.191  0.00  0.00    +0.157 C 
ATOM      2  N   UNL     1       2.527  -0.107  -0.009  0.00  0.00    -0.206 N 
ENDROOT
BRANCH   2   3
ATOM      3  C   UNL     1       3.205  -1.265   0.477  0.00  0.00    +0.051 A 
ATOM      4  C   UNL     1       3.803  -2.111  -0.456  0.00  0.00    +0.025 A 
ATOM      5  C   UNL     1       4.599  -3.176  -0.035  0.00  0.00    +0.015 A 
ATOM      6  C   UNL     1       4.824  -3.384   1.330  0.00  0.00    +0.039 A 
ATOM      7  C   UNL     1       4.151  -2.589   2.268  0.00  0.00    +0.015 A 
ATOM      8  C   UNL     1       3.329  -1.538   1.842  0.00  0.00    +0.025 A 
BRANCH   6   9
ATOM      9  C   UNL     1       5.797  -4.403   1.810  0.00  0.00    +0.267 C 
ATOM     10  N   UNL     1       6.819  -4.724   0.940  0.00  0.00    -0.193 N 
ATOM     11  H   UNL     1       7.085  -4.118   0.174  0.00  0.00    +0.183 HD
ATOM     12  O   UNL     1       5.734  -4.869   2.944  0.00  0.00    -0.268 OA
BRANCH  10  13
ATOM     13  O   UNL     1       7.863  -5.504   1.495  0.00  0.00    -0.295 OA
ATOM     14  H   UNL     1       7.547  -5.653   2.413  0.00  0.00    +0.241 HD
ENDBRANCH  10  13
ENDBRANCH   6   9
ENDBRANCH   2   3
BRANCH   2  15
ATOM     15  S   UNL     1       3.431   1.280  -0.406  0.00  0.00    +0.081 S 
ATOM     16  O   UNL     1       2.572   2.159  -1.176  0.00  0.00    -0.149 OA
ATOM     17  O   UNL     1       4.733   0.892  -0.907  0.00  0.00    -0.149 OA
BRANCH  15  18
ATOM     18  C   UNL     1       3.770   2.224   1.074  0.00  0.00    +0.146 A 
ATOM     19  S   UNL     1       4.725   1.464   2.264  0.00  0.00    -0.067 S 
ATOM     20  C   UNL     1       4.406   2.685   3.424  0.00  0.00    +0.039 A 
ATOM     21  C   UNL     1       3.795   3.770   2.819  0.00  0.00    +0.019 A 
ATOM     22  C   UNL     1       3.440   3.511   1.460  0.00  0.00    +0.037 A 
BRANCH  20  23
ATOM     23  C   UNL     1       4.713   2.468   4.843  0.00  0.00    +0.078 A 
ATOM     24  C   UNL     1       5.739   1.643   5.296  0.00  0.00    +0.029 A 
ATOM     25  C   UNL     1       5.852   1.401   6.664  0.00  0.00    +0.004 A 
ATOM     26  C   UNL     1       4.945   1.989   7.536  0.00  0.00    +0.020 A 
ATOM     27  C   UNL     1       3.967   2.811   7.005  0.00  0.00    +0.111 A 
ATOM     28  N   UNL     1       3.834   3.067   5.685  0.00  0.00    -0.254 NA
ENDBRANCH  20  23
ENDBRANCH  15  18
ENDBRANCH   2  15
TORSDOF 6
