REMARK  Name = 
REMARK  5 active torsions:
REMARK  status: ('A' for Active; 'I' for Inactive)
REMARK    1  A    between atoms: C_1  and  C_2
REMARK    2  A    between atoms: C_2  and  C_3
REMARK    3  A    between atoms: C_3  and  C_4
REMARK    4  A    between atoms: C_4  and  N_5
REMARK    5  A    between atoms: N_8  and  O_9
REMARK                            x       y       z     vdW  Elec       q    Type
REMARK                         _______ _______ _______ _____ _____    ______ ____
ROOT
ATOM      1  N   UNL     1       5.150  -1.841  -2.082  0.00  0.00    -0.274 N 
ATOM      2  H   UNL     1       4.516  -2.558  -2.412  0.00  0.00    +0.258 HD
ATOM      3  C   UNL     1       6.471  -2.052  -2.297  0.00  0.00    +0.406 C 
ATOM      4  N   UNL     1       6.751  -3.259  -2.882  0.00  0.00    -0.142 N 
ATOM      5  H   UNL     1       6.174  -4.035  -2.577  0.00  0.00    +0.299 HD
ATOM      6  N   UNL     1       7.423  -1.222  -2.021  0.00  0.00    -0.128 NA
ATOM      7  H   UNL     1       7.015  -0.368  -1.639  0.00  0.00    +0.306 HD
ENDROOT
BRANCH   4   8
ATOM      8  O   UNL     1       8.122  -3.566  -2.819  0.00  0.00    -0.233 OA
ATOM      9  H   UNL     1       8.520  -2.683  -2.628  0.00  0.00    +0.262 HD
ENDBRANCH   4   8
BRANCH   1  10
ATOM     10  C   UNL     1       4.610  -0.908  -1.114  0.00  0.00    +0.196 C 
BRANCH  10  11
ATOM     11  C   UNL     1       3.083  -0.954  -1.117  0.00  0.00    +0.037 C 
BRANCH  11  13
ATOM     12  C   UNL     1       0.985   0.025  -0.110  0.00  0.00    +0.004 C 
ATOM     13  C   UNL     1       2.505   0.037  -0.107  0.00  0.00    -0.000 C 
ENDBRANCH  11  13
ENDBRANCH  10  11
ENDBRANCH   1  10
TORSDOF 4
