REMARK  Name = 
REMARK  4 active torsions:
REMARK  status: ('A' for Active; 'I' for Inactive)
REMARK    1  A    between atoms: O_1  and  C_2
REMARK    2  A    between atoms: C_2  and  C_4
REMARK    3  A    between atoms: C_7  and  O_8
REMARK    4  A    between atoms: C_10  and  O_11
REMARK                            x       y       z     vdW  Elec       q    Type
REMARK                         _______ _______ _______ _____ _____    ______ ____
ROOT
ATOM      1  C   UNL     1       3.064   0.220   1.237  0.00  0.00    +0.100 A 
ATOM      2  C   UNL     1       3.598  -0.874   1.931  0.00  0.00    +0.134 A 
ATOM      3  C   UNL     1       4.390  -0.677   3.064  0.00  0.00    +0.091 A 
ATOM      4  C   UNL     1       4.639   0.615   3.506  0.00  0.00    +0.120 A 
ATOM      5  C   UNL     1       4.107   1.717   2.844  0.00  0.00    +0.046 A 
ATOM      6  C   UNL     1       3.327   1.518   1.702  0.00  0.00    +0.022 A 
ENDROOT
BRANCH   1   7
ATOM      7  C   UNL     1       2.237   0.088   0.005  0.00  0.00    +0.340 C 
ATOM      8  O   UNL     1       2.099   1.004  -0.791  0.00  0.00    -0.245 OA
BRANCH   7   9
ATOM      9  O   UNL     1       1.605  -1.096  -0.122  0.00  0.00    -0.477 OA
ATOM     10  H   UNL     1       1.902  -1.747   0.551  0.00  0.00    +0.295 HD
ENDBRANCH   7   9
ENDBRANCH   1   7
BRANCH   2  11
ATOM     11  O   UNL     1       3.336  -2.150   1.505  0.00  0.00    -0.506 OA
ATOM     12  H   UNL     1       3.946  -2.758   1.966  0.00  0.00    +0.292 HD
ENDBRANCH   2  11
BRANCH   4  13
ATOM     13  O   UNL     1       5.415   0.765   4.617  0.00  0.00    -0.507 OA
ATOM     14  H   UNL     1       5.550   1.713   4.784  0.00  0.00    +0.292 HD
ENDBRANCH   4  13
TORSDOF 4
