REMARK  Name = 
REMARK  23 active torsions:
REMARK  status: ('A' for Active; 'I' for Inactive)
REMARK    1  A    between atoms: C_9  and  C_11
REMARK    2  A    between atoms: C_11  and  N_12
REMARK    3  A    between atoms: N_12  and  C_13
REMARK    4  A    between atoms: C_16  and  C_19
REMARK    5  A    between atoms: N_21  and  C_22
REMARK    6  A    between atoms: C_22  and  C_24
REMARK    7  A    between atoms: C_22  and  C_49
REMARK    8  A    between atoms: C_24  and  C_25
REMARK    9  A    between atoms: C_25  and  C_26
REMARK   10  A    between atoms: N_28  and  C_29
REMARK   11  A    between atoms: C_29  and  C_31
REMARK   12  A    between atoms: C_29  and  C_46
REMARK   13  A    between atoms: C_31  and  C_32
REMARK   14  A    between atoms: C_32  and  C_33
REMARK   15  A    between atoms: N_35  and  C_36
REMARK   16  A    between atoms: C_36  and  C_38
REMARK   17  A    between atoms: C_36  and  C_43
REMARK   18  A    between atoms: C_38  and  C_39
REMARK   19  A    between atoms: C_39  and  C_40
REMARK   20  A    between atoms: C_40  and  O_41
REMARK   21  A    between atoms: C_43  and  O_44
REMARK   22  A    between atoms: C_46  and  O_47
REMARK   23  A    between atoms: C_49  and  O_50
REMARK                            x       y       z     vdW  Elec       q    Type
REMARK                         _______ _______ _______ _____ _____    ______ ____
ROOT
ATOM      1  C   UNK A   1      19.026   6.277   4.335  0.00  0.00    +0.182 C 
ENDROOT
BRANCH   1   3
ATOM      2  C   UNK A   0      16.926   7.300   3.471  0.00  0.00    +0.245 C 
ATOM      3  N   UNK A   1      17.885   6.310   3.409  0.00  0.00    -0.298 N 
ATOM      4  H   UNK A   1      17.744   5.471   2.856  0.00  0.00    +0.150 HD
ATOM      5  O   UNK A   0      17.086   8.309   4.155  0.00  0.00    -0.270 OA
BRANCH   2   9
ATOM      6  C   UNK A   0      12.969   6.728   1.906  0.00  0.00    +0.027 A 
ATOM      7  C   UNK A   0      13.924   5.710   1.777  0.00  0.00    +0.023 A 
ATOM      8  C   UNK A   0      15.253   5.892   2.173  0.00  0.00    +0.015 A 
ATOM      9  C   UNK A   0      15.638   7.106   2.742  0.00  0.00    +0.037 A 
ATOM     10  C   UNK A   0      14.714   8.163   2.769  0.00  0.00    +0.015 A 
ATOM     11  C   UNK A   0      13.393   7.977   2.348  0.00  0.00    +0.023 A 
BRANCH   6  12
ATOM     12  N   UNK A   0      11.649   6.394   1.675  0.00  0.00    -0.342 N 
ATOM     13  H   UNK A   0      11.315   5.693   2.336  0.00  0.00    +0.146 HD
BRANCH  12  14
ATOM     14  C   UNK A   0      10.599   7.326   1.278  0.00  0.00    +0.126 C 
BRANCH  14  25
ATOM     15  N   UNK A   0      11.292   9.652  -6.150  0.00  0.00    -0.329 N 
ATOM     16  H   UNK A   0      11.051   9.144  -6.990  0.00  0.00    +0.145 HD
ATOM     17  H   UNK A   0      10.916  10.596  -6.130  0.00  0.00    +0.145 HD
ATOM     18  C   UNK A   0      11.152   9.014  -4.961  0.00  0.00    +0.195 A 
ATOM     19  N   UNK A   0      11.368   7.677  -4.971  0.00  0.00    -0.294 N 
ATOM     20  H   UNK A   0      11.702   7.216  -5.801  0.00  0.00    +0.172 HD
ATOM     21  C   UNK A   0      11.380   6.934  -3.830  0.00  0.00    +0.276 A 
ATOM     22  O   UNK A   0      11.759   5.767  -3.878  0.00  0.00    -0.266 OA
ATOM     23  C   UNK A   0      10.967   7.641  -2.577  0.00  0.00    +0.142 A 
ATOM     24  N   UNK A   0      10.824   6.985  -1.325  0.00  0.00    -0.261 N 
ATOM     25  C   UNK A   0      10.840   7.902  -0.132  0.00  0.00    +0.115 C 
ATOM     26  C   UNK A   0       9.875   9.075  -0.389  0.00  0.00    +0.127 C 
ATOM     27  N   UNK A   0      10.300   9.723  -1.617  0.00  0.00    -0.326 N 
ATOM     28  H   UNK A   0       9.836  10.579  -1.902  0.00  0.00    +0.148 HD
ATOM     29  C   UNK A   0      10.643   5.613  -1.208  0.00  0.00    +0.333 C 
ATOM     30  O   UNK A   0      10.315   4.978  -0.211  0.00  0.00    -0.279 OA
ATOM     31  C   UNK A   0      10.722   8.979  -2.715  0.00  0.00    +0.149 A 
ATOM     32  N   UNK A   0      10.833   9.659  -3.897  0.00  0.00    -0.199 NA
ENDBRANCH  14  25
ENDBRANCH  12  14
ENDBRANCH   6  12
ENDBRANCH   2   9
ENDBRANCH   1   3
BRANCH   1  33
ATOM     33  C   UNK A   1      19.271   4.806   4.693  0.00  0.00    +0.325 C 
ATOM     34  O   UNK A   1      19.045   3.877   3.926  0.00  0.00    -0.249 OA
BRANCH  33  35
ATOM     35  O   UNK A   1      19.744   4.606   5.945  0.00  0.00    -0.479 OA
ATOM     36  H   UNK A   1      19.838   5.414   6.486  0.00  0.00    +0.295 HD
ENDBRANCH  33  35
ENDBRANCH   1  33
BRANCH   1  37
ATOM     37  C   UNK A   1      20.292   6.937   3.750  0.00  0.00    +0.043 C 
BRANCH  37  38
ATOM     38  C   UNK A   1      20.071   8.439   3.589  0.00  0.00    +0.098 C 
BRANCH  38  39
ATOM     39  C   UNK A   1      21.149   9.293   2.946  0.00  0.00    +0.214 C 
ATOM     40  N   UNK A   1      20.736  10.613   2.884  0.00  0.00    -0.302 N 
ATOM     41  H   UNK A   1      19.742  10.783   3.024  0.00  0.00    +0.150 HD
ATOM     42  O   UNK A   1      22.235   8.900   2.545  0.00  0.00    -0.276 OA
BRANCH  40  43
ATOM     43  C   UNK A   1      21.523  11.689   2.284  0.00  0.00    +0.182 C 
BRANCH  43  44
ATOM     44  C   UNK A   1      22.782  11.926   3.132  0.00  0.00    +0.325 C 
ATOM     45  O   UNK A   1      22.785  12.475   4.226  0.00  0.00    -0.249 OA
BRANCH  44  46
ATOM     46  O   UNK A   1      23.920  11.477   2.551  0.00  0.00    -0.479 OA
ATOM     47  H   UNK A   1      23.740  10.842   1.824  0.00  0.00    +0.295 HD
ENDBRANCH  44  46
ENDBRANCH  43  44
BRANCH  43  48
ATOM     48  C   UNK A   1      20.676  12.976   2.246  0.00  0.00    +0.043 C 
BRANCH  48  49
ATOM     49  C   UNK A   1      21.406  14.285   1.919  0.00  0.00    +0.098 C 
BRANCH  49  50
ATOM     50  C   UNK A   1      22.118  14.338   0.584  0.00  0.00    +0.214 C 
ATOM     51  N   UNK A   1      22.903  15.467   0.459  0.00  0.00    -0.302 N 
ATOM     52  H   UNK A   1      22.882  16.163   1.207  0.00  0.00    +0.150 HD
ATOM     53  O   UNK A   1      22.005  13.486  -0.284  0.00  0.00    -0.276 OA
BRANCH  51  54
ATOM     54  C   UNK A   1      23.625  15.858  -0.753  0.00  0.00    +0.182 C 
BRANCH  54  55
ATOM     55  C   UNK A   1      23.648  17.395  -0.760  0.00  0.00    +0.325 C 
ATOM     56  O   UNK A   1      23.669  18.067   0.266  0.00  0.00    -0.249 OA
BRANCH  55  57
ATOM     57  O   UNK A   1      23.674  17.953  -1.983  0.00  0.00    -0.479 OA
ATOM     58  H   UNK A   1      23.616  17.330  -2.735  0.00  0.00    +0.295 HD
ENDBRANCH  55  57
ENDBRANCH  54  55
BRANCH  54  59
ATOM     59  C   UNK A   1      25.071  15.332  -0.773  0.00  0.00    +0.045 C 
BRANCH  59  60
ATOM     60  C   UNK A   1      25.122  13.806  -0.848  0.00  0.00    +0.123 C 
BRANCH  60  61
ATOM     61  C   UNK A   1      26.478  13.162  -1.007  0.00  0.00    +0.305 C 
ATOM     62  O   UNK A   1      26.633  12.111  -1.615  0.00  0.00    -0.251 OA
BRANCH  61  63
ATOM     63  O   UNK A   1      27.500  13.761  -0.369  0.00  0.00    -0.481 OA
ATOM     64  H   UNK A   1      27.276  14.526   0.188  0.00  0.00    +0.295 HD
ENDBRANCH  61  63
ENDBRANCH  60  61
ENDBRANCH  59  60
ENDBRANCH  54  59
ENDBRANCH  51  54
ENDBRANCH  49  50
ENDBRANCH  48  49
ENDBRANCH  43  48
ENDBRANCH  40  43
ENDBRANCH  38  39
ENDBRANCH  37  38
ENDBRANCH   1  37
TORSDOF 23
