REMARK  Name = 
REMARK  11 active torsions:
REMARK  status: ('A' for Active; 'I' for Inactive)
REMARK    1  A    between atoms: C_1  and  C_2
REMARK    2  A    between atoms: C_2  and  C_3
REMARK    3  A    between atoms: C_3  and  C_4
REMARK    4  A    between atoms: C_3  and  O_6
REMARK    5  A    between atoms: C_4  and  C_5
REMARK    6  A    between atoms: O_6  and  C_7
REMARK    7  A    between atoms: C_10  and  C_21
REMARK    8  A    between atoms: C_12  and  N_14
REMARK    9  A    between atoms: C_15  and  N_17
REMARK   10  A    between atoms: C_18  and  C_19
REMARK   11  A    between atoms: C_21  and  O_22
REMARK                            x       y       z     vdW  Elec       q    Type
REMARK                         _______ _______ _______ _____ _____    ______ ____
ROOT
ATOM      1  C   UNL     1       5.001   2.024   2.160  0.00  0.00    +0.164 C 
ATOM      2  C   UNL     1       3.814   2.089   3.180  0.00  0.00    +0.122 C 
ATOM      3  C   UNL     1       3.060   3.459   3.245  0.00  0.00    +0.078 C 
ATOM      4  C   UNL     1       3.801   4.675   2.656  0.00  0.00    +0.062 C 
ATOM      5  C   UNL     1       4.645   4.402   1.451  0.00  0.00    +0.036 C 
ATOM      6  C   UNL     1       5.142   3.175   1.210  0.00  0.00    +0.016 C 
ENDROOT
BRANCH   2   7
ATOM      7  N   UNL     1       4.131   1.593   4.526  0.00  0.00    -0.308 N 
ATOM      8  H   UNL     1       4.349   2.263   5.250  0.00  0.00    +0.149 HD
ATOM      9  C   UNL     1       4.436   0.327   4.920  0.00  0.00    +0.210 C 
ATOM     10  O   UNL     1       4.870   0.157   6.062  0.00  0.00    -0.276 OA
ATOM     11  C   UNL     1       4.231  -0.837   3.992  0.00  0.00    +0.109 C 
ENDBRANCH   2   7
BRANCH   3  12
ATOM     12  N   UNL     1       1.716   3.350   2.644  0.00  0.00    -0.325 NA
ATOM     13  H   UNL     1       1.175   4.196   2.830  0.00  0.00    +0.119 HD
ATOM     14  H   UNL     1       1.781   3.271   1.627  0.00  0.00    +0.119 HD
ENDBRANCH   3  12
BRANCH   5  15
ATOM     15  C   UNL     1       5.208   5.508   0.625  0.00  0.00    +0.333 C 
ATOM     16  O   UNL     1       5.728   5.343  -0.467  0.00  0.00    -0.245 OA
BRANCH  15  17
ATOM     17  O   UNL     1       5.180   6.716   1.223  0.00  0.00    -0.477 OA
ATOM     18  H   UNL     1       4.873   6.756   2.144  0.00  0.00    +0.295 HD
ENDBRANCH  15  17
ENDBRANCH   5  15
BRANCH   1  19
ATOM     19  O   UNL     1       6.290   1.650   2.689  0.00  0.00    -0.367 OA
BRANCH  19  20
ATOM     20  C   UNL     1       6.997   2.471   3.651  0.00  0.00    +0.119 C 
BRANCH  20  22
ATOM     21  C   UNL     1       9.037   2.204   5.223  0.00  0.00    +0.006 C 
ATOM     22  C   UNL     1       8.152   1.583   4.156  0.00  0.00    +0.028 C 
ENDBRANCH  20  22
BRANCH  20  23
ATOM     23  C   UNL     1       7.452   3.797   3.026  0.00  0.00    +0.028 C 
ATOM     24  C   UNL     1       8.130   4.847   3.877  0.00  0.00    +0.006 C 
ENDBRANCH  20  23
ENDBRANCH  19  20
ENDBRANCH   1  19
TORSDOF 8
