REMARK  Name = 
REMARK  5 active torsions:
REMARK  status: ('A' for Active; 'I' for Inactive)
REMARK    1  A    between atoms: C_2  and  C_3
REMARK    2  A    between atoms: C_3  and  C_4
REMARK    3  A    between atoms: C_11  and  N_12
REMARK    4  A    between atoms: C_13  and  C_15
REMARK    5  A    between atoms: C_20  and  C_25
REMARK                            x       y       z     vdW  Elec       q    Type
REMARK                         _______ _______ _______ _____ _____    ______ ____
ROOT
ATOM      1  N   UNL     1       2.955   4.289   2.573  0.00  0.00    -0.281 N 
ATOM      2  H   UNL     1       2.408   4.708   1.834  0.00  0.00    +0.155 HD
ATOM      3  C   UNL     1       3.394   5.102   3.609  0.00  0.00    +0.248 C 
ATOM      4  O   UNL     1       3.827   4.712   4.690  0.00  0.00    -0.270 OA
ENDROOT
BRANCH   1   8
ATOM      5  C   UNL     1       4.753   0.063   4.548  0.00  0.00    +0.033 C 
ATOM      6  C   UNL     1       3.880   0.779   3.526  0.00  0.00    -0.037 A 
ATOM      7  C   UNL     1       3.867   2.180   3.461  0.00  0.00    +0.027 A 
ATOM      8  C   UNL     1       3.037   2.874   2.580  0.00  0.00    +0.034 A 
ATOM      9  C   UNL     1       2.264   2.145   1.677  0.00  0.00    +0.023 A 
ATOM     10  C   UNL     1       2.308   0.744   1.685  0.00  0.00    +0.007 A 
ATOM     11  C   UNL     1       3.127   0.051   2.592  0.00  0.00    -0.030 A 
ATOM     12  C   UNL     1       3.154  -1.459   2.588  0.00  0.00    +0.116 C 
ATOM     13  N   UNL     1       4.338  -2.023   3.250  0.00  0.00    -0.311 NA
ATOM     14  H   UNL     1       4.222  -3.031   3.321  0.00  0.00    +0.122 HD
ATOM     15  C   UNL     1       4.459  -1.453   4.594  0.00  0.00    +0.089 C 
BRANCH   5  16
ATOM     16  C   UNL     1       4.694   0.671   5.973  0.00  0.00    +0.006 C 
ATOM     17  C   UNL     1       3.329   0.596   6.651  0.00  0.00    +0.004 C 
ENDBRANCH   5  16
ENDBRANCH   1   8
BRANCH   3  18
ATOM     18  C   UNL     1       3.284   6.571   3.426  0.00  0.00    +0.038 A 
ATOM     19  C   UNL     1       3.231   7.347   4.596  0.00  0.00    +0.021 A 
ATOM     20  C   UNL     1       3.244   8.742   4.542  0.00  0.00    -0.017 A 
ATOM     21  C   UNL     1       3.283   9.385   3.286  0.00  0.00    -0.017 A 
ATOM     22  C   UNL     1       3.312  10.789   3.247  0.00  0.00    +0.024 A 
ATOM     23  C   UNL     1       3.320  11.539   4.433  0.00  0.00    +0.065 A 
ATOM     24  C   UNL     1       3.283  10.893   5.670  0.00  0.00    +0.016 A 
ATOM     25  C   UNL     1       3.314   8.600   2.116  0.00  0.00    +0.009 A 
ATOM     26  C   UNL     1       3.242   9.501   5.721  0.00  0.00    +0.009 A 
ATOM     27  C   UNL     1       3.325   7.200   2.182  0.00  0.00    +0.013 A 
BRANCH  23  28
ATOM     28  C   UNL     1       3.355  13.024   4.361  0.00  0.00    +0.308 C 
ATOM     29  N   UNL     1       3.911  13.764   5.267  0.00  0.00    -0.099 NA
ATOM     30  H   UNL     1       4.361  13.198   5.992  0.00  0.00    +0.363 HD
ATOM     31  N   UNL     1       2.776  13.673   3.313  0.00  0.00    -0.247 N 
ATOM     32  H   UNL     1       2.692  14.667   3.512  0.00  0.00    +0.288 HD
ATOM     33  H   UNL     1       1.912  13.273   2.969  0.00  0.00    +0.288 HD
ENDBRANCH  23  28
ENDBRANCH   3  18
TORSDOF 4
