REMARK  Name = 
REMARK  1 active torsions:
REMARK  status: ('A' for Active; 'I' for Inactive)
REMARK    1  A    between atoms: C_2  and  CA_4
REMARK                            x       y       z     vdW  Elec       q    Type
REMARK                         _______ _______ _______ _____ _____    ______ ____
ROOT
ATOM      1  CA  PRO A   1       3.000  -0.876  -1.016  0.00  0.00    +0.062 A 
ATOM      2  N   PRO A   1       2.697  -2.204  -1.141  0.00  0.00    -0.360 N 
ATOM      3  H   PRO A   1       1.973  -2.645  -0.586  0.00  0.00    +0.165 HD
ATOM      4  CD  PRO A   1       3.505  -2.771  -2.091  0.00  0.00    +0.083 A 
ATOM      5  CG  PRO A   1       4.335  -1.783  -2.579  0.00  0.00    +0.019 A 
ATOM      6  CB  PRO A   1       4.016  -0.581  -1.898  0.00  0.00    +0.029 A 
ENDROOT
BRANCH   1   8
ATOM      7  O   PRO A   1       2.669   1.222  -0.037  0.00  0.00    -0.543 OA
ATOM      8  C   PRO A   1       2.307   0.010  -0.072  0.00  0.00    +0.088 C 
ATOM      9  OXT PRO A   1       1.402  -0.552   0.618  0.00  0.00    -0.543 OA
ENDBRANCH   1   8
TORSDOF 1
