REMARK  Name = 
REMARK  13 active torsions:
REMARK  status: ('A' for Active; 'I' for Inactive)
REMARK    1  A    between atoms: O_1  and  C_2
REMARK    2  A    between atoms: C_5  and  N_24
REMARK    3  A    between atoms: C_8  and  C_10
REMARK    4  A    between atoms: C_10  and  O_11
REMARK    5  A    between atoms: O_11  and  P_12
REMARK    6  A    between atoms: P_12  and  O_13
REMARK    7  A    between atoms: P_12  and  O_15
REMARK    8  A    between atoms: O_15  and  P_16
REMARK    9  A    between atoms: P_16  and  O_17
REMARK   10  A    between atoms: P_16  and  O_19
REMARK   11  A    between atoms: O_19  and  P_20
REMARK   12  A    between atoms: P_20  and  O_21
REMARK   13  A    between atoms: P_20  and  O_22
REMARK                            x       y       z     vdW  Elec       q    Type
REMARK                         _______ _______ _______ _____ _____    ______ ____
ROOT
ATOM      1  C   UNL     1       0.998  -3.650   2.188  0.00  0.00    +0.206 C 
ENDROOT
BRANCH   1   3
ATOM      2  C   UNL     1       3.366  -4.167   2.922  0.00  0.00    +0.150 C 
ATOM      3  C   UNL     1       2.103  -4.699   2.238  0.00  0.00    +0.175 C 
ATOM      4  O   UNL     1       1.656  -5.851   2.983  0.00  0.00    -0.348 OA
ATOM      5  C   UNL     1       2.618  -6.128   4.023  0.00  0.00    +0.226 C 
ATOM      6  C   UNL     1       3.286  -4.784   4.296  0.00  0.00    +0.088 C 
BRANCH   5   7
ATOM      7  N   UNL     1       3.541  -7.199   3.612  0.00  0.00    -0.274 N 
ATOM      8  C   UNL     1       4.484  -7.610   4.553  0.00  0.00    +0.331 A 
ATOM      9  O   UNL     1       4.588  -7.130   5.679  0.00  0.00    -0.246 OA
ATOM     10  N   UNL     1       5.321  -8.624   4.156  0.00  0.00    -0.275 N 
ATOM     11  H   UNL     1       5.992  -8.941   4.840  0.00  0.00    +0.173 HD
ATOM     12  C   UNL     1       5.180  -9.377   3.033  0.00  0.00    +0.254 A 
ATOM     13  O   UNL     1       5.844 -10.386   2.814  0.00  0.00    -0.268 OA
ATOM     14  C   UNL     1       4.149  -8.927   2.090  0.00  0.00    +0.088 A 
ATOM     15  C   UNL     1       3.380  -7.887   2.422  0.00  0.00    +0.098 A 
ENDBRANCH   5   7
BRANCH   2  16
ATOM     16  O   UNL     1       4.546  -4.608   2.251  0.00  0.00    -0.389 OA
ATOM     17  H   UNL     1       4.527  -5.578   2.183  0.00  0.00    +0.210 HD
ENDBRANCH   2  16
ENDBRANCH   1   3
BRANCH   1  18
ATOM     18  O   UNL     1       1.471  -2.543   1.447  0.00  0.00    -0.284 OA
BRANCH  18  19
ATOM     19  P   UNL     1       0.619  -1.182   1.403  0.00  0.00    +0.483 P 
ATOM     20  O   UNL     1       1.161  -0.197   0.421  0.00  0.00    -0.227 OA
BRANCH  19  21
ATOM     21  O   UNL     1      -0.815  -1.735   0.961  0.00  0.00    -0.302 OA
ATOM     22  H   UNL     1      -0.927  -1.553   0.014  0.00  0.00    +0.222 HD
ENDBRANCH  19  21
BRANCH  19  23
ATOM     23  O   UNL     1       0.543  -0.685   2.905  0.00  0.00    -0.186 OA
BRANCH  23  24
ATOM     24  P   UNL     1      -0.841  -0.416   3.907  0.00  0.00    +0.492 P 
ATOM     25  O   UNL     1      -1.570   0.287   2.759  0.00  0.00    -0.226 OA
BRANCH  24  26
ATOM     26  O   UNL     1      -0.068   0.829   4.641  0.00  0.00    -0.302 OA
ATOM     27  H   UNL     1      -0.224   1.633   4.116  0.00  0.00    +0.222 HD
ENDBRANCH  24  26
BRANCH  24  28
ATOM     28  O   UNL     1      -2.225  -0.147   4.910  0.00  0.00    -0.186 OA
BRANCH  28  29
ATOM     29  P   UNL     1      -2.374  -1.015   6.221  0.00  0.00    +0.481 P 
ATOM     30  O   UNL     1      -1.228  -1.039   7.165  0.00  0.00    -0.227 OA
BRANCH  29  31
ATOM     31  O   UNL     1      -2.822  -2.428   5.628  0.00  0.00    -0.302 OA
ATOM     32  H   UNL     1      -3.694  -2.352   5.188  0.00  0.00    +0.222 HD
ENDBRANCH  29  31
BRANCH  29  33
ATOM     33  O   UNL     1      -3.745  -0.479   6.835  0.00  0.00    -0.302 OA
ATOM     34  H   UNL     1      -3.654   0.437   7.160  0.00  0.00    +0.222 HD
ENDBRANCH  29  33
ENDBRANCH  28  29
ENDBRANCH  24  28
ENDBRANCH  23  24
ENDBRANCH  19  23
ENDBRANCH  18  19
ENDBRANCH   1  18
TORSDOF 13
