REMARK  Name = 
REMARK  7 active torsions:
REMARK  status: ('A' for Active; 'I' for Inactive)
REMARK    1  A    between atoms: C_1  and  N_2
REMARK    2  A    between atoms: C_4  and  C_18
REMARK    3  A    between atoms: C_6  and  N_7
REMARK    4  A    between atoms: N_10  and  C_11
REMARK    5  A    between atoms: C_18  and  C_19
REMARK    6  A    between atoms: C_18  and  C_20
REMARK    7  A    between atoms: C_18  and  C_21
REMARK                            x       y       z     vdW  Elec       q    Type
REMARK                         _______ _______ _______ _____ _____    ______ ____
ROOT
ATOM      1  N   UNL     1       2.793  -2.537  -0.063  0.00  0.00    -0.254 N 
ATOM      2  H   UNL     1       1.847  -2.798   0.165  0.00  0.00    +0.158 HD
ATOM      3  C   UNL     1       3.738  -3.511  -0.524  0.00  0.00    +0.309 C 
ATOM      4  N   UNL     1       3.325  -4.806  -0.363  0.00  0.00    -0.269 N 
ATOM      5  H   UNL     1       2.410  -5.000   0.016  0.00  0.00    +0.156 HD
ATOM      6  O   UNL     1       4.777  -3.132  -1.036  0.00  0.00    -0.252 OA
ENDROOT
BRANCH   4   7
ATOM      7  C   UNL     1       4.115  -5.934  -0.738  0.00  0.00    +0.035 A 
ATOM      8  C   UNL     1       3.552  -7.214  -0.648  0.00  0.00    +0.025 A 
ATOM      9  C   UNL     1       4.284  -8.344  -1.047  0.00  0.00    +0.022 A 
ATOM     10  C   UNL     1       5.584  -8.203  -1.528  0.00  0.00    +0.041 A 
ATOM     11 CL   UNL     1       6.481  -9.581  -2.038  0.00  0.00    -0.084 Cl
ATOM     12  C   UNL     1       6.165  -6.949  -1.603  0.00  0.00    +0.022 A 
ATOM     13  C   UNL     1       5.435  -5.827  -1.205  0.00  0.00    +0.025 A 
ENDBRANCH   4   7
BRANCH   1  16
ATOM     14  C   UNL     1       0.914  -0.026  -0.023  0.00  0.00    +0.174 C 
ATOM     15  N   UNL     1       2.355  -0.069   0.018  0.00  0.00    -0.253 N 
ATOM     16  C   UNL     1       3.159  -1.184  -0.019  0.00  0.00    +0.124 A 
ATOM     17  C   UNL     1       4.441  -0.680   0.006  0.00  0.00    +0.069 A 
ATOM     18  C   UNL     1       4.328   0.728  -0.014  0.00  0.00    +0.070 A 
ATOM     19  N   UNL     1       3.041   1.095   0.001  0.00  0.00    -0.174 NA
BRANCH  18  20
ATOM     20  C   UNL     1       5.486   1.717  -0.032  0.00  0.00    +0.006 C 
ATOM     21  C   UNL     1       6.344   1.512  -1.301  0.00  0.00    +0.017 C 
ATOM     22  C   UNL     1       6.383   1.479   1.202  0.00  0.00    +0.017 C 
ATOM     23  C   UNL     1       5.009   3.180  -0.011  0.00  0.00    +0.017 C 
ENDBRANCH  18  20
ENDBRANCH   1  16
TORSDOF 3
