REMARK  Name = 
REMARK  3 active torsions:
REMARK  status: ('A' for Active; 'I' for Inactive)
REMARK    1  A    between atoms: O_1  and  C_2
REMARK    2  A    between atoms: C_2  and  C_4
REMARK    3  A    between atoms: C_8  and  O_9
REMARK                            x       y       z     vdW  Elec       q    Type
REMARK                         _______ _______ _______ _____ _____    ______ ____
ROOT
ATOM      1  C   UNL     1       3.168   1.108   0.423  0.00  0.00    +0.160 A 
ATOM      2  C   UNL     1       4.337   1.196   1.177  0.00  0.00    +0.266 A 
ATOM      3  N   UNL     1       4.708   2.431   1.483  0.00  0.00    -0.039 NA
ATOM      4  O   UNL     1       3.725   3.230   0.897  0.00  0.00    -0.359 OA
ATOM      5  C   UNL     1       2.818   2.431   0.272  0.00  0.00    +0.249 A 
ENDROOT
BRANCH   1   6
ATOM      6  C   UNL     1       2.461  -0.031  -0.093  0.00  0.00    +0.345 C 
ATOM      7  O   UNL     1       1.425   0.059  -0.736  0.00  0.00    -0.245 OA
BRANCH   6   8
ATOM      8  O   UNL     1       3.029  -1.233   0.185  0.00  0.00    -0.477 OA
ATOM      9  H   UNL     1       3.856  -1.156   0.707  0.00  0.00    +0.295 HD
ENDBRANCH   6   8
ENDBRANCH   1   6
BRANCH   2  10
ATOM     10  O   UNL     1       5.116   0.205   1.620  0.00  0.00    -0.490 OA
ATOM     11  H   UNL     1       5.839   0.641   2.112  0.00  0.00    +0.294 HD
ENDBRANCH   2  10
TORSDOF 3
