REMARK  Name = 
REMARK  6 active torsions:
REMARK  status: ('A' for Active; 'I' for Inactive)
REMARK    1  A    between atoms: O_1  and  C_2
REMARK    2  A    between atoms: C_2  and  C_3
REMARK    3  A    between atoms: N_7  and  O_8
REMARK    4  A    between atoms: C_9  and  O_11
REMARK    5  A    between atoms: C_12  and  O_14
REMARK    6  A    between atoms: C_15  and  O_17
REMARK                            x       y       z     vdW  Elec       q    Type
REMARK                         _______ _______ _______ _____ _____    ______ ____
ROOT
ATOM      1  C   UNK     1       2.889   1.189  -0.776  0.00  0.00    +0.221 C 
ATOM      2  C   UNK     1       3.512   2.169   0.253  0.00  0.00    +0.191 C 
ATOM      3  C   UNK     1       2.473   3.006   1.024  0.00  0.00    +0.187 C 
ATOM      4  C   UNK     1       1.472   3.696   0.086  0.00  0.00    +0.265 C 
ATOM      5  C   UNK     1       0.909   2.664  -0.905  0.00  0.00    +0.365 C 
ATOM      6  N   UNK     1      -0.375   2.625  -1.120  0.00  0.00    +0.149 NA
ATOM      7  N   UNK     1       1.804   1.823  -1.535  0.00  0.00    -0.224 N 
ATOM      8  H   UNK     1       1.286   1.181  -2.132  0.00  0.00    +0.292 HD
ENDROOT
BRANCH   2   9
ATOM      9  O   UNK     1       4.410   3.046  -0.452  0.00  0.00    -0.385 OA
ATOM     10  H   UNK     1       4.797   3.663   0.195  0.00  0.00    +0.210 HD
ENDBRANCH   2   9
BRANCH   3  11
ATOM     11  O   UNK     1       1.803   2.242   2.036  0.00  0.00    -0.386 OA
ATOM     12  H   UNK     1       1.375   1.473   1.597  0.00  0.00    +0.210 HD
ENDBRANCH   3  11
BRANCH   4  13
ATOM     13  O   UNK     1       0.486   4.376   0.851  0.00  0.00    -0.378 OA
ATOM     14  H   UNK     1       0.021   3.676   1.347  0.00  0.00    +0.211 HD
ENDBRANCH   4  13
BRANCH   6  15
ATOM     15  O   UNK     1      -0.698   1.607  -2.033  0.00  0.00    -0.311 OA
ATOM     16  H   UNK     1      -1.665   1.714  -2.111  0.00  0.00    +0.361 HD
ENDBRANCH   6  15
BRANCH   1  17
ATOM     17  C   UNK     1       2.388  -0.130  -0.146  0.00  0.00    +0.205 C 
BRANCH  17  18
ATOM     18  O   UNK     1       1.298   0.077   0.751  0.00  0.00    -0.391 OA
ATOM     19  H   UNK     1       0.880  -0.793   0.897  0.00  0.00    +0.210 HD
ENDBRANCH  17  18
ENDBRANCH   1  17
TORSDOF 6
