REMARK  Name = 
REMARK  20 active torsions:
REMARK  status: ('A' for Active; 'I' for Inactive)
REMARK    1  A    between atoms: C_1  and  C_2
REMARK    2  A    between atoms: C_2  and  C_4
REMARK    3  A    between atoms: C_2  and  C_57
REMARK    4  A    between atoms: C_4  and  C_5
REMARK    5  A    between atoms: C_5  and  O_7
REMARK    6  A    between atoms: C_5  and  C_8
REMARK    7  A    between atoms: C_18  and  C_21
REMARK    8  A    between atoms: C_22  and  C_23
REMARK    9  A    between atoms: C_23  and  C_25
REMARK   10  A    between atoms: C_23  and  C_26
REMARK   11  A    between atoms: C_29  and  C_30
REMARK   12  A    between atoms: C_34  and  C_36
REMARK   13  A    between atoms: C_36  and  C_37
REMARK   14  A    between atoms: C_37  and  C_38
REMARK   15  A    between atoms: C_37  and  O_39
REMARK   16  A    between atoms: C_37  and  C_40
REMARK   17  A    between atoms: C_40  and  O_41
REMARK   18  A    between atoms: C_45  and  O_47
REMARK   19  A    between atoms: C_52  and  O_54
REMARK   20  A    between atoms: C_68  and  C_70
REMARK                            x       y       z     vdW  Elec       q    Type
REMARK                         _______ _______ _______ _____ _____    ______ ____
ROOT
ATOM      1  C   UNL     1      -0.000   0.000  -0.000  0.00  0.00    +0.175 C 
ATOM      2  C   UNL     1      -0.000  -0.000   0.000  0.00  0.00    -0.015 C 
ATOM      3  C   UNL     1      -0.000  -0.000  -0.000  0.00  0.00    +0.013 C 
ATOM      4  C   UNL     1      -0.000  -0.000  -0.000  0.00  0.00    +0.174 C 
ATOM      5  C   UNL     1      -0.000  -0.000   0.000  0.00  0.00    +0.183 C 
ATOM      6  C   UNL     1      -0.000  -0.000  -0.000  0.00  0.00    +0.151 C 
ATOM      7  C   UNL     1      -0.000  -0.000  -0.000  0.00  0.00    +0.039 C 
ATOM      8  C   UNL     1      -0.000  -0.000  -0.000  0.00  0.00    +0.067 C 
ATOM      9  C   UNL     1      -0.000   0.000  -0.000  0.00  0.00    +0.171 C 
ATOM     10  O   UNL     1      -0.000   0.000  -0.000  0.00  0.00    -0.341 OA
ATOM     11  C   UNL     1      -0.000  -0.000   0.000  0.00  0.00    +0.144 C 
ATOM     12  C   UNL     1      -0.000  -0.000   0.000  0.00  0.00    +0.041 C 
ATOM     13  C   UNL     1      -0.000  -0.000   0.000  0.00  0.00    +0.068 C 
ATOM     14  O   UNL     1      -0.000   0.000   0.000  0.00  0.00    -0.340 OA
ATOM     15  O   UNL     1      -0.000  -0.000   0.000  0.00  0.00    -0.364 OA
ENDROOT
BRANCH   4  16
ATOM     16  O   UNL     1      -0.000   0.000  -0.000  0.00  0.00    -0.385 OA
ATOM     17  H   UNL     1       0.000   0.000   0.000  0.00  0.00    +0.210 HD
ENDBRANCH   4  16
BRANCH  11  18
ATOM     18  C   UNL     1      -0.000   0.000   0.000  0.00  0.00    +0.000 C 
ATOM     19  C   UNL     1      -0.000   0.000   0.000  0.00  0.00    -0.023 C 
BRANCH  19  20
ATOM     20  C   UNL     1      -0.000   0.000  -0.000  0.00  0.00    +0.038 C 
ATOM     21  C   UNL     1      -0.000   0.000  -0.000  0.00  0.00    +0.014 C 
BRANCH  20  22
ATOM     22  C   UNL     1      -0.000   0.000  -0.000  0.00  0.00    +0.133 C 
ATOM     23  O   UNL     1      -0.000   0.000  -0.000  0.00  0.00    -0.339 OA
ATOM     24  C   UNL     1      -0.000   0.000  -0.000  0.00  0.00    +0.217 C 
ATOM     25  C   UNL     1      -0.000   0.000  -0.000  0.00  0.00    +0.178 C 
ATOM     26  C   UNL     1      -0.000   0.000  -0.000  0.00  0.00    +0.039 C 
ATOM     27  C   UNL     1      -0.000   0.000  -0.000  0.00  0.00    +0.034 C 
ATOM     28  C   UNL     1      -0.000   0.000  -0.000  0.00  0.00    +0.125 C 
ATOM     29  O   UNL     1      -0.000   0.000  -0.000  0.00  0.00    -0.340 OA
ATOM     30  C   UNL     1      -0.000   0.000  -0.000  0.00  0.00    +0.039 C 
ATOM     31  C   UNL     1      -0.000   0.000  -0.000  0.00  0.00    -0.069 C 
ATOM     32  C   UNL     1      -0.000   0.000  -0.000  0.00  0.00    +0.039 C 
ATOM     33  C   UNL     1      -0.000   0.000  -0.000  0.00  0.00    +0.062 C 
BRANCH  25  34
ATOM     34  O   UNL     1      -0.000   0.000  -0.000  0.00  0.00    -0.386 OA
ATOM     35  H   UNL     1      -0.000   0.000  -0.000  0.00  0.00    +0.210 HD
ENDBRANCH  25  34
BRANCH  28  36
ATOM     36  C   UNL     1      -0.000   0.000  -0.000  0.00  0.00    +0.077 C 
BRANCH  36  37
ATOM     37  C   UNL     1      -0.000   0.000  -0.000  0.00  0.00    +0.161 C 
ATOM     38  C   UNL     1      -0.000   0.000  -0.000  0.00  0.00    +0.053 C 
BRANCH  37  39
ATOM     39  C   UNL     1      -0.000   0.000  -0.000  0.00  0.00    +0.337 C 
ATOM     40  O   UNL     1      -0.000   0.000  -0.000  0.00  0.00    -0.248 OA
BRANCH  39  41
ATOM     41  O   UNL     1      -0.000   0.000  -0.000  0.00  0.00    -0.479 OA
ATOM     42  H   UNL     1      -0.000   0.000  -0.000  0.00  0.00    +0.295 HD
ENDBRANCH  39  41
ENDBRANCH  37  39
BRANCH  37  43
ATOM     43  O   UNL     1      -0.000   0.000  -0.000  0.00  0.00    -0.378 OA
ATOM     44  H   UNL     1      -0.000   0.000  -0.000  0.00  0.00    +0.211 HD
ENDBRANCH  37  43
ENDBRANCH  36  37
ENDBRANCH  28  36
ENDBRANCH  20  22
ENDBRANCH  19  20
ENDBRANCH  11  18
BRANCH   1  45
ATOM     45  C   UNL     1      -0.000  -0.000   0.000  0.00  0.00    +0.148 C 
BRANCH  45  46
ATOM     46  O   UNL     1      -0.000   0.000  -0.000  0.00  0.00    -0.389 OA
ATOM     47  H   UNL     1      -0.000   0.000  -0.000  0.00  0.00    +0.210 HD
ENDBRANCH  45  46
BRANCH  45  48
ATOM     48  C   UNL     1      -0.000   0.000  -0.000  0.00  0.00    +0.040 C 
BRANCH  48  50
ATOM     49  C   UNL     1      -0.000   0.000   0.000  0.00  0.00    +0.010 C 
ATOM     50  C   UNL     1      -0.000   0.000   0.000  0.00  0.00    +0.018 C 
BRANCH  50  51
ATOM     51  C   UNL     1      -0.000   0.000   0.000  0.00  0.00    +0.127 C 
ATOM     52  C   UNL     1      -0.000   0.000   0.000  0.00  0.00    +0.015 C 
ATOM     53  C   UNL     1      -0.000   0.000   0.000  0.00  0.00    +0.010 C 
ATOM     54  C   UNL     1      -0.000   0.000   0.000  0.00  0.00    +0.011 C 
ATOM     55  C   UNL     1      -0.000   0.000   0.000  0.00  0.00    +0.065 C 
ATOM     56  C   UNL     1      -0.000   0.000   0.000  0.00  0.00    +0.170 C 
ATOM     57  O   UNL     1      -0.000   0.000   0.000  0.00  0.00    -0.349 OA
ATOM     58  C   UNL     1      -0.000   0.000   0.000  0.00  0.00    +0.163 C 
ATOM     59  C   UNL     1      -0.000   0.000   0.000  0.00  0.00    +0.028 C 
ATOM     60  C   UNL     1      -0.000   0.000   0.000  0.00  0.00    +0.007 C 
ATOM     61  C   UNL     1      -0.000   0.000   0.000  0.00  0.00    +0.065 C 
ATOM     62  O   UNL     1      -0.000   0.000   0.000  0.00  0.00    -0.345 OA
ENDBRANCH  50  51
ENDBRANCH  48  50
ENDBRANCH  45  48
ENDBRANCH   1  45
TORSDOF 15
