REMARK  Name = 
REMARK  8 active torsions:
REMARK  status: ('A' for Active; 'I' for Inactive)
REMARK    1  A    between atoms: O_1  and  B_2
REMARK    2  A    between atoms: B_2  and  O_3
REMARK    3  A    between atoms: B_2  and  C_4
REMARK    4  A    between atoms: C_6  and  N_7
REMARK    5  A    between atoms: N_7  and  S_8
REMARK    6  A    between atoms: S_8  and  C_11
REMARK    7  A    between atoms: C_13  and  S_16
REMARK    8  A    between atoms: S_16  and  C_19
REMARK                            x       y       z     vdW  Elec       q    Type
REMARK                         _______ _______ _______ _____ _____    ______ ____
ROOT
ATOM      1  S   UNL     1       1.550   5.255  -0.139  0.00  0.00    +0.000 S 
ATOM      2  O   UNL     1       2.718   4.912   0.795  0.00  0.00    +0.000 OA
ATOM      3  O   UNL     1       0.380   4.482   0.491  0.00  0.00    +0.000 OA
ENDROOT
BRANCH   1   4
ATOM      4  C   UNL     1       1.274   7.019  -0.283  0.00  0.00    +0.000 A 
ATOM      5  S   UNL     1       2.210   8.226   0.427  0.00  0.00    +0.000 S 
ATOM      6  C   UNL     1       1.314   9.517  -0.188  0.00  0.00    +0.000 A 
ATOM      7  C   UNL     1       0.275   9.000  -0.956  0.00  0.00    +0.000 A 
ATOM      8  C   UNL     1       0.257   7.603  -1.014  0.00  0.00    +0.000 A 
BRANCH   7   9
ATOM      9  S   UNL     1      -0.936  10.017  -1.793  0.00  0.00    +0.000 S 
ATOM     10  O   UNL     1      -1.377  11.110  -0.807  0.00  0.00    +0.000 OA
ATOM     11  O   UNL     1      -2.243   9.209  -1.815  0.00  0.00    +0.000 OA
BRANCH   9  12
ATOM     12  C   UNL     1      -0.746  10.789  -3.402  0.00  0.00    +0.000 A 
ATOM     13  C   UNL     1       0.245  11.762  -3.593  0.00  0.00    +0.000 A 
ATOM     14  C   UNL     1       0.401  12.377  -4.838  0.00  0.00    +0.000 A 
ATOM     15  C   UNL     1      -0.440  12.022  -5.903  0.00  0.00    +0.000 A 
ATOM     16  C   UNL     1      -1.429  11.052  -5.718  0.00  0.00    +0.000 A 
ATOM     17  C   UNL     1      -1.584  10.436  -4.473  0.00  0.00    +0.000 A 
ENDBRANCH   9  12
ENDBRANCH   7   9
ENDBRANCH   1   4
BRANCH   1  18
ATOM     18  N   UNL     1       1.929   4.432  -1.642  0.00  0.00    +0.000 N 
ATOM     19  H   UNL     1       2.868   4.708  -1.961  0.00  0.00    +0.000 HD
BRANCH  18  24
ATOM     20  C   UNL     1      -0.031   5.259  -4.709  0.00  0.00    +0.000 A 
ATOM     21  C   UNL     1      -0.985   4.227  -4.693  0.00  0.00    +0.000 A 
ATOM     22  C   UNL     1      -0.985   3.281  -3.663  0.00  0.00    +0.000 A 
ATOM     23  C   UNL     1      -0.036   3.355  -2.637  0.00  0.00    +0.000 A 
ATOM     24  C   UNL     1       0.933   4.368  -2.651  0.00  0.00    +0.000 A 
ATOM     25  C   UNL     1       0.932   5.315  -3.687  0.00  0.00    +0.000 A 
BRANCH  20  26
ATOM     26  B   UNL     1      -0.043   6.344  -5.855  0.00  0.00    +0.000 B 
BRANCH  26  27
ATOM     27  O   UNL     1       0.908   7.456  -5.835  0.00  0.00    +0.000 OA
ATOM     28  H   UNL     1       0.360   8.263  -6.016  0.00  0.00    +0.000 HD
ENDBRANCH  26  27
BRANCH  26  29
ATOM     29  O   UNL     1      -1.013   6.256  -6.946  0.00  0.00    +0.000 OA
ATOM     30  H   UNL     1      -0.461   6.227  -7.768  0.00  0.00    +0.000 HD
ENDBRANCH  26  29
ENDBRANCH  20  26
ENDBRANCH  18  24
ENDBRANCH   1  18
TORSDOF 8
