REMARK  Name = 
REMARK  5 active torsions:
REMARK  status: ('A' for Active; 'I' for Inactive)
REMARK    1  A    between atoms: C_1  and  O_2
REMARK    2  A    between atoms: O_2  and  C_3
REMARK    3  A    between atoms: C_4  and  O_5
REMARK    4  A    between atoms: C_14  and  O_16
REMARK    5  A    between atoms: C_17  and  C_18
REMARK                            x       y       z     vdW  Elec       q    Type
REMARK                         _______ _______ _______ _____ _____    ______ ____
ROOT
ATOM      1  C   UNL     1       3.415  -1.162  -0.734  0.00  0.00    +0.162 A 
ATOM      2  C   UNL     1       4.517  -0.877  -1.555  0.00  0.00    +0.053 A 
ATOM      3  C   UNL     1       4.833  -1.693  -2.674  0.00  0.00    -0.037 A 
ATOM      4  C   UNL     1       3.944  -2.754  -2.952  0.00  0.00    -0.040 A 
ATOM      5  C   UNL     1       3.867  -3.373  -4.313  0.00  0.00    +0.036 C 
ATOM      6  C   UNL     1       4.764  -2.703  -5.340  0.00  0.00    +0.009 C 
ATOM      7  C   UNL     1       5.104  -1.186  -5.075  0.00  0.00    +0.000 C 
ATOM      8  C   UNL     1       6.144  -0.459  -5.958  0.00  0.00    +0.001 C 
ATOM      9  C   UNL     1       7.003  -1.379  -6.807  0.00  0.00    -0.003 C 
ATOM     10  C   UNL     1       6.232  -2.317  -7.772  0.00  0.00    +0.014 C 
ATOM     11  C   UNL     1       7.784  -2.148  -5.637  0.00  0.00    +0.010 C 
ATOM     12  C   UNL     1       7.272  -1.954  -4.041  0.00  0.00    +0.009 C 
ATOM     13  C   UNL     1       7.770  -0.340  -7.717  0.00  0.00    +0.121 C 
ATOM     14  C   UNL     1       7.504   1.042  -7.123  0.00  0.00    +0.032 C 
ATOM     15  C   UNL     1       6.054   0.918  -6.588  0.00  0.00    +0.007 C 
ATOM     16  C   UNL     1       2.936  -3.123  -2.052  0.00  0.00    +0.053 A 
ATOM     17  C   UNL     1       5.850  -1.234  -3.728  0.00  0.00    +0.023 C 
ATOM     18  C   UNL     1       2.661  -2.324  -0.971  0.00  0.00    +0.159 A 
ENDROOT
BRANCH   1  20
ATOM     19  C   UNL     1       3.706   0.698   0.720  0.00  0.00    +0.277 C 
ATOM     20  O   UNL     1       2.901  -0.376   0.264  0.00  0.00    -0.491 OA
ENDBRANCH   1  20
BRANCH  13  21
ATOM     21  O   UNL     1       7.231  -0.260  -9.054  0.00  0.00    -0.391 OA
ATOM     22  H   UNL     1       6.292   0.011  -9.000  0.00  0.00    +0.210 HD
ENDBRANCH  13  21
BRANCH  18  23
ATOM     23  O   UNL     1       1.586  -2.629  -0.186  0.00  0.00    -0.503 OA
ATOM     24  H   UNL     1       1.541  -1.914   0.478  0.00  0.00    +0.292 HD
ENDBRANCH  18  23
TORSDOF 3
