REMARK  Name = 
REMARK  11 active torsions:
REMARK  status: ('A' for Active; 'I' for Inactive)
REMARK    1  A    between atoms: C_2  and  N_3
REMARK    2  A    between atoms: C_2  and  C_4
REMARK    3  A    between atoms: C_2  and  C_8
REMARK    4  A    between atoms: C_4  and  C_5
REMARK    5  A    between atoms: C_5  and  C_6
REMARK    6  A    between atoms: C_6  and  C_7
REMARK    7  A    between atoms: C_8  and  O_9
REMARK    8  A    between atoms: C_8  and  O_10
REMARK    9  A    between atoms: C_8  and  C_11
REMARK   10  A    between atoms: C_11  and  N_12
REMARK   11  A    between atoms: N_12  and  C_13
REMARK                            x       y       z     vdW  Elec       q    Type
REMARK                         _______ _______ _______ _____ _____    ______ ____
ROOT
ATOM      1  C   UNL     1       2.456  -0.876  -1.330  0.00  0.00    +0.266 C 
ENDROOT
BRANCH   1   2
ATOM      2  O   UNL     1       1.993  -2.225  -1.233  0.00  0.00    -0.503 OA
ATOM      3  H   UNL     1       1.555  -2.322  -0.375  0.00  0.00    +0.288 HD
ENDBRANCH   1   2
BRANCH   1   4
ATOM      4  O   UNL     1       3.877  -0.898  -1.369  0.00  0.00    -0.503 OA
ATOM      5  H   UNL     1       4.094  -1.063  -2.308  0.00  0.00    +0.288 HD
ENDBRANCH   1   4
BRANCH   1   6
ATOM      6  C   UNL     1       1.966  -0.005  -0.109  0.00  0.00    +0.137 C 
BRANCH   6   7
ATOM      7  N   UNL     1       0.492   0.116  -0.022  0.00  0.00    -0.321 NA
ATOM      8  H   UNL     1       0.105   0.480  -0.893  0.00  0.00    +0.119 HD
ATOM      9  H   UNL     1       0.056  -0.789   0.136  0.00  0.00    +0.119 HD
ENDBRANCH   6   7
BRANCH   6  10
ATOM     10  C   UNL     1       2.422  -0.518   1.288  0.00  0.00    +0.026 C 
BRANCH  10  11
ATOM     11  C   UNL     1       3.935  -0.549   1.513  0.00  0.00    +0.001 C 
BRANCH  11  12
ATOM     12  C   UNL     1       4.294  -1.008   2.930  0.00  0.00    -0.003 C 
ATOM     13  C   UNL     1       5.803  -1.081   3.111  0.00  0.00    +0.004 C 
ENDBRANCH  11  12
ENDBRANCH  10  11
ENDBRANCH   6  10
ENDBRANCH   1   6
BRANCH   1  14
ATOM     14  C   UNL     1       1.962  -0.330  -2.701  0.00  0.00    +0.175 C 
BRANCH  14  15
ATOM     15  N   UNL     1       2.589  -1.124  -3.787  0.00  0.00    -0.307 NA
ATOM     16  H   UNL     1       2.410  -2.115  -3.583  0.00  0.00    +0.122 HD
BRANCH  15  17
ATOM     17  C   UNL     1       2.083  -0.758  -5.108  0.00  0.00    +0.054 C 
ATOM     18  C   UNL     1       1.060  -1.623  -5.791  0.00  0.00    +0.020 C 
ATOM     19  C   UNL     1       2.480  -1.608  -6.287  0.00  0.00    +0.020 C 
ENDBRANCH  15  17
ENDBRANCH  14  15
ENDBRANCH   1  14
TORSDOF 10
