REMARK  Name = 
REMARK  3 active torsions:
REMARK  status: ('A' for Active; 'I' for Inactive)
REMARK    1  A    between atoms: C_2  and  C_6
REMARK    2  A    between atoms: C_13  and  C_15
REMARK    3  A    between atoms: C_20  and  O_21
REMARK                            x       y       z     vdW  Elec       q    Type
REMARK                         _______ _______ _______ _____ _____    ______ ____
ROOT
ATOM      1  C   UNL     1       3.021  -1.161   0.698  0.00  0.00    +0.063 A 
ATOM      2  C   UNL     1       4.107  -0.998   1.582  0.00  0.00    +0.018 A 
ATOM      3  C   UNL     1       4.750  -2.098   2.177  0.00  0.00    +0.031 A 
ATOM      4  C   UNL     1       4.280  -3.386   1.895  0.00  0.00    +0.089 A 
ATOM      5  N   UNL     1       4.712  -4.604   2.352  0.00  0.00    -0.228 NA
ATOM      6  C   UNL     1       3.926  -5.509   1.790  0.00  0.00    +0.143 A 
ATOM      7  N   UNL     1       3.008  -4.884   0.979  0.00  0.00    -0.338 N 
ATOM      8  H   UNL     1       2.305  -5.389   0.457  0.00  0.00    +0.167 HD
ATOM      9  C   UNL     1       3.210  -3.532   1.026  0.00  0.00    +0.067 A 
ATOM     10  C   UNL     1       2.566  -2.462   0.400  0.00  0.00    +0.043 A 
ENDROOT
BRANCH   1  14
ATOM     11  N   UNL     1       3.054   1.082  -0.220  0.00  0.00    -0.250 N 
ATOM     12  H   UNL     1       4.060   1.095  -0.086  0.00  0.00    +0.288 HD
ATOM     13  H   UNL     1       2.633   1.910  -0.618  0.00  0.00    +0.288 HD
ATOM     14  C   UNL     1       2.355   0.011   0.091  0.00  0.00    +0.266 C 
ATOM     15  N   UNL     1       1.057  -0.017  -0.132  0.00  0.00    -0.288 N 
ATOM     16  H   UNL     1       0.559   0.755  -0.553  0.00  0.00    +0.301 HD
ATOM     17  H   UNL     1       0.507  -0.825   0.139  0.00  0.00    +0.301 HD
ENDBRANCH   1  14
BRANCH   6  18
ATOM     18  C   UNL     1       3.976  -6.967   1.952  0.00  0.00    +0.059 A 
ATOM     19  C   UNL     1       3.056  -7.837   1.334  0.00  0.00    +0.127 A 
ATOM     20  C   UNL     1       3.152  -9.222   1.490  0.00  0.00    +0.046 A 
ATOM     21  C   UNL     1       4.169  -9.761   2.274  0.00  0.00    +0.004 A 
ATOM     22  C   UNL     1       5.082  -8.918   2.904  0.00  0.00    +0.001 A 
ATOM     23  C   UNL     1       4.985  -7.532   2.746  0.00  0.00    +0.015 A 
BRANCH  19  24
ATOM     24  O   UNL     1       2.037  -7.330   0.559  0.00  0.00    -0.506 OA
ATOM     25  H   UNL     1       1.480  -8.078   0.278  0.00  0.00    +0.292 HD
ENDBRANCH  19  24
ENDBRANCH   6  18
TORSDOF 3
