REMARK  Name = 
REMARK  47 active torsions:
REMARK  status: ('A' for Active; 'I' for Inactive)
REMARK    1  A    between atoms: C_1  and  O_2
REMARK    2  A    between atoms: O_2  and  C_3
REMARK    3  A    between atoms: C_3  and  C_4
REMARK    4  A    between atoms: C_4  and  N_6
REMARK    5  A    between atoms: C_4  and  C_9
REMARK    6  A    between atoms: N_6  and  C_7
REMARK    7  A    between atoms: N_6  and  C_8
REMARK    8  A    between atoms: C_9  and  O_11
REMARK    9  A    between atoms: C_9  and  C_12
REMARK   10  A    between atoms: C_12  and  O_14
REMARK   11  A    between atoms: C_12  and  C_15
REMARK   12  A    between atoms: N_17  and  C_18
REMARK   13  A    between atoms: C_18  and  C_19
REMARK   14  A    between atoms: C_19  and  C_20
REMARK   15  A    between atoms: C_20  and  C_22
REMARK   16  A    between atoms: C_20  and  C_23
REMARK   17  A    between atoms: C_25  and  C_28
REMARK   18  A    between atoms: C_29  and  C_30
REMARK   19  A    between atoms: C_30  and  C_31
REMARK   20  A    between atoms: C_36  and  C_38
REMARK   21  A    between atoms: C_38  and  O_40
REMARK   22  A    between atoms: C_38  and  C_42
REMARK   23  A    between atoms: O_40  and  C_41
REMARK   24  A    between atoms: C_42  and  C_43
REMARK   25  A    between atoms: C_43  and  O_45
REMARK   26  A    between atoms: C_43  and  C_46
REMARK   27  A    between atoms: C_46  and  C_48
REMARK   28  A    between atoms: C_46  and  C_49
REMARK   29  A    between atoms: C_49  and  O_51
REMARK   30  A    between atoms: C_49  and  C_52
REMARK   31  A    between atoms: C_52  and  C_54
REMARK   32  A    between atoms: C_52  and  C_55
REMARK   33  A    between atoms: C_56  and  C_57
REMARK   34  A    between atoms: C_56  and  C_58
REMARK   35  A    between atoms: C_58  and  C_59
REMARK   36  A    between atoms: C_60  and  C_61
REMARK   37  A    between atoms: C_62  and  C_63
REMARK   38  A    between atoms: C_63  and  C_64
REMARK   39  A    between atoms: C_65  and  C_66
REMARK   40  A    between atoms: C_68  and  O_70
REMARK   41  A    between atoms: O_70  and  P_71
REMARK   42  A    between atoms: P_71  and  O_72
REMARK   43  A    between atoms: P_71  and  O_73
REMARK   44  A    between atoms: C_75  and  C_76
REMARK   45  A    between atoms: C_75  and  C_77
REMARK   46  A    between atoms: C_79  and  O_81
REMARK   47  A    between atoms: C_82  and  C_84
REMARK                            x       y       z     vdW  Elec       q    Type
REMARK                         _______ _______ _______ _____ _____    ______ ____
ROOT
ATOM      1  C   UNL     1      34.029   5.781 -10.403  0.00  0.00    +0.131 C 
ATOM      2  C   UNL     1      33.848   5.438 -11.907  0.00  0.00    +0.044 C 
ATOM      3  C   UNL     1      33.478   6.723 -12.657  0.00  0.00    +0.013 C 
ATOM      4  C   UNL     1      32.785   4.383 -12.202  0.00  0.00    +0.125 C 
ATOM      5  C   UNL     1      31.522   4.557 -11.367  0.00  0.00    +0.097 C 
ATOM      6  C   UNL     1      31.738   4.916  -9.880  0.00  0.00    +0.181 C 
ATOM      7  C   UNL     1      31.966   3.746  -8.905  0.00  0.00    +0.048 C 
ATOM      8  C   UNL     1      32.892   4.019  -7.683  0.00  0.00    +0.019 C 
ATOM      9  C   UNL     1      32.485   2.434  -9.512  0.00  0.00    +0.019 C 
ATOM     10  C   UNL     1      30.602   3.636  -8.268  0.00  0.00    +0.172 C 
ATOM     11  C   UNL     1      29.540   4.501  -8.883  0.00  0.00    +0.180 C 
ATOM     12  O   UNL     1      30.392   5.521  -9.482  0.00  0.00    -0.340 OA
ATOM     13  O   UNL     1      32.771   5.900  -9.706  0.00  0.00    -0.344 OA
ENDROOT
BRANCH   4  14
ATOM     14  O   UNL     1      33.358   3.088 -12.096  0.00  0.00    -0.391 OA
ATOM     15  H   UNL     1      32.703   2.443 -12.419  0.00  0.00    +0.210 HD
ENDBRANCH   4  14
BRANCH   1  16
ATOM     16  C   UNL     1      35.214   4.982  -9.746  0.00  0.00    +0.059 C 
BRANCH  16  18
ATOM     17  C   UNL     1      35.590   6.485  -7.632  0.00  0.00    +0.027 C 
ATOM     18  C   UNL     1      35.896   5.455  -8.451  0.00  0.00    -0.022 C 
BRANCH  17  22
ATOM     19  C   UNL     1      36.849   8.086  -4.764  0.00  0.00    +0.199 A 
ATOM     20  O   UNL     1      37.845   7.147  -4.871  0.00  0.00    -0.447 OA
ATOM     21  C   UNL     1      37.489   6.391  -5.948  0.00  0.00    +0.225 A 
ATOM     22  C   UNL     1      36.319   6.895  -6.462  0.00  0.00    +0.102 A 
ATOM     23  N   UNL     1      35.904   7.965  -5.686  0.00  0.00    -0.214 NA
BRANCH  19  24
ATOM     24  C   UNL     1      36.940   9.043  -3.598  0.00  0.00    +0.073 C 
ATOM     25  C   UNL     1      37.746   8.435  -2.434  0.00  0.00    +0.017 C 
BRANCH  24  26
ATOM     26  C   UNL     1      37.575  10.405  -3.955  0.00  0.00    +0.031 C 
BRANCH  26  27
ATOM     27  C   UNL     1      36.773  11.248  -4.942  0.00  0.00    +0.105 C 
BRANCH  27  29
ATOM     28  C   UNL     1      38.409  12.700  -6.122  0.00  0.00    +0.244 C 
ATOM     29  N   UNL     1      37.399  12.541  -5.192  0.00  0.00    -0.313 N 
ATOM     30  H   UNL     1      37.167  13.328  -4.596  0.00  0.00    +0.149 HD
ATOM     31  O   UNL     1      38.920  11.749  -6.712  0.00  0.00    -0.273 OA
BRANCH  28  32
ATOM     32  C   UNL     1      38.926  14.151  -6.291  0.00  0.00    +0.230 C 
BRANCH  32  33
ATOM     33  O   UNL     1      40.316  14.171  -6.653  0.00  0.00    -0.380 OA
ATOM     34  H   UNL     1      40.637  13.256  -6.540  0.00  0.00    +0.211 HD
ENDBRANCH  32  33
BRANCH  32  35
ATOM     35  C   UNL     1      38.103  14.953  -7.334  0.00  0.00    +0.171 C 
BRANCH  35  36
ATOM     36  O   UNL     1      38.168  14.271  -8.598  0.00  0.00    -0.387 OA
ATOM     37  H   UNL     1      37.426  14.588  -9.153  0.00  0.00    +0.210 HD
ENDBRANCH  35  36
BRANCH  35  38
ATOM     38  C   UNL     1      36.624  15.237  -6.885  0.00  0.00    +0.113 C 
BRANCH  38  39
ATOM     39  N   UNL     1      36.567  15.869  -5.533  0.00  0.00    -0.301 NA
ATOM     40  C   UNL     1      35.223  15.834  -4.955  0.00  0.00    +0.105 C 
ATOM     41  C   UNL     1      37.092  17.240  -5.502  0.00  0.00    +0.105 C 
ENDBRANCH  38  39
BRANCH  38  42
ATOM     42  C   UNL     1      35.820  15.995  -7.988  0.00  0.00    +0.181 C 
BRANCH  42  44
ATOM     43  C   UNL     1      35.107  15.912 -10.246  0.00  0.00    +0.194 C 
ATOM     44  O   UNL     1      35.856  15.268  -9.222  0.00  0.00    -0.381 OA
ENDBRANCH  42  44
ENDBRANCH  38  42
ENDBRANCH  35  38
ENDBRANCH  32  35
ENDBRANCH  28  32
ENDBRANCH  27  29
ENDBRANCH  26  27
ENDBRANCH  24  26
ENDBRANCH  19  24
ENDBRANCH  17  22
ENDBRANCH  16  18
ENDBRANCH   1  16
BRANCH  10  45
ATOM     45  O   UNL     1      30.380   2.386  -7.813  0.00  0.00    -0.280 OA
BRANCH  45  46
ATOM     46  P   UNL     1      29.456   1.001  -8.283  0.00  0.00    +0.473 P 
ATOM     47  O   UNL     1      28.629  -0.238  -8.704  0.00  0.00    -0.228 OA
BRANCH  46  48
ATOM     48  O   UNL     1      29.681   1.432  -9.841  0.00  0.00    -0.303 OA
ATOM     49  H   UNL     1      29.619   0.578 -10.317  0.00  0.00    +0.222 HD
ENDBRANCH  46  48
BRANCH  46  50
ATOM     50  O   UNL     1      30.837   0.152  -8.093  0.00  0.00    -0.303 OA
ATOM     51  H   UNL     1      30.935  -0.170  -7.180  0.00  0.00    +0.222 HD
ENDBRANCH  46  50
ENDBRANCH  45  46
ENDBRANCH  10  45
BRANCH  11  52
ATOM     52  C   UNL     1      28.553   4.878  -7.663  0.00  0.00    +0.152 C 
BRANCH  52  53
ATOM     53  O   UNL     1      29.279   5.472  -6.538  0.00  0.00    -0.377 OA
ATOM     54  C   UNL     1      29.968   6.694  -6.793  0.00  0.00    +0.194 C 
ENDBRANCH  52  53
BRANCH  52  55
ATOM     55  C   UNL     1      27.208   5.629  -7.707  0.00  0.00    +0.066 C 
BRANCH  55  56
ATOM     56  C   UNL     1      25.905   5.209  -8.427  0.00  0.00    +0.122 C 
BRANCH  56  57
ATOM     57  C   UNL     1      25.021   3.940  -8.068  0.00  0.00    +0.044 C 
ATOM     58  C   UNL     1      23.767   4.002  -9.001  0.00  0.00    +0.013 C 
BRANCH  57  59
ATOM     59  C   UNL     1      25.690   2.544  -8.209  0.00  0.00    +0.126 C 
BRANCH  59  60
ATOM     60  C   UNL     1      24.795   1.304  -7.762  0.00  0.00    +0.038 C 
ATOM     61  C   UNL     1      24.617   1.119  -6.246  0.00  0.00    +0.014 C 
BRANCH  60  62
ATOM     62  C   UNL     1      25.298   0.021  -8.386  0.00  0.00    -0.018 C 
ATOM     63  C   UNL     1      24.589  -1.085  -8.679  0.00  0.00    -0.051 C 
ATOM     64  C   UNL     1      23.188  -1.406  -8.238  0.00  0.00    +0.044 C 
BRANCH  63  65
ATOM     65  C   UNL     1      25.082  -1.945  -9.758  0.00  0.00    -0.048 C 
ATOM     66  C   UNL     1      25.115  -1.389 -10.992  0.00  0.00    +0.003 C 
ATOM     67  C   UNL     1      25.341  -3.390  -9.459  0.00  0.00    +0.044 C 
BRANCH  66  68
ATOM     68  C   UNL     1      25.068  -2.150 -12.196  0.00  0.00    +0.001 C 
ATOM     69  C   UNL     1      25.079  -1.615 -13.417  0.00  0.00    +0.004 C 
BRANCH  69  70
ATOM     70  C   UNL     1      24.600  -2.380 -14.549  0.00  0.00    -0.040 C 
ATOM     71  C   UNL     1      25.167  -2.302 -15.765  0.00  0.00    +0.092 C 
ATOM     72  C   UNL     1      23.401  -3.289 -14.291  0.00  0.00    +0.044 C 
BRANCH  71  73
ATOM     73  C   UNL     1      24.693  -3.337 -16.772  0.00  0.00    +0.092 C 
ATOM     74  N   UNL     1      24.299  -4.195 -17.608  0.00  0.00    -0.191 NA
ENDBRANCH  71  73
ENDBRANCH  69  70
ENDBRANCH  66  68
ENDBRANCH  63  65
ENDBRANCH  60  62
ENDBRANCH  59  60
BRANCH  59  75
ATOM     75  O   UNL     1      26.061   2.356  -9.588  0.00  0.00    -0.391 OA
ATOM     76  H   UNL     1      26.265   3.200 -10.015  0.00  0.00    +0.210 HD
ENDBRANCH  59  75
ENDBRANCH  57  59
ENDBRANCH  56  57
BRANCH  56  77
ATOM     77  O   UNL     1      25.054   6.352  -8.122  0.00  0.00    -0.391 OA
ATOM     78  H   UNL     1      24.309   6.386  -8.742  0.00  0.00    +0.210 HD
ENDBRANCH  56  77
ENDBRANCH  55  56
ENDBRANCH  52  55
ENDBRANCH  11  52
TORSDOF 34
