REMARK  Name = 
REMARK  16 active torsions:
REMARK  status: ('A' for Active; 'I' for Inactive)
REMARK    1  A    between atoms: C_1  and  C_2
REMARK    2  A    between atoms: C_2  and  C_3
REMARK    3  A    between atoms: C_3  and  C_4
REMARK    4  A    between atoms: C_4  and  CA_5
REMARK    5  A    between atoms: CA_5  and  N_7
REMARK    6  A    between atoms: CA_5  and  C_23
REMARK    7  A    between atoms: N_7  and  C_8
REMARK    8  A    between atoms: C_8  and  C_9
REMARK    9  A    between atoms: C_10  and  O_11
REMARK   10  A    between atoms: C_12  and  C_13
REMARK   11  A    between atoms: C_16  and  C_17
REMARK   12  A    between atoms: C_17  and  O_18
REMARK   13  A    between atoms: O_18  and  P_19
REMARK   14  A    between atoms: P_19  and  O_20
REMARK   15  A    between atoms: P_19  and  O_21
REMARK   16  A    between atoms: C_23  and  O_24
REMARK                            x       y       z     vdW  Elec       q    Type
REMARK                         _______ _______ _______ _____ _____    ______ ____
ROOT
ATOM      1  C   UNL     1       2.792  -5.087   0.770  0.00  0.00    +0.016 A 
ATOM      2  C   UNL     1       2.226  -6.040   1.636  0.00  0.00    +0.005 A 
ATOM      3  C   UNL     1       1.784  -7.240   1.063  0.00  0.00    +0.117 A 
ATOM      4  N   UNL     1       1.878  -7.564  -0.245  0.00  0.00    -0.256 NA
ATOM      5  C   UNL     1       2.453  -6.657  -1.066  0.00  0.00    +0.080 A 
ATOM      6  C   UNL     1       2.544  -7.043  -2.511  0.00  0.00    +0.069 C 
ATOM      7  C   UNL     1       2.934  -5.438  -0.590  0.00  0.00    +0.142 A 
ENDROOT
BRANCH   7   8
ATOM      8  O   UNL     1       3.572  -4.590  -1.454  0.00  0.00    -0.505 OA
ATOM      9  H   UNL     1       4.135  -4.022  -0.898  0.00  0.00    +0.292 HD
ENDBRANCH   7   8
BRANCH   1  10
ATOM     10  C   UNL     1       3.182  -3.694   1.220  0.00  0.00    +0.121 C 
BRANCH  10  11
ATOM     11  N   UNL     1       4.622  -3.441   0.989  0.00  0.00    -0.300 NA
ATOM     12  H   UNL     1       5.137  -4.155   1.513  0.00  0.00    +0.123 HD
BRANCH  11  13
ATOM     13  CA  UNL     1       5.047  -2.106   1.509  0.00  0.00    +0.164 C 
BRANCH  13  14
ATOM     14  C   UNL     1       4.416  -0.988   0.653  0.00  0.00    +0.322 C 
ATOM     15  OXT UNL     1       3.792  -0.032   1.083  0.00  0.00    -0.249 OA
BRANCH  14  16
ATOM     16  O   UNL     1       4.628  -1.185  -0.673  0.00  0.00    -0.480 OA
ATOM     17  H   UNL     1       5.115  -2.020  -0.820  0.00  0.00    +0.295 HD
ENDBRANCH  14  16
ENDBRANCH  13  14
BRANCH  13  18
ATOM     18  C   UNL     1       4.820  -1.841   3.010  0.00  0.00    +0.030 C 
BRANCH  18  19
ATOM     19  C   UNL     1       5.521  -2.840   3.934  0.00  0.00    +0.002 C 
BRANCH  19  21
ATOM     20  C   UNL     1       5.948  -3.467   6.344  0.00  0.00    +0.004 C 
ATOM     21  C   UNL     1       5.234  -2.512   5.402  0.00  0.00    -0.003 C 
ENDBRANCH  19  21
ENDBRANCH  18  19
ENDBRANCH  13  18
ENDBRANCH  11  13
ENDBRANCH  10  11
ENDBRANCH   1  10
BRANCH   2  22
ATOM     22  C   UNL     1       2.031  -5.860   3.119  0.00  0.00    +0.209 C 
BRANCH  22  23
ATOM     23  O   UNL     1       2.481  -7.047   3.739  0.00  0.00    -0.282 OA
BRANCH  23  24
ATOM     24  P   UNL     1       1.741  -7.556   5.058  0.00  0.00    +0.473 P 
ATOM     25  O   UNL     1       2.041  -6.866   6.337  0.00  0.00    -0.228 OA
BRANCH  24  26
ATOM     26  O   UNL     1       2.161  -9.088   4.975  0.00  0.00    -0.303 OA
ATOM     27  H   UNL     1       3.096  -9.173   4.695  0.00  0.00    +0.222 HD
ENDBRANCH  24  26
BRANCH  24  28
ATOM     28  O   UNL     1       0.218  -7.684   4.601  0.00  0.00    -0.303 OA
ATOM     29  H   UNL     1      -0.227  -8.398   5.097  0.00  0.00    +0.222 HD
ENDBRANCH  24  28
ENDBRANCH  23  24
ENDBRANCH  22  23
ENDBRANCH   2  22
TORSDOF 14
