REMARK  Name = 
REMARK  1 active torsions:
REMARK  status: ('A' for Active; 'I' for Inactive)
REMARK    1  A    between atoms: C_2  and  CA_4
REMARK                            x       y       z     vdW  Elec       q    Type
REMARK                         _______ _______ _______ _____ _____    ______ ____
ROOT
ATOM      1  CA  PRO A   1       3.100  -1.201  -0.593  0.00  0.00    +0.200 C 
ATOM      2  CB  PRO A   1       4.399  -1.168  -1.309  0.00  0.00    +0.114 C 
ATOM      3  CG  PRO A   1       4.665  -2.639  -1.621  0.00  0.00    +0.082 C 
ATOM      4  CD  PRO A   1       3.531  -3.432  -0.984  0.00  0.00    +0.349 C 
ATOM      5  N   PRO A   1       2.674  -2.394  -0.447  0.00  0.00    -0.243 N 
ATOM      6  H   PRO A   1       1.774  -2.459   0.053  0.00  0.00    +0.445 HD
ENDROOT
BRANCH   1   8
ATOM      7  O   PRO A   1       1.255  -0.455   0.493  0.00  0.00    -0.540 OA
ATOM      8  C   PRO A   1       2.323  -0.067  -0.062  0.00  0.00    +0.133 C 
ATOM      9  OXT PRO A   1       2.821   1.071  -0.225  0.00  0.00    -0.540 OA
ENDBRANCH   1   8
TORSDOF 1
