REMARK  Name = 
REMARK  6 active torsions:
REMARK  status: ('A' for Active; 'I' for Inactive)
REMARK    1  A    between atoms: O_1  and  C_2
REMARK    2  A    between atoms: C_2  and  CA_3
REMARK    3  A    between atoms: CA_6  and  C_8
REMARK    4  A    between atoms: C_8  and  O_9
REMARK    5  A    between atoms: CG2_10  and  O_12
REMARK    6  A    between atoms: CB_13  and  OG1_15
REMARK                            x       y       z     vdW  Elec       q    Type
REMARK                         _______ _______ _______ _____ _____    ______ ____
ROOT
ATOM      1  CA  UNL     1       3.099   0.842  -1.107  0.00  0.00    +0.111 C 
ATOM      2  CB  UNL     1       4.638   0.934  -1.169  0.00  0.00    +0.164 C 
ATOM      3  CG2 UNL     1       4.942   2.379  -1.606  0.00  0.00    +0.164 C 
ATOM      4  CA  UNL     1       3.569   3.049  -1.709  0.00  0.00    +0.111 C 
ATOM      5  N   UNL     1       2.640   2.238  -0.882  0.00  0.00    -0.302 NA
ATOM      6  H   UNL     1       2.792   2.467   0.103  0.00  0.00    +0.123 HD
ENDROOT
BRANCH   2   7
ATOM      7  OG1 UNL     1       5.217   0.725   0.131  0.00  0.00    -0.388 OA
ATOM      8  HG1 UNL     1       4.585   1.027   0.803  0.00  0.00    +0.210 HD
ENDBRANCH   2   7
BRANCH   3   9
ATOM      9  O   UNL     1       5.599   2.387  -2.872  0.00  0.00    -0.388 OA
ATOM     10  H   UNL     1       5.958   3.280  -3.015  0.00  0.00    +0.210 HD
ENDBRANCH   3   9
BRANCH   1  11
ATOM     11  C   UNL     1       2.488   0.254  -2.392  0.00  0.00    +0.177 C 
BRANCH  11  12
ATOM     12  O   UNL     1       2.828  -1.124  -2.508  0.00  0.00    -0.393 OA
ATOM     13  H   UNL     1       2.425  -1.445  -3.334  0.00  0.00    +0.209 HD
ENDBRANCH  11  12
ENDBRANCH   1  11
BRANCH   4  14
ATOM     14  C   UNL     1       3.579   4.511  -1.251  0.00  0.00    +0.177 C 
BRANCH  14  15
ATOM     15  O   UNL     1       2.265   5.056  -1.355  0.00  0.00    -0.393 OA
ATOM     16  H   UNL     1       1.651   4.317  -1.173  0.00  0.00    +0.209 HD
ENDBRANCH  14  15
ENDBRANCH   4  14
TORSDOF 6
