REMARK  Name = 
REMARK  2 active torsions:
REMARK  status: ('A' for Active; 'I' for Inactive)
REMARK    1  A    between atoms: O_1  and  C_2
REMARK    2  A    between atoms: C_2  and  CA_4
REMARK                            x       y       z     vdW  Elec       q    Type
REMARK                         _______ _______ _______ _____ _____    ______ ____
ROOT
ATOM      1  CA  UNL     1       3.203   1.161   0.040  0.00  0.00    +0.148 A 
ATOM      2  C   UNL     1       4.557   1.081  -0.232  0.00  0.00    +0.035 A 
ATOM      3  C   UNL     1       5.254   2.274  -0.373  0.00  0.00    +0.012 A 
ATOM      4  C   UNL     1       4.581   3.496  -0.238  0.00  0.00    +0.000 A 
ATOM      5  C   UNL     1       5.253   4.720  -0.396  0.00  0.00    +0.010 A 
ATOM      6  C   UNL     1       4.565   5.924  -0.260  0.00  0.00    +0.001 A 
ATOM      7  C   UNL     1       3.208   5.909   0.043  0.00  0.00    +0.002 A 
ATOM      8  C   UNL     1       2.541   4.690   0.200  0.00  0.00    +0.028 A 
ATOM      9  C   UNL     1       3.198   3.474   0.057  0.00  0.00    +0.072 A 
ATOM     10  N   UNL     1       2.507   2.327   0.194  0.00  0.00    -0.240 NA
ENDROOT
BRANCH   1  11
ATOM     11  C   UNL     1       2.390  -0.083   0.165  0.00  0.00    +0.355 C 
ATOM     12  OXT UNL     1       2.825  -1.217   0.074  0.00  0.00    -0.243 OA
BRANCH  11  13
ATOM     13  O   UNL     1       1.087   0.226   0.380  0.00  0.00    -0.476 OA
ATOM     14  H   UNL     1       1.000   1.208   0.408  0.00  0.00    +0.295 HD
ENDBRANCH  11  13
ENDBRANCH   1  11
TORSDOF 2
