REMARK  Name = 
REMARK  13 active torsions:
REMARK  status: ('A' for Active; 'I' for Inactive)
REMARK    1  A    between atoms: C_2  and  C_3
REMARK    2  A    between atoms: C_2  and  N_7
REMARK    3  A    between atoms: C_2  and  C_15
REMARK    4  A    between atoms: C_3  and  C_4
REMARK    5  A    between atoms: C_4  and  C_5
REMARK    6  A    between atoms: C_4  and  C_6
REMARK    7  A    between atoms: C_8  and  C_10
REMARK    8  A    between atoms: N_17  and  C_18
REMARK    9  A    between atoms: C_18  and  C_20
REMARK   10  A    between atoms: C_18  and  P_30
REMARK   11  A    between atoms: C_20  and  C_21
REMARK   12  A    between atoms: P_30  and  O_31
REMARK   13  A    between atoms: P_30  and  O_32
REMARK                            x       y       z     vdW  Elec       q    Type
REMARK                         _______ _______ _______ _____ _____    ______ ____
ROOT
ATOM      1  C   UNL     1       2.854  -0.146  -1.388  0.00  0.00    +0.234 C 
ATOM      2  N   UNL     1       4.085   0.418  -1.643  0.00  0.00    -0.300 N 
ATOM      3  H   UNL     1       4.622   0.750  -0.850  0.00  0.00    +0.150 HD
ATOM      4  O   UNL     1       2.184  -0.633  -2.296  0.00  0.00    -0.274 OA
ENDROOT
BRANCH   1   5
ATOM      5  C   UNL     1       2.409  -0.175   0.103  0.00  0.00    +0.159 C 
BRANCH   5   6
ATOM      6  N   UNL     1       3.467   0.357   0.968  0.00  0.00    -0.298 N 
ATOM      7  H   UNL     1       3.515   1.350   1.184  0.00  0.00    +0.150 HD
ATOM      8  C   UNL     1       4.503  -0.447   1.407  0.00  0.00    +0.280 C 
ATOM      9  O   UNL     1       4.577  -1.631   1.100  0.00  0.00    -0.267 OA
BRANCH   8  10
ATOM     10  C   UNL     1       5.507   0.239   2.185  0.00  0.00    +0.189 A 
ATOM     11  O   UNL     1       5.341   1.561   2.499  0.00  0.00    -0.458 OA
ATOM     12  C   UNL     1       6.427   1.934   3.232  0.00  0.00    +0.196 A 
ATOM     13  C   UNL     1       7.292   0.877   3.385  0.00  0.00    +0.042 A 
ATOM     14  C   UNL     1       6.704  -0.214   2.707  0.00  0.00    +0.054 A 
ENDBRANCH   8  10
ENDBRANCH   5   6
BRANCH   5  15
ATOM     15  C   UNL     1       1.087   0.555   0.401  0.00  0.00    +0.034 C 
BRANCH  15  16
ATOM     16  C   UNL     1      -0.169   0.072  -0.358  0.00  0.00    -0.015 C 
ATOM     17  C   UNL     1      -1.393   0.884   0.078  0.00  0.00    +0.007 C 
ATOM     18  C   UNL     1      -0.459  -1.417  -0.156  0.00  0.00    +0.007 C 
ENDBRANCH  15  16
ENDBRANCH   5  15
ENDBRANCH   1   5
BRANCH   2  19
ATOM     19  C   UNL     1       4.756   0.359  -2.961  0.00  0.00    +0.191 C 
BRANCH  19  20
ATOM     20  P   UNL     1       6.196  -0.769  -2.896  0.00  0.00    +0.348 P 
ATOM     21  O   UNL     1       7.414  -1.724  -2.841  0.00  0.00    -0.257 OA
BRANCH  20  22
ATOM     22  O   UNL     1       6.191  -0.800  -4.541  0.00  0.00    -0.323 OA
ATOM     23  H   UNL     1       6.811  -1.524  -4.776  0.00  0.00    +0.220 HD
ENDBRANCH  20  22
BRANCH  20  24
ATOM     24  O   UNL     1       5.132  -2.023  -2.699  0.00  0.00    -0.323 OA
ATOM     25  H   UNL     1       4.177  -1.861  -2.834  0.00  0.00    +0.220 HD
ENDBRANCH  20  24
ENDBRANCH  19  20
BRANCH  19  26
ATOM     26  C   UNL     1       5.121   1.780  -3.437  0.00  0.00    +0.072 C 
BRANCH  26  27
ATOM     27  C   UNL     1       6.084   2.516  -2.551  0.00  0.00    -0.020 A 
ATOM     28  C   UNL     1       5.777   3.512  -1.562  0.00  0.00    +0.003 A 
ATOM     29  C   UNL     1       4.589   4.125  -1.111  0.00  0.00    +0.010 A 
ATOM     30  C   UNL     1       4.650   5.109  -0.114  0.00  0.00    +0.001 A 
ATOM     31  C   UNL     1       5.869   5.473   0.450  0.00  0.00    +0.002 A 
ATOM     32  C   UNL     1       7.061   4.884   0.023  0.00  0.00    +0.026 A 
ATOM     33  C   UNL     1       6.986   3.921  -0.992  0.00  0.00    +0.047 A 
ATOM     34  N   UNL     1       7.989   3.241  -1.638  0.00  0.00    -0.360 N 
ATOM     35  H   UNL     1       8.975   3.373  -1.460  0.00  0.00    +0.165 HD
ATOM     36  C   UNL     1       7.462   2.421  -2.601  0.00  0.00    +0.087 A 
ENDBRANCH  26  27
ENDBRANCH  19  26
ENDBRANCH   2  19
TORSDOF 11
