REMARK  Name = 
REMARK  14 active torsions:
REMARK  status: ('A' for Active; 'I' for Inactive)
REMARK    1  A    between atoms: O_1  and  C_2
REMARK    2  A    between atoms: C_2  and  C_3
REMARK    3  A    between atoms: C_3  and  O_5
REMARK    4  A    between atoms: C_3  and  C_6
REMARK    5  A    between atoms: C_6  and  O_8
REMARK    6  A    between atoms: C_6  and  C_9
REMARK    7  A    between atoms: C_9  and  O_11
REMARK    8  A    between atoms: C_9  and  C_12
REMARK    9  A    between atoms: C_12  and  O_14
REMARK   10  A    between atoms: C_12  and  C_15
REMARK   11  A    between atoms: C_15  and  O_16
REMARK   12  A    between atoms: O_16  and  P_17
REMARK   13  A    between atoms: P_17  and  O_18
REMARK   14  A    between atoms: P_17  and  O_19
REMARK                            x       y       z     vdW  Elec       q    Type
REMARK                         _______ _______ _______ _____ _____    ______ ____
ROOT
ATOM      1  C   UNL     1       7.091  -2.425  -0.224  0.00  0.00    +0.176 C 
ENDROOT
BRANCH   1   2
ATOM      2  O   UNL     1       6.785  -1.182  -0.909  0.00  0.00    -0.386 OA
ATOM      3  H   UNL     1       7.370  -1.157  -1.688  0.00  0.00    +0.210 HD
ENDBRANCH   1   2
BRANCH   1   4
ATOM      4  C   UNL     1       6.450  -3.586  -1.016  0.00  0.00    +0.176 C 
BRANCH   4   5
ATOM      5  O   UNL     1       6.978  -3.571  -2.357  0.00  0.00    -0.386 OA
ATOM      6  H   UNL     1       6.586  -2.792  -2.790  0.00  0.00    +0.210 HD
ENDBRANCH   4   5
BRANCH   4   7
ATOM      7  C   UNL     1       6.705  -4.964  -0.384  0.00  0.00    +0.171 C 
BRANCH   7   8
ATOM      8  O   UNL     1       8.117  -5.164  -0.166  0.00  0.00    -0.387 OA
ATOM      9  H   UNL     1       8.216  -6.133  -0.071  0.00  0.00    +0.210 HD
ENDBRANCH   7   8
BRANCH   7  10
ATOM     10  C   UNL     1       6.178  -6.118  -1.246  0.00  0.00    +0.189 C 
BRANCH  10  11
ATOM     11  O   UNL     1       6.487  -7.350  -0.582  0.00  0.00    -0.392 OA
ATOM     12  H   UNL     1       6.111  -8.063  -1.130  0.00  0.00    +0.210 HD
ENDBRANCH  10  11
ENDBRANCH   7  10
ENDBRANCH   4   7
ENDBRANCH   1   4
BRANCH   1  13
ATOM     13  C   UNL     1       6.620  -2.342   1.240  0.00  0.00    +0.172 C 
BRANCH  13  14
ATOM     14  O   UNL     1       5.185  -2.386   1.306  0.00  0.00    -0.387 OA
ATOM     15  H   UNL     1       4.965  -2.207   2.242  0.00  0.00    +0.210 HD
ENDBRANCH  13  14
BRANCH  13  16
ATOM     16  C   UNL     1       7.115  -1.069   1.942  0.00  0.00    +0.206 C 
BRANCH  16  17
ATOM     17  O   UNL     1       6.709  -1.127   3.308  0.00  0.00    -0.284 OA
BRANCH  17  18
ATOM     18  P   UNL     1       7.276   0.171   4.301  0.00  0.00    +0.472 P 
ATOM     19  O   UNL     1       7.783   1.333   5.190  0.00  0.00    -0.228 OA
BRANCH  18  20
ATOM     20  O   UNL     1       8.564  -0.781   4.633  0.00  0.00    -0.303 OA
ATOM     21  H   UNL     1       9.390  -0.304   4.430  0.00  0.00    +0.222 HD
ENDBRANCH  18  20
BRANCH  18  22
ATOM     22  O   UNL     1       6.300  -0.390   5.481  0.00  0.00    -0.303 OA
ATOM     23  H   UNL     1       6.674  -0.054   6.318  0.00  0.00    +0.222 HD
ENDBRANCH  18  22
ENDBRANCH  17  18
ENDBRANCH  16  17
ENDBRANCH  13  16
ENDBRANCH   1  13
TORSDOF 14
