REMARK  Name = 
REMARK  8 active torsions:
REMARK  status: ('A' for Active; 'I' for Inactive)
REMARK    1  A    between atoms: C_1  and  O_2
REMARK    2  A    between atoms: O_2  and  C_3
REMARK    3  A    between atoms: C_5  and  C_11
REMARK    4  A    between atoms: C_7  and  O_8
REMARK    5  A    between atoms: O_8  and  C_9
REMARK    6  A    between atoms: C_13  and  C_20
REMARK    7  A    between atoms: C_14  and  C_15
REMARK    8  A    between atoms: C_15  and  N_16
REMARK                            x       y       z     vdW  Elec       q    Type
REMARK                         _______ _______ _______ _____ _____    ______ ____
ROOT
ATOM      1  C   UNL     1       2.652   4.867   0.812  0.00  0.00    +0.163 A 
ATOM      2  N   UNL     1       3.455   5.823   1.278  0.00  0.00    -0.213 NA
ATOM      3  C   UNL     1       3.113   7.085   1.042  0.00  0.00    +0.125 A 
ATOM      4  N   UNL     1       3.991   7.993   1.635  0.00  0.00    -0.343 N 
ATOM      5  H   UNL     1       4.804   7.478   1.959  0.00  0.00    +0.144 HD
ATOM      6  H   UNL     1       4.223   8.731   0.968  0.00  0.00    +0.144 HD
ATOM      7  C   UNL     1       1.976   7.478   0.330  0.00  0.00    +0.032 A 
ATOM      8  C   UNL     1       1.155   6.418  -0.107  0.00  0.00    +0.082 A 
ATOM      9  N   UNL     1       1.508   5.116   0.144  0.00  0.00    -0.227 NA
ENDROOT
BRANCH   8  10
ATOM     10  C   UNL     1      -0.066   6.503  -1.008  0.00  0.00    +0.019 A 
ATOM     11  C   UNL     1      -1.132   7.435  -0.974  0.00  0.00    +0.052 A 
ATOM     12 CL   UNL     1      -1.455   8.507   0.344  0.00  0.00    -0.083 Cl
ATOM     13  C   UNL     1      -2.148   7.456  -1.957  0.00  0.00    +0.040 A 
ATOM     14  C   UNL     1      -2.214   6.465  -2.923  0.00  0.00    +0.042 A 
ATOM     15 CL   UNL     1      -3.500   6.454  -4.064  0.00  0.00    -0.083 Cl
ATOM     16  C   UNL     1      -1.265   5.460  -2.928  0.00  0.00    +0.021 A 
ATOM     17  C   UNL     1      -0.206   5.498  -2.005  0.00  0.00    +0.013 A 
ENDBRANCH   8  10
BRANCH   1  22
ATOM     18  C   UNL     1       2.814   1.056   0.858  0.00  0.00    +0.124 A 
ATOM     19  C   UNL     1       4.040   0.832   1.493  0.00  0.00    +0.091 A 
ATOM     20  C   UNL     1       4.804   1.906   1.925  0.00  0.00    +0.124 A 
ATOM     21  C   UNL     1       4.331   3.206   1.702  0.00  0.00    +0.057 A 
ATOM     22  C   UNL     1       3.107   3.471   1.045  0.00  0.00    +0.026 A 
ATOM     23  C   UNL     1       2.358   2.362   0.622  0.00  0.00    +0.057 A 
BRANCH  18  25
ATOM     24  C   UNL     1       0.738   0.031   0.396  0.00  0.00    +0.277 C 
ATOM     25  O   UNL     1       2.155  -0.080   0.462  0.00  0.00    -0.495 OA
ENDBRANCH  18  25
BRANCH  20  26
ATOM     26  O   UNL     1       6.009   1.837   2.571  0.00  0.00    -0.495 OA
ATOM     27  C   UNL     1       6.521   0.540   2.856  0.00  0.00    +0.277 C 
ENDBRANCH  20  26
ENDBRANCH   1  22
BRANCH   7  28
ATOM     28  C   UNL     1       1.686   8.930   0.035  0.00  0.00    +0.118 C 
BRANCH  28  29
ATOM     29  N   UNL     1       2.701   9.932   0.403  0.00  0.00    -0.326 NA
ATOM     30  H   UNL     1       2.322  10.858   0.196  0.00  0.00    +0.119 HD
ATOM     31  H   UNL     1       2.757   9.914   1.431  0.00  0.00    +0.119 HD
ENDBRANCH  28  29
ENDBRANCH   7  28
TORSDOF 6
