REMARK  Name = 
REMARK  14 active torsions:
REMARK  status: ('A' for Active; 'I' for Inactive)
REMARK    1  A    between atoms: O_1  and  P_2
REMARK    2  A    between atoms: P_2  and  O_3
REMARK    3  A    between atoms: P_2  and  C_5
REMARK    4  A    between atoms: C_5  and  C_8
REMARK    5  A    between atoms: C_11  and  C_12
REMARK    6  A    between atoms: C_12  and  C_13
REMARK    7  A    between atoms: C_13  and  C_14
REMARK    8  A    between atoms: C_13  and  N_28
REMARK    9  A    between atoms: C_13  and  C_37
REMARK   10  A    between atoms: C_14  and  C_15
REMARK   11  A    between atoms: C_18  and  C_21
REMARK   12  A    between atoms: C_21  and  P_24
REMARK   13  A    between atoms: P_24  and  O_25
REMARK   14  A    between atoms: P_24  and  O_26
REMARK                            x       y       z     vdW  Elec       q    Type
REMARK                         _______ _______ _______ _____ _____    ______ ____
ROOT
ATOM      1  C   UNL     1       8.188   5.381   0.928  0.00  0.00    +0.099 C 
ENDROOT
BRANCH   1   2
ATOM      2  N   UNL     1       8.944   4.584  -0.076  0.00  0.00    -0.233 N 
ATOM      3  C   UNL     1      10.285   4.239  -0.143  0.00  0.00    +0.090 A 
ATOM      4  C   UNL     1      11.409   4.452   0.659  0.00  0.00    +0.029 A 
ATOM      5  C   UNL     1      12.602   3.839   0.252  0.00  0.00    +0.002 A 
ATOM      6  C   UNL     1      12.686   3.104  -0.932  0.00  0.00    +0.002 A 
ATOM      7  C   UNL     1      11.569   2.928  -1.744  0.00  0.00    +0.032 A 
ATOM      8  C   UNL     1      10.356   3.473  -1.319  0.00  0.00    +0.113 A 
ATOM      9  N   UNL     1       9.131   3.381  -1.887  0.00  0.00    -0.129 NA
ATOM     10  N   UNL     1       8.279   3.997  -1.094  0.00  0.00    -0.064 NA
ENDBRANCH   1   2
BRANCH   1  11
ATOM     11  C   UNL     1       8.616   6.892   0.934  0.00  0.00    -0.016 A 
ATOM     12  C   UNL     1       8.010   7.793   1.847  0.00  0.00    +0.047 A 
ATOM     13  C   UNL     1       8.360   9.144   1.884  0.00  0.00    +0.159 A 
ATOM     14  F   UNL     1       7.750   9.955   2.758  0.00  0.00    -0.202 F 
ATOM     15  C   UNL     1       9.322   9.639   1.021  0.00  0.00    +0.158 A 
ATOM     16  F   UNL     1       9.667  10.933   1.060  0.00  0.00    -0.202 F 
ATOM     17  C   UNL     1       9.921   8.796   0.096  0.00  0.00    +0.041 A 
ATOM     18  C   UNL     1       9.561   7.440   0.042  0.00  0.00    +0.009 A 
ENDBRANCH   1  11
BRANCH   1  19
ATOM     19  C   UNL     1       6.624   5.288   0.665  0.00  0.00    +0.070 C 
BRANCH  19  23
ATOM     20  C   UNL     1       4.886   6.375  -3.142  0.00  0.00    +0.033 A 
ATOM     21  C   UNL     1       5.578   7.340  -2.400  0.00  0.00    +0.010 A 
ATOM     22  C   UNL     1       6.146   7.003  -1.175  0.00  0.00    +0.004 A 
ATOM     23  C   UNL     1       6.077   5.691  -0.697  0.00  0.00    -0.045 A 
ATOM     24  C   UNL     1       5.458   4.714  -1.499  0.00  0.00    +0.004 A 
ATOM     25  C   UNL     1       4.886   5.043  -2.723  0.00  0.00    +0.010 A 
BRANCH  20  26
ATOM     26  C   UNL     1       3.826   6.833  -4.103  0.00  0.00    +0.371 C 
ATOM     27  F   UNL     1       4.148   7.897  -4.884  0.00  0.00    -0.187 F 
ATOM     28  F   UNL     1       3.296   5.876  -4.908  0.00  0.00    -0.187 F 
BRANCH  26  29
ATOM     29  P   UNL     1       2.392   7.416  -3.138  0.00  0.00    +0.401 P 
ATOM     30  O   UNL     1       2.087   6.749  -1.826  0.00  0.00    -0.252 OA
BRANCH  29  31
ATOM     31  O   UNL     1       1.049   7.430  -4.022  0.00  0.00    -0.320 OA
ATOM     32  H   UNL     1       0.267   7.373  -3.440  0.00  0.00    +0.220 HD
ENDBRANCH  29  31
BRANCH  29  33
ATOM     33  O   UNL     1       2.591   8.995  -2.858  0.00  0.00    -0.320 OA
ATOM     34  H   UNL     1       2.102   9.285  -2.068  0.00  0.00    +0.220 HD
ENDBRANCH  29  33
ENDBRANCH  26  29
ENDBRANCH  20  26
ENDBRANCH  19  23
ENDBRANCH   1  19
BRANCH   1  35
ATOM     35  C   UNL     1       8.462   4.825   2.392  0.00  0.00    +0.070 C 
BRANCH  35  36
ATOM     36  C   UNL     1       8.003   3.420   2.730  0.00  0.00    -0.045 A 
ATOM     37  C   UNL     1       6.953   3.233   3.641  0.00  0.00    +0.004 A 
ATOM     38  C   UNL     1       6.428   1.960   3.870  0.00  0.00    +0.010 A 
ATOM     39  C   UNL     1       6.939   0.850   3.188  0.00  0.00    +0.033 A 
ATOM     40  C   UNL     1       8.054   1.018   2.363  0.00  0.00    +0.010 A 
ATOM     41  C   UNL     1       8.589   2.289   2.152  0.00  0.00    +0.004 A 
BRANCH  39  42
ATOM     42  C   UNL     1       6.170  -0.443   3.162  0.00  0.00    +0.371 C 
ATOM     43  F   UNL     1       5.447  -0.718   4.287  0.00  0.00    -0.187 F 
ATOM     44  F   UNL     1       6.917  -1.558   2.911  0.00  0.00    -0.187 F 
BRANCH  42  45
ATOM     45  P   UNL     1       4.963  -0.516   1.788  0.00  0.00    +0.401 P 
ATOM     46  O   UNL     1       3.942  -0.577   0.626  0.00  0.00    -0.252 OA
BRANCH  45  47
ATOM     47  O   UNL     1       3.941   0.379   2.756  0.00  0.00    -0.320 OA
ATOM     48  H   UNL     1       3.659  -0.155   3.526  0.00  0.00    +0.220 HD
ENDBRANCH  45  47
BRANCH  45  49
ATOM     49  O   UNL     1       4.449  -1.994   2.374  0.00  0.00    -0.320 OA
ATOM     50  H   UNL     1       5.169  -2.569   2.708  0.00  0.00    +0.220 HD
ENDBRANCH  45  49
ENDBRANCH  42  45
ENDBRANCH  39  42
ENDBRANCH  35  36
ENDBRANCH   1  35
TORSDOF 14
