REMARK  Name = 
REMARK  14 active torsions:
REMARK  status: ('A' for Active; 'I' for Inactive)
REMARK    1  A    between atoms: C_1  and  C_2
REMARK    2  A    between atoms: N_4  and  C_5
REMARK    3  A    between atoms: C_8  and  O_10
REMARK    4  A    between atoms: C_11  and  C_13
REMARK    5  A    between atoms: C_13  and  O_14
REMARK    6  A    between atoms: O_14  and  P_15
REMARK    7  A    between atoms: P_15  and  O_16
REMARK    8  A    between atoms: P_15  and  O_18
REMARK    9  A    between atoms: O_18  and  P_19
REMARK   10  A    between atoms: P_19  and  O_20
REMARK   11  A    between atoms: P_19  and  O_22
REMARK   12  A    between atoms: O_22  and  P_23
REMARK   13  A    between atoms: P_23  and  O_24
REMARK   14  A    between atoms: P_23  and  O_25
REMARK                            x       y       z     vdW  Elec       q    Type
REMARK                         _______ _______ _______ _____ _____    ______ ____
ROOT
ATOM      1  C   UNL     1       8.433   4.089   0.709  0.00  0.00    +0.206 C 
ENDROOT
BRANCH   1   4
ATOM      2  C   UNL     1       5.515   2.379  -0.360  0.00  0.00    +0.226 C 
ATOM      3  O   UNL     1       6.692   2.332   0.483  0.00  0.00    -0.348 OA
ATOM      4  C   UNL     1       6.960   3.686   0.951  0.00  0.00    +0.175 C 
ATOM      5  C   UNL     1       5.990   4.598   0.181  0.00  0.00    +0.150 C 
ATOM      6  C   UNL     1       4.809   3.692  -0.070  0.00  0.00    +0.088 C 
BRANCH   2  15
ATOM      7  C   UNL     1       3.454  -1.204   2.480  0.00  0.00    +0.051 C 
ATOM      8  C   UNL     1       3.684  -0.475   1.194  0.00  0.00    +0.030 A 
ATOM      9  C   UNL     1       2.922  -0.959   0.020  0.00  0.00    +0.257 A 
ATOM     10  O   UNL     1       2.155  -1.917   0.086  0.00  0.00    -0.267 OA
ATOM     11  N   UNL     1       3.097  -0.253  -1.132  0.00  0.00    -0.275 N 
ATOM     12  H   UNL     1       2.559  -0.545  -1.931  0.00  0.00    +0.173 HD
ATOM     13  C   UNL     1       3.901   0.838  -1.295  0.00  0.00    +0.331 A 
ATOM     14  O   UNL     1       3.918   1.443  -2.364  0.00  0.00    -0.246 OA
ATOM     15  N   UNL     1       4.664   1.208  -0.189  0.00  0.00    -0.274 N 
ATOM     16  C   UNL     1       4.511   0.570   1.028  0.00  0.00    +0.101 A 
ENDBRANCH   2  15
BRANCH   5  17
ATOM     17  O   UNL     1       5.637   5.776   0.879  0.00  0.00    -0.389 OA
ATOM     18  H   UNL     1       5.061   5.550   1.631  0.00  0.00    +0.210 HD
ENDBRANCH   5  17
ENDBRANCH   1   4
BRANCH   1  19
ATOM     19  O   UNL     1       9.395   3.277   1.403  0.00  0.00    -0.284 OA
BRANCH  19  20
ATOM     20  P   UNL     1       9.807   3.683   2.910  0.00  0.00    +0.483 P 
ATOM     21  O   UNL     1       8.646   3.769   3.841  0.00  0.00    -0.227 OA
BRANCH  20  22
ATOM     22  O   UNL     1      10.572   5.074   2.692  0.00  0.00    -0.302 OA
ATOM     23  H   UNL     1      11.369   4.994   2.137  0.00  0.00    +0.222 HD
ENDBRANCH  20  22
BRANCH  20  24
ATOM     24  O   UNL     1      11.013   2.688   3.334  0.00  0.00    -0.186 OA
BRANCH  24  25
ATOM     25  P   UNL     1      10.553   1.047   3.035  0.00  0.00    +0.492 P 
ATOM     26  O   UNL     1      10.242   0.855   4.522  0.00  0.00    -0.226 OA
BRANCH  25  27
ATOM     27  O   UNL     1      12.133   0.631   2.942  0.00  0.00    -0.302 OA
ATOM     28  H   UNL     1      12.419   0.398   3.847  0.00  0.00    +0.222 HD
ENDBRANCH  25  27
BRANCH  25  29
ATOM     29  O   UNL     1      10.093  -0.593   2.737  0.00  0.00    -0.186 OA
BRANCH  29  30
ATOM     30  P   UNL     1       9.174  -0.717   1.437  0.00  0.00    +0.481 P 
ATOM     31  O   UNL     1       9.885  -0.690   0.135  0.00  0.00    -0.227 OA
BRANCH  30  32
ATOM     32  O   UNL     1       8.142   0.479   1.640  0.00  0.00    -0.302 OA
ATOM     33  H   UNL     1       7.697   0.778   0.814  0.00  0.00    +0.222 HD
ENDBRANCH  30  32
BRANCH  30  34
ATOM     34  O   UNL     1       8.284  -2.001   1.755  0.00  0.00    -0.302 OA
ATOM     35  H   UNL     1       8.152  -2.110   2.711  0.00  0.00    +0.222 HD
ENDBRANCH  30  34
ENDBRANCH  29  30
ENDBRANCH  25  29
ENDBRANCH  24  25
ENDBRANCH  20  24
ENDBRANCH  19  20
ENDBRANCH   1  19
TORSDOF 13
