REMARK  Name = 
REMARK  13 active torsions:
REMARK  status: ('A' for Active; 'I' for Inactive)
REMARK    1  A    between atoms: N_1  and  C_2
REMARK    2  A    between atoms: C_2  and  C_4
REMARK    3  A    between atoms: C_2  and  C_20
REMARK    4  A    between atoms: C_4  and  C_5
REMARK    5  A    between atoms: C_5  and  C_6
REMARK    6  A    between atoms: C_6  and  N_7
REMARK    7  A    between atoms: N_10  and  C_11
REMARK    8  A    between atoms: C_11  and  C_13
REMARK    9  A    between atoms: C_11  and  C_17
REMARK   10  A    between atoms: C_13  and  C_14
REMARK   11  A    between atoms: C_14  and  O_15
REMARK   12  A    between atoms: C_17  and  O_18
REMARK   13  A    between atoms: C_20  and  O_21
REMARK                            x       y       z     vdW  Elec       q    Type
REMARK                         _______ _______ _______ _____ _____    ______ ____
ROOT
ATOM      1  N   UNK     1      -0.125   5.988   5.545  0.00  0.00    -0.276 N 
ATOM      2  H   UNK     1       0.168   6.608   4.798  0.00  0.00    +0.258 HD
ATOM      3  C   UNK     1       0.787   5.828   6.536  0.00  0.00    +0.379 C 
ATOM      4  N   UNK     1       1.958   6.412   6.184  0.00  0.00    -0.262 N 
ATOM      5  H   UNK     1       2.282   6.091   5.265  0.00  0.00    +0.259 HD
ATOM      6  N   UNK     1       0.582   5.314   7.691  0.00  0.00    -0.130 NA
ATOM      7  H   UNK     1      -0.375   4.956   7.747  0.00  0.00    +0.306 HD
ENDROOT
BRANCH   1   8
ATOM      8  C   UNK     1      -1.570   5.862   5.660  0.00  0.00    +0.196 C 
BRANCH   8   9
ATOM      9  C   UNK     1      -2.178   6.851   6.656  0.00  0.00    +0.039 C 
BRANCH   9  10
ATOM     10  C   UNK     1      -1.916   8.324   6.311  0.00  0.00    +0.033 C 
BRANCH  10  11
ATOM     11  C   UNK     1      -2.451   9.316   7.354  0.00  0.00    +0.161 C 
BRANCH  11  12
ATOM     12  N   UNK     1      -1.780   9.190   8.681  0.00  0.00    -0.318 NA
ATOM     13  H   UNK     1      -1.541   8.211   8.868  0.00  0.00    +0.119 HD
ATOM     14  H   UNK     1      -0.860   9.639   8.619  0.00  0.00    +0.119 HD
ENDBRANCH  11  12
BRANCH  11  15
ATOM     15  C   UNK     1      -3.971   9.162   7.544  0.00  0.00    +0.322 C 
ATOM     16  O   UNK     1      -4.792   9.134   6.641  0.00  0.00    -0.249 OA
BRANCH  15  17
ATOM     17  O   UNK     1      -4.295   9.043   8.857  0.00  0.00    -0.480 OA
ATOM     18  H   UNK     1      -3.440   9.135   9.351  0.00  0.00    +0.295 HD
ENDBRANCH  15  17
ENDBRANCH  11  15
ENDBRANCH  10  11
ENDBRANCH   9  10
ENDBRANCH   8   9
ENDBRANCH   1   8
BRANCH   4  19
ATOM     19  C   UNK     1       3.110   6.599   7.094  0.00  0.00    +0.263 C 
BRANCH  19  20
ATOM     20  C   UNK     1       2.678   7.096   8.483  0.00  0.00    +0.343 C 
ATOM     21  O   UNK     1       3.211   6.789   9.540  0.00  0.00    -0.247 OA
BRANCH  20  22
ATOM     22  O   UNK     1       1.707   8.052   8.400  0.00  0.00    -0.478 OA
ATOM     23  H   UNK     1       1.365   8.027   7.480  0.00  0.00    +0.295 HD
ENDBRANCH  20  22
ENDBRANCH  19  20
BRANCH  19  24
ATOM     24  C   UNK     1       4.051   5.402   7.198  0.00  0.00    +0.172 C 
BRANCH  24  25
ATOM     25  C   UNK     1       4.684   5.096   5.879  0.00  0.00    +0.309 C 
ATOM     26  O   UNK     1       4.300   5.538   4.798  0.00  0.00    -0.251 OA
BRANCH  25  27
ATOM     27  O   UNK     1       5.742   4.249   5.964  0.00  0.00    -0.481 OA
ATOM     28  H   UNK     1       5.933   3.947   6.874  0.00  0.00    +0.295 HD
ENDBRANCH  25  27
ENDBRANCH  24  25
ENDBRANCH  19  24
ENDBRANCH   4  19
TORSDOF 13
