REMARK  Name = 
REMARK  6 active torsions:
REMARK  status: ('A' for Active; 'I' for Inactive)
REMARK    1  A    between atoms: C_1  and  N_2
REMARK    2  A    between atoms: N_9  and  C_10
REMARK    3  A    between atoms: C_10  and  C_11
REMARK    4  A    between atoms: C_11  and  O_12
REMARK    5  A    between atoms: N_15  and  C_16
REMARK    6  A    between atoms: C_16  and  C_17
REMARK                            x       y       z     vdW  Elec       q    Type
REMARK                         _______ _______ _______ _____ _____    ______ ____
ROOT
ATOM      1  C   UNL     1       1.012  -0.275  -0.063  0.00  0.00    +0.152 C 
ATOM      2  N   UNL     1       2.450  -0.208  -0.058  0.00  0.00    -0.318 N 
ATOM      3  C   UNL     1       3.308  -1.271  -0.074  0.00  0.00    +0.167 A 
ATOM      4  N   UNL     1       3.011  -2.577  -0.142  0.00  0.00    -0.195 NA
ATOM      5  C   UNL     1       4.113  -3.349  -0.141  0.00  0.00    +0.219 A 
ATOM      6  N   UNL     1       5.389  -2.918  -0.037  0.00  0.00    -0.197 NA
ATOM      7  C   UNL     1       5.656  -1.588   0.057  0.00  0.00    +0.152 A 
ATOM      8  N   UNL     1       6.955  -1.111   0.230  0.00  0.00    -0.323 N 
ATOM      9  H   UNL     1       6.994  -0.115   0.021  0.00  0.00    +0.148 HD
ATOM     10  N   UNL     1       3.866  -4.707  -0.230  0.00  0.00    -0.311 N 
ATOM     11  H   UNL     1       2.887  -4.887  -0.049  0.00  0.00    +0.149 HD
ATOM     12  C   UNL     1       4.565  -0.705   0.013  0.00  0.00    +0.148 A 
ATOM     13  N   UNL     1       4.488   0.673   0.044  0.00  0.00    -0.231 NA
ATOM     14  C   UNL     1       3.200   0.936  -0.008  0.00  0.00    +0.201 A 
ENDROOT
BRANCH   8  15
ATOM     15  C   UNL     1       8.019  -1.899  -0.358  0.00  0.00    +0.138 C 
BRANCH  15  16
ATOM     16  C   UNL     1       9.330  -1.160  -0.185  0.00  0.00    -0.030 A 
ATOM     17  C   UNL     1      10.076  -0.748  -1.300  0.00  0.00    +0.005 A 
ATOM     18  C   UNL     1      11.274  -0.050  -1.135  0.00  0.00    +0.000 A 
ATOM     19  C   UNL     1      11.741   0.246   0.144  0.00  0.00    +0.000 A 
ATOM     20  C   UNL     1      11.014  -0.161   1.261  0.00  0.00    +0.000 A 
ATOM     21  C   UNL     1       9.817  -0.862   1.098  0.00  0.00    +0.005 A 
ENDBRANCH  15  16
ENDBRANCH   8  15
BRANCH  10  22
ATOM     22  C   UNL     1       4.821  -5.613   0.398  0.00  0.00    +0.132 C 
BRANCH  22  23
ATOM     23  C   UNL     1       4.879  -5.450   1.922  0.00  0.00    +0.174 C 
BRANCH  23  24
ATOM     24  O   UNL     1       3.596  -5.685   2.502  0.00  0.00    -0.393 OA
ATOM     25  H   UNL     1       3.034  -4.941   2.222  0.00  0.00    +0.209 HD
ENDBRANCH  23  24
ENDBRANCH  22  23
ENDBRANCH  10  22
TORSDOF 5
