REMARK  Name = 
REMARK  0 active torsions:
REMARK  status: ('A' for Active; 'I' for Inactive)
REMARK                            x       y       z     vdW  Elec       q    Type
REMARK                         _______ _______ _______ _____ _____    ______ ____
ROOT
ATOM      1  F   UNL     1       0.896  -0.070   0.111  0.00  0.00    -0.205 F 
ATOM      2  C   UNL     1       2.235  -0.046   0.089  0.00  0.00    +0.124 A 
ATOM      3  C   UNL     1       2.894   1.177   0.009  0.00  0.00    +0.048 A 
ATOM      4  C   UNL     1       4.299   1.224  -0.029  0.00  0.00    +0.029 A 
ATOM      5  C   UNL     1       5.008   0.016   0.052  0.00  0.00    +0.126 A 
ATOM      6  O   UNL     1       6.375  -0.066   0.034  0.00  0.00    -0.492 OA
ATOM      7  C   UNL     1       7.062   1.155   0.308  0.00  0.00    +0.232 C 
ATOM      8  C   UNL     1       6.513   2.307  -0.512  0.00  0.00    +0.081 C 
ATOM      9  C   UNL     1       4.334  -1.207   0.123  0.00  0.00    +0.049 A 
ATOM     10  C   UNL     1       5.050   2.529  -0.136  0.00  0.00    +0.144 C 
ATOM     11  C   UNL     1       4.428   3.534  -1.129  0.00  0.00    +0.249 C 
ATOM     12  O   UNL     1       4.269   3.377  -2.331  0.00  0.00    -0.273 OA
ATOM     13  N   UNL     1       4.064   4.653  -0.443  0.00  0.00    -0.238 N 
ATOM     14  H   UNL     1       3.596   5.446  -0.847  0.00  0.00    +0.159 HD
ATOM     15  C   UNL     1       4.309   4.511   0.879  0.00  0.00    +0.307 C 
ATOM     16  O   UNL     1       4.018   5.306   1.754  0.00  0.00    -0.252 OA
ATOM     17  N   UNL     1       4.922   3.300   1.085  0.00  0.00    -0.281 N 
ATOM     18  H   UNL     1       5.090   2.957   2.022  0.00  0.00    +0.152 HD
ATOM     19  C   UNL     1       2.942  -1.239   0.141  0.00  0.00    +0.042 A 
ENDROOT
TORSDOF 0
