REMARK  Name = 
REMARK  12 active torsions:
REMARK  status: ('A' for Active; 'I' for Inactive)
REMARK    1  A    between atoms: C_1  and  C_2
REMARK    2  A    between atoms: C_2  and  C_3
REMARK    3  A    between atoms: C_3  and  C_4
REMARK    4  A    between atoms: C_4  and  C_6
REMARK    5  A    between atoms: C_4  and  N_17
REMARK    6  A    between atoms: C_7  and  S_8
REMARK    7  A    between atoms: S_8  and  C_11
REMARK    8  A    between atoms: C_18  and  C_20
REMARK    9  A    between atoms: C_20  and  N_22
REMARK   10  A    between atoms: C_20  and  C_37
REMARK   11  A    between atoms: C_28  and  N_31
REMARK   12  A    between atoms: C_37  and  C_38
REMARK                            x       y       z     vdW  Elec       q    Type
REMARK                         _______ _______ _______ _____ _____    ______ ____
ROOT
ATOM      1  C   UNL     1       6.956  -1.541  -4.143  0.00  0.00    +0.165 C 
ENDROOT
BRANCH   1   2
ATOM      2  N   UNL     1       6.449  -0.596  -5.141  0.00  0.00    -0.288 N 
ATOM      3  H   UNL     1       6.637  -0.849  -6.098  0.00  0.00    +0.151 HD
ATOM      4  C   UNL     1       5.347   0.176  -4.905  0.00  0.00    +0.303 C 
ATOM      5  N   UNL     1       5.030   1.087  -5.896  0.00  0.00    -0.286 N 
ATOM      6  C   UNL     1       5.692   1.258  -7.194  0.00  0.00    +0.111 C 
ATOM      7  C   UNL     1       6.247   2.672  -7.350  0.00  0.00    +0.038 C 
ATOM      8  C   UNL     1       5.177   3.769  -7.125  0.00  0.00    +0.060 C 
ATOM      9  C   UNL     1       4.557   3.487  -5.731  0.00  0.00    +0.038 C 
ATOM     10  C   UNL     1       3.982   2.071  -5.635  0.00  0.00    +0.111 C 
ATOM     11  O   UNL     1       4.720   0.069  -3.851  0.00  0.00    -0.253 OA
BRANCH   8  12
ATOM     12  N   UNL     1       4.132   3.858  -8.183  0.00  0.00    -0.295 NA
ATOM     13  C   UNL     1       4.654   3.958  -9.570  0.00  0.00    +0.113 C 
ATOM     14  C   UNL     1       5.303   5.313  -9.909  0.00  0.00    +0.175 C 
ATOM     15  O   UNL     1       4.401   6.401  -9.677  0.00  0.00    -0.377 OA
ATOM     16  C   UNL     1       3.912   6.383  -8.331  0.00  0.00    +0.175 C 
ATOM     17  C   UNL     1       3.238   5.038  -8.005  0.00  0.00    +0.113 C 
ENDBRANCH   8  12
ENDBRANCH   1   2
BRANCH   1  20
ATOM     18  N   UNL     1       5.076  -3.099  -3.978  0.00  0.00    -0.307 N 
ATOM     19  H   UNL     1       4.641  -2.315  -3.493  0.00  0.00    +0.149 HD
ATOM     20  C   UNL     1       6.340  -2.904  -4.499  0.00  0.00    +0.234 C 
ATOM     21  O   UNL     1       6.869  -3.686  -5.290  0.00  0.00    -0.274 OA
BRANCH  18  22
ATOM     22  C   UNL     1       4.260  -4.236  -4.350  0.00  0.00    +0.097 C 
BRANCH  22  23
ATOM     23  C   UNL     1       4.575  -5.353  -3.391  0.00  0.00    +0.014 C 
ATOM     24  C   UNL     1       5.122  -6.528  -3.754  0.00  0.00    +0.137 C 
BRANCH  24  25
ATOM     25  S   UNL     1       5.313  -7.769  -2.553  0.00  0.00    +0.018 S 
ATOM     26  O   UNL     1       4.007  -8.329  -2.255  0.00  0.00    -0.165 OA
ATOM     27  O   UNL     1       6.158  -7.277  -1.480  0.00  0.00    -0.165 OA
BRANCH  25  28
ATOM     28  C   UNL     1       6.234  -9.038  -3.405  0.00  0.00    +0.093 A 
ATOM     29  C   UNL     1       5.551 -10.047  -4.093  0.00  0.00    +0.027 A 
ATOM     30  C   UNL     1       6.274 -11.067  -4.712  0.00  0.00    +0.002 A 
ATOM     31  C   UNL     1       7.668 -11.087  -4.633  0.00  0.00    +0.000 A 
ATOM     32  C   UNL     1       8.344 -10.089  -3.928  0.00  0.00    +0.002 A 
ATOM     33  C   UNL     1       7.629  -9.064  -3.306  0.00  0.00    +0.027 A 
ENDBRANCH  25  28
ENDBRANCH  24  25
ENDBRANCH  22  23
BRANCH  22  34
ATOM     34  C   UNL     1       2.757  -3.903  -4.305  0.00  0.00    +0.026 C 
BRANCH  34  36
ATOM     35  C   UNL     1       0.872  -2.537  -5.289  0.00  0.00    +0.004 C 
ATOM     36  C   UNL     1       2.371  -2.793  -5.289  0.00  0.00    -0.001 C 
ENDBRANCH  34  36
ENDBRANCH  22  34
ENDBRANCH  18  22
ENDBRANCH   1  20
BRANCH   1  37
ATOM     37  C   UNL     1       8.492  -1.604  -4.179  0.00  0.00    +0.067 C 
BRANCH  37  38
ATOM     38  C   UNL     1       9.131  -0.266  -3.864  0.00  0.00    -0.045 A 
ATOM     39  C   UNL     1       9.872   0.413  -4.841  0.00  0.00    +0.004 A 
ATOM     40  C   UNL     1      10.385   1.686  -4.583  0.00  0.00    +0.000 A 
ATOM     41  C   UNL     1      10.167   2.289  -3.346  0.00  0.00    +0.000 A 
ATOM     42  C   UNL     1       9.456   1.612  -2.359  0.00  0.00    +0.000 A 
ATOM     43  C   UNL     1       8.948   0.337  -2.612  0.00  0.00    +0.004 A 
ENDBRANCH  37  38
ENDBRANCH   1  37
TORSDOF 11
