REMARK  Name = 
REMARK  3 active torsions:
REMARK  status: ('A' for Active; 'I' for Inactive)
REMARK    1  A    between atoms: O_1  and  C_2
REMARK    2  A    between atoms: C_7  and  C_8
REMARK    3  A    between atoms: C_8  and  C_9
REMARK                            x       y       z     vdW  Elec       q    Type
REMARK                         _______ _______ _______ _____ _____    ______ ____
ROOT
ATOM      1  C   UNL     1       2.500   0.193  -0.019  0.00  0.00    +0.120 A 
ATOM      2  C   UNL     1       3.101  -1.063  -0.163  0.00  0.00    -0.002 A 
ATOM      3  C   UNL     1       4.500  -1.120  -0.283  0.00  0.00    +0.007 A 
ATOM      4  C   UNL     1       5.266   0.047  -0.298  0.00  0.00    +0.001 A 
ATOM      5  C   UNL     1       4.646   1.289  -0.178  0.00  0.00    +0.004 A 
ATOM      6  C   UNL     1       3.261   1.364  -0.029  0.00  0.00    +0.046 A 
ENDROOT
BRANCH   1   7
ATOM      7  O   UNL     1       1.141   0.269   0.119  0.00  0.00    -0.506 OA
ATOM      8  H   UNL     1       0.890   1.202   0.201  0.00  0.00    +0.292 HD
ENDBRANCH   1   7
BRANCH   2   9
ATOM      9  C   UNL     1       2.295  -2.339  -0.221  0.00  0.00    +0.065 C 
BRANCH   9  10
ATOM     10  C   UNL     1       2.161  -3.033   1.107  0.00  0.00    -0.030 C 
ATOM     11  C   UNL     1       2.610  -4.269   1.363  0.00  0.00    +0.004 C 
ENDBRANCH   9  10
ENDBRANCH   2   9
TORSDOF 3
