REMARK  Name = 
REMARK  5 active torsions:
REMARK  status: ('A' for Active; 'I' for Inactive)
REMARK    1  A    between atoms: C_1  and  C_2
REMARK    2  A    between atoms: C_4  and  C_5
REMARK    3  A    between atoms: C_6  and  C_8
REMARK    4  A    between atoms: N_13  and  C_14
REMARK    5  A    between atoms: C_17  and  C_20
REMARK                            x       y       z     vdW  Elec       q    Type
REMARK                         _______ _______ _______ _____ _____    ______ ____
ROOT
ATOM      1  C   UNL     1       5.935  -2.028   0.011  0.00  0.00    +0.084 A 
ATOM      2  N   UNL     1       5.446  -3.281  -0.124  0.00  0.00    -0.214 NA
ATOM      3  C   UNL     1       6.309  -4.309  -0.071  0.00  0.00    +0.220 A 
ATOM      4  N   UNL     1       5.737  -5.577  -0.156  0.00  0.00    -0.284 N 
ATOM      5  H   UNL     1       4.736  -5.483  -0.246  0.00  0.00    +0.155 HD
ATOM      6  N   UNL     1       7.628  -4.147   0.093  0.00  0.00    -0.223 NA
ATOM      7  C   UNL     1       8.092  -2.895   0.207  0.00  0.00    +0.116 A 
ATOM      8  C   UNL     1       7.284  -1.790   0.175  0.00  0.00    +0.049 A 
ENDROOT
BRANCH   1  12
ATOM      9  C   UNL     1       3.383   2.628   0.103  0.00  0.00    +0.073 C 
ATOM     10  C   UNL     1       3.738   1.185   0.043  0.00  0.00    +0.076 A 
ATOM     11  S   UNL     1       5.376   0.708   0.086  0.00  0.00    -0.071 S 
ATOM     12  C   UNL     1       4.918  -0.958  -0.003  0.00  0.00    +0.060 A 
ATOM     13  C   UNL     1       3.526  -1.021  -0.071  0.00  0.00    +0.055 A 
ATOM     14  C   UNL     1       2.674  -2.239  -0.156  0.00  0.00    +0.067 C 
ATOM     15  N   UNL     1       2.870   0.205  -0.041  0.00  0.00    -0.249 NA
ENDBRANCH   1  12
BRANCH   4  16
ATOM     16  C   UNL     1       6.237  -6.856   0.116  0.00  0.00    +0.034 A 
ATOM     17  C   UNL     1       7.600  -7.151   0.220  0.00  0.00    +0.024 A 
ATOM     18  C   UNL     1       8.046  -8.433   0.561  0.00  0.00    +0.014 A 
ATOM     19  C   UNL     1       7.134  -9.464   0.810  0.00  0.00    +0.055 A 
ATOM     20  C   UNL     1       5.767  -9.188   0.686  0.00  0.00    +0.014 A 
ATOM     21  C   UNL     1       5.330  -7.904   0.339  0.00  0.00    +0.024 A 
BRANCH  19  22
ATOM     22  C   UNL     1       7.632 -10.831   1.207  0.00  0.00    +0.417 C 
ATOM     23  F   UNL     1       8.403 -10.799   2.330  0.00  0.00    -0.166 F 
ATOM     24  F   UNL     1       8.403 -11.405   0.242  0.00  0.00    -0.166 F 
ATOM     25  F   UNL     1       6.635 -11.722   1.467  0.00  0.00    -0.166 F 
ENDBRANCH  19  22
ENDBRANCH   4  16
TORSDOF 3
