REMARK  Name = 
REMARK  8 active torsions:
REMARK  status: ('A' for Active; 'I' for Inactive)
REMARK    1  A    between atoms: C_2  and  C_4
REMARK    2  A    between atoms: C_4  and  N_5
REMARK    3  A    between atoms: N_5  and  C_6
REMARK    4  A    between atoms: N_5  and  C_10
REMARK    5  A    between atoms: C_6  and  C_7
REMARK    6  A    between atoms: C_7  and  O_8
REMARK    7  A    between atoms: C_10  and  C_11
REMARK    8  A    between atoms: C_11  and  O_12
REMARK                            x       y       z     vdW  Elec       q    Type
REMARK                         _______ _______ _______ _____ _____    ______ ____
ROOT
ATOM      1  N   UNL     1       4.502   0.717  -0.620  0.00  0.00    -0.274 NA
ENDROOT
BRANCH   1   2
ATOM      2  C   UNL     1       3.046   1.044  -0.820  0.00  0.00    +0.181 C 
BRANCH   2   6
ATOM      3  N   UNL     1       1.170  -0.523  -0.955  0.00  0.00    -0.328 N 
ATOM      4  H   UNL     1       0.925  -0.138  -1.858  0.00  0.00    +0.145 HD
ATOM      5  H   UNL     1       0.522  -1.176  -0.532  0.00  0.00    +0.145 HD
ATOM      6  C   UNL     1       2.132   0.015  -0.148  0.00  0.00    +0.225 C 
ATOM      7  O   UNL     1       2.265  -0.353   1.014  0.00  0.00    -0.275 OA
ENDBRANCH   2   6
ENDBRANCH   1   2
BRANCH   1   8
ATOM      8  C   UNL     1       5.318   1.751  -1.350  0.00  0.00    +0.206 C 
BRANCH   8   9
ATOM      9  C   UNL     1       5.135   3.153  -0.774  0.00  0.00    +0.319 C 
ATOM     10  O   UNL     1       5.227   4.178  -1.431  0.00  0.00    -0.250 OA
BRANCH   9  11
ATOM     11  O   UNL     1       4.885   3.153   0.559  0.00  0.00    -0.480 OA
ATOM     12  H   UNL     1       4.798   2.229   0.877  0.00  0.00    +0.295 HD
ENDBRANCH   9  11
ENDBRANCH   8   9
ENDBRANCH   1   8
BRANCH   1  13
ATOM     13  C   UNL     1       4.755  -0.618  -1.272  0.00  0.00    +0.206 C 
BRANCH  13  14
ATOM     14  C   UNL     1       6.193  -1.090  -1.095  0.00  0.00    +0.319 C 
ATOM     15  O   UNL     1       6.839  -1.657  -1.964  0.00  0.00    -0.250 OA
BRANCH  14  16
ATOM     16  O   UNL     1       6.677  -0.844   0.145  0.00  0.00    -0.480 OA
ATOM     17  H   UNL     1       5.988  -0.406   0.688  0.00  0.00    +0.295 HD
ENDBRANCH  14  16
ENDBRANCH  13  14
ENDBRANCH   1  13
TORSDOF 8
