REMARK  Name = 
REMARK  5 active torsions:
REMARK  status: ('A' for Active; 'I' for Inactive)
REMARK    1  A    between atoms: N_1  and  C_2
REMARK    2  A    between atoms: C_5  and  O_7
REMARK    3  A    between atoms: C_8  and  C_10
REMARK    4  A    between atoms: C_10  and  O_11
REMARK    5  A    between atoms: C_13  and  O_15
REMARK                            x       y       z     vdW  Elec       q    Type
REMARK                         _______ _______ _______ _____ _____    ______ ____
ROOT
ATOM      1  C   UNL     1       2.373   0.149   0.082  0.00  0.00    +0.110 C 
ATOM      2  C   UNL     1       2.915   1.126  -1.001  0.00  0.00    +0.264 C 
ATOM      3  O   UNL     1       2.620   0.703  -2.333  0.00  0.00    -0.342 OA
ATOM      4  C   UNL     1       3.069  -0.617  -2.686  0.00  0.00    +0.175 C 
ATOM      5  C   UNL     1       2.483  -1.658  -1.720  0.00  0.00    +0.147 C 
ATOM      6  C   UNL     1       2.758  -1.299  -0.259  0.00  0.00    +0.057 C 
ENDROOT
BRANCH   1   7
ATOM      7  N   UNL     1       0.915   0.286   0.279  0.00  0.00    -0.323 NA
ATOM      8  H   UNL     1       0.441   0.179  -0.616  0.00  0.00    +0.119 HD
ATOM      9  H   UNL     1       0.581  -0.494   0.847  0.00  0.00    +0.119 HD
ENDBRANCH   1   7
BRANCH   2  10
ATOM     10  O   UNL     1       4.310   1.303  -0.841  0.00  0.00    -0.366 OA
ATOM     11  H   UNL     1       4.557   1.947  -1.529  0.00  0.00    +0.213 HD
ENDBRANCH   2  10
BRANCH   5  12
ATOM     12  O   UNL     1       1.063  -1.750  -1.916  0.00  0.00    -0.389 OA
ATOM     13  H   UNL     1       0.773  -0.926  -2.347  0.00  0.00    +0.210 HD
ENDBRANCH   5  12
BRANCH   4  14
ATOM     14  C   UNL     1       4.595  -0.738  -2.849  0.00  0.00    +0.190 C 
BRANCH  14  15
ATOM     15  O   UNL     1       5.104   0.255  -3.740  0.00  0.00    -0.392 OA
ATOM     16  H   UNL     1       4.554   0.246  -4.542  0.00  0.00    +0.210 HD
ENDBRANCH  14  15
ENDBRANCH   4  14
TORSDOF 5
