REMARK  Name = 
REMARK  10 active torsions:
REMARK  status: ('A' for Active; 'I' for Inactive)
REMARK    1  A    between atoms: N_10  and  C_11
REMARK    2  A    between atoms: C_14  and  C_16
REMARK    3  A    between atoms: C_16  and  O_17
REMARK    4  A    between atoms: O_17  and  C_18
REMARK    5  A    between atoms: C_18  and  C_20
REMARK    6  A    between atoms: C_20  and  P_21
REMARK    7  A    between atoms: P_21  and  O_22
REMARK    8  A    between atoms: P_21  and  O_23
REMARK    9  A    between atoms: C_25  and  O_27
REMARK   10  A    between atoms: C_28  and  O_30
REMARK                            x       y       z     vdW  Elec       q    Type
REMARK                         _______ _______ _______ _____ _____    ______ ____
ROOT
ATOM      1  C   UNL     1       6.586  -3.124  -0.037  0.00  0.00    +0.253 C 
ATOM      2  C   UNL     1       6.667  -4.543   0.544  0.00  0.00    +0.195 C 
ATOM      3  C   UNL     1       8.005  -4.583   1.285  0.00  0.00    +0.179 C 
ATOM      4  C   UNL     1       8.463  -3.126   1.316  0.00  0.00    +0.189 C 
ATOM      5  O   UNL     1       7.321  -2.329   0.924  0.00  0.00    -0.345 OA
ENDROOT
BRANCH   1  13
ATOM      6  N   UNL     1       8.215  -2.995  -5.886  0.00  0.00    -0.341 N 
ATOM      7  H   UNL     1       8.287  -1.986  -5.826  0.00  0.00    +0.144 HD
ATOM      8  H   UNL     1       7.844  -3.391  -6.739  0.00  0.00    +0.144 HD
ATOM      9  C   UNL     1       7.652  -3.582  -4.758  0.00  0.00    +0.147 A 
ATOM     10  C   UNL     1       7.614  -2.962  -3.497  0.00  0.00    +0.147 A 
ATOM     11  N   UNL     1       8.042  -1.728  -3.054  0.00  0.00    -0.231 NA
ATOM     12  C   UNL     1       7.713  -1.697  -1.780  0.00  0.00    +0.203 A 
ATOM     13  N   UNL     1       7.119  -2.869  -1.360  0.00  0.00    -0.286 N 
ATOM     14  C   UNL     1       7.014  -3.672  -2.466  0.00  0.00    +0.167 A 
ATOM     15  N   UNL     1       6.441  -4.884  -2.558  0.00  0.00    -0.216 NA
ATOM     16  C   UNL     1       6.537  -5.380  -3.809  0.00  0.00    +0.225 A 
ATOM     17  N   UNL     1       7.094  -4.806  -4.896  0.00  0.00    -0.219 NA
ENDBRANCH   1  13
BRANCH   2  18
ATOM     18  O   UNL     1       5.606  -4.727   1.509  0.00  0.00    -0.385 OA
ATOM     19  H   UNL     1       5.571  -3.941   2.084  0.00  0.00    +0.210 HD
ENDBRANCH   2  18
BRANCH   3  20
ATOM     20  O   UNL     1       8.945  -5.387   0.577  0.00  0.00    -0.386 OA
ATOM     21  H   UNL     1       9.741  -5.491   1.129  0.00  0.00    +0.210 HD
ENDBRANCH   3  20
BRANCH   4  22
ATOM     22  C   UNL     1       8.942  -2.681   2.695  0.00  0.00    +0.266 C 
BRANCH  22  23
ATOM     23  O   UNL     1       9.432  -1.329   2.628  0.00  0.00    -0.462 OA
BRANCH  23  24
ATOM     24  C   UNL     1      10.746  -1.177   2.316  0.00  0.00    +0.319 C 
ATOM     25  O   UNL     1      11.516  -2.092   2.065  0.00  0.00    -0.250 OA
BRANCH  24  26
ATOM     26  C   UNL     1      11.158   0.258   2.385  0.00  0.00    +0.247 C 
BRANCH  26  27
ATOM     27  P   UNL     1      12.040   0.485   3.972  0.00  0.00    +0.338 P 
ATOM     28  O   UNL     1      12.786   0.678   5.315  0.00  0.00    -0.258 OA
BRANCH  27  29
ATOM     29  O   UNL     1      10.581   0.414   4.726  0.00  0.00    -0.324 OA
ATOM     30  H   UNL     1      10.723   0.586   5.679  0.00  0.00    +0.220 HD
ENDBRANCH  27  29
BRANCH  27  31
ATOM     31  O   UNL     1      11.970   2.099   3.655  0.00  0.00    -0.324 OA
ATOM     32  H   UNL     1      12.067   2.611   4.480  0.00  0.00    +0.220 HD
ENDBRANCH  27  31
ENDBRANCH  26  27
ENDBRANCH  24  26
ENDBRANCH  23  24
ENDBRANCH  22  23
ENDBRANCH   4  22
TORSDOF 10
