REMARK  Name = 
REMARK  6 active torsions:
REMARK  status: ('A' for Active; 'I' for Inactive)
REMARK    1  A    between atoms: O_1  and  C_2
REMARK    2  A    between atoms: C_5  and  AS_9
REMARK    3  A    between atoms: C_7  and  O_8
REMARK    4  A    between atoms: AS_9  and  C_10
REMARK    5  A    between atoms: AS_9  and  C_16
REMARK    6  A    between atoms: AS_9  and  C_22
REMARK                            x       y       z     vdW  Elec       q    Type
REMARK                         _______ _______ _______ _____ _____    ______ ____
ROOT
ATOM      1 AS   UNL     1       7.079  -0.001  -0.596  0.00  0.00    +0.000 As
ENDROOT
BRANCH   1   5
ATOM      2  C   UNL     1       2.358  -0.010   0.147  0.00  0.00    +0.000 A 
ATOM      3  C   UNL     1       3.138   1.054   0.616  0.00  0.00    +0.000 A 
ATOM      4  C   UNL     1       4.525   1.039   0.413  0.00  0.00    +0.000 A 
ATOM      5  C   UNL     1       5.143  -0.025  -0.261  0.00  0.00    +0.000 A 
ATOM      6  C   UNL     1       4.357  -1.084  -0.731  0.00  0.00    +0.000 A 
ATOM      7  C   UNL     1       2.971  -1.080  -0.525  0.00  0.00    +0.000 A 
BRANCH   2   8
ATOM      8  O   UNL     1       1.023   0.008   0.343  0.00  0.00    +0.000 OA
ATOM      9  H   UNL     1       0.443  -0.702   0.034  0.00  0.00    +0.000 HD
ENDBRANCH   2   8
BRANCH   3  10
ATOM     10  O   UNL     1       2.548   2.087   1.252  0.00  0.00    +0.000 OA
ATOM     11  H   UNL     1       3.050   2.849   1.575  0.00  0.00    +0.000 HD
ENDBRANCH   3  10
ENDBRANCH   1   5
BRANCH   1  12
ATOM     12  C   UNL     1       7.855  -1.805  -0.728  0.00  0.00    +0.000 A 
ATOM     13  C   UNL     1       7.773  -2.710   0.341  0.00  0.00    +0.000 A 
ATOM     14  C   UNL     1       8.345  -3.987   0.230  0.00  0.00    +0.000 A 
ATOM     15  C   UNL     1       9.004  -4.362  -0.946  0.00  0.00    +0.000 A 
ATOM     16  C   UNL     1       9.089  -3.464  -2.011  0.00  0.00    +0.000 A 
ATOM     17  C   UNL     1       8.518  -2.193  -1.904  0.00  0.00    +0.000 A 
ENDBRANCH   1  12
BRANCH   1  18
ATOM     18  C   UNL     1       7.986   1.092   0.756  0.00  0.00    +0.000 A 
ATOM     19  C   UNL     1       7.687   2.457   0.872  0.00  0.00    +0.000 A 
ATOM     20  C   UNL     1       8.322   3.244   1.835  0.00  0.00    +0.000 A 
ATOM     21  C   UNL     1       9.264   2.671   2.693  0.00  0.00    +0.000 A 
ATOM     22  C   UNL     1       9.573   1.312   2.581  0.00  0.00    +0.000 A 
ATOM     23  C   UNL     1       8.940   0.523   1.613  0.00  0.00    +0.000 A 
ENDBRANCH   1  18
BRANCH   1  24
ATOM     24  C   UNL     1       7.249   0.864  -2.341  0.00  0.00    +0.000 A 
ATOM     25  C   UNL     1       6.583   0.306  -3.441  0.00  0.00    +0.000 A 
ATOM     26  C   UNL     1       6.656   0.921  -4.694  0.00  0.00    +0.000 A 
ATOM     27  C   UNL     1       7.397   2.095  -4.855  0.00  0.00    +0.000 A 
ATOM     28  C   UNL     1       8.070   2.650  -3.762  0.00  0.00    +0.000 A 
ATOM     29  C   UNL     1       7.997   2.037  -2.507  0.00  0.00    +0.000 A 
ENDBRANCH   1  24
TORSDOF 6
