REMARK  Name = 
REMARK  17 active torsions:
REMARK  status: ('A' for Active; 'I' for Inactive)
REMARK    1  A    between atoms: C_2  and  C_4
REMARK    2  A    between atoms: N_6  and  C_38
REMARK    3  A    between atoms: C_9  and  N_11
REMARK    4  A    between atoms: N_18  and  C_19
REMARK    5  A    between atoms: C_19  and  C_21
REMARK    6  A    between atoms: C_19  and  C_30
REMARK    7  A    between atoms: C_41  and  C_43
REMARK    8  A    between atoms: C_43  and  O_44
REMARK    9  A    between atoms: O_44  and  P_45
REMARK   10  A    between atoms: P_45  and  O_48
REMARK   11  A    between atoms: O_48  and  P_49
REMARK   12  A    between atoms: P_49  and  O_52
REMARK   13  A    between atoms: O_52  and  C_53
REMARK   14  A    between atoms: C_53  and  C_54
REMARK   15  A    between atoms: C_57  and  N_65
REMARK   16  A    between atoms: C_75  and  O_77
REMARK   17  A    between atoms: C_78  and  O_80
REMARK                            x       y       z     vdW  Elec       q    Type
REMARK                         _______ _______ _______ _____ _____    ______ ____
ROOT
ATOM      1  C   UNL     1      11.306   4.856  -3.188  0.00  0.00    +0.241 C 
ATOM      2  C   UNL     1      11.338   6.345  -2.805  0.00  0.00    +0.193 C 
ATOM      3  C   UNL     1      11.216   7.074  -4.147  0.00  0.00    +0.178 C 
ATOM      4  C   UNL     1      11.091   5.950  -5.185  0.00  0.00    +0.178 C 
ATOM      5  O   UNL     1      10.685   4.770  -4.469  0.00  0.00    -0.348 OA
ENDROOT
BRANCH   1  10
ATOM      6  C   UNL     1      13.811   2.125  -2.635  0.00  0.00    +0.056 C 
ATOM      7  C   UNL     1      15.130   2.874  -2.525  0.00  0.00    +0.167 C 
ATOM      8  C   UNL     1      15.033   4.267  -3.125  0.00  0.00    +0.020 C 
ATOM      9  C   UNL     1      13.847   4.831  -3.392  0.00  0.00    +0.075 C 
ATOM     10  N   UNL     1      12.635   4.166  -3.165  0.00  0.00    -0.284 N 
ATOM     11  C   UNL     1      12.679   2.788  -2.953  0.00  0.00    +0.088 C 
BRANCH   7  12
ATOM     12  N   UNL     1      15.540   3.008  -1.112  0.00  0.00    -0.257 N 
ATOM     13  N   UNL     1      16.720   2.507  -0.644  0.00  0.00    -0.150 NA
ATOM     14  C   UNL     1      16.722   2.897   0.626  0.00  0.00    +0.185 A 
ATOM     15  N   UNL     1      17.687   2.507   1.551  0.00  0.00    -0.216 NA
ATOM     16  C   UNL     1      17.355   2.773   2.781  0.00  0.00    +0.203 A 
ATOM     17  N   UNL     1      16.233   3.462   3.244  0.00  0.00    -0.309 N 
ATOM     18  C   UNL     1      15.446   4.146   2.320  0.00  0.00    +0.101 A 
ATOM     19  S   UNL     1      14.365   5.395   2.570  0.00  0.00    -0.032 S 
ATOM     20  C   UNL     1      15.620   3.667   0.986  0.00  0.00    +0.069 A 
ATOM     21  C   UNL     1      14.835   3.685  -0.138  0.00  0.00    +0.122 A 
BRANCH  17  22
ATOM     22  C   UNL     1      15.960   3.536   4.699  0.00  0.00    +0.205 C 
BRANCH  22  23
ATOM     23  C   UNL     1      15.718   2.151   5.413  0.00  0.00    +0.243 C 
ATOM     24  N   UNL     1      14.554   1.403   5.180  0.00  0.00    -0.299 N 
ATOM     25  C   UNL     1      14.286   0.269   6.078  0.00  0.00    +0.108 C 
ATOM     26  C   UNL     1      13.257   0.647   7.143  0.00  0.00    +0.019 C 
ATOM     27  C   UNL     1      11.805   0.408   6.727  0.00  0.00    +0.002 C 
ATOM     28  C   UNL     1      11.454   0.700   5.269  0.00  0.00    +0.002 C 
ATOM     29  C   UNL     1      12.145   1.925   4.666  0.00  0.00    +0.019 C 
ATOM     30  C   UNL     1      13.556   1.635   4.139  0.00  0.00    +0.108 C 
ATOM     31  O   UNL     1      16.531   1.738   6.251  0.00  0.00    -0.273 OA
ENDBRANCH  22  23
BRANCH  22  32
ATOM     32  C   UNL     1      16.969   4.449   5.415  0.00  0.00    -0.016 A 
ATOM     33  C   UNL     1      18.237   3.995   5.836  0.00  0.00    +0.006 A 
ATOM     34  C   UNL     1      19.140   4.861   6.452  0.00  0.00    +0.000 A 
ATOM     35  C   UNL     1      18.808   6.197   6.652  0.00  0.00    +0.000 A 
ATOM     36  C   UNL     1      17.562   6.666   6.246  0.00  0.00    +0.000 A 
ATOM     37  C   UNL     1      16.649   5.800   5.636  0.00  0.00    +0.006 A 
ENDBRANCH  22  32
ENDBRANCH  17  22
ENDBRANCH   7  12
BRANCH   6  41
ATOM     38  N   UNL     1      12.705   0.079  -1.987  0.00  0.00    -0.326 N 
ATOM     39  H   UNL     1      11.831   0.557  -1.886  0.00  0.00    +0.145 HD
ATOM     40  H   UNL     1      12.713  -0.929  -1.892  0.00  0.00    +0.145 HD
ATOM     41  C   UNL     1      13.848   0.662  -2.421  0.00  0.00    +0.241 C 
ATOM     42  O   UNL     1      14.869   0.001  -2.556  0.00  0.00    -0.271 OA
ENDBRANCH   6  41
ENDBRANCH   1  10
BRANCH   2  43
ATOM     43  O   UNL     1      10.219   6.654  -1.938  0.00  0.00    -0.385 OA
ATOM     44  H   UNL     1       9.417   6.634  -2.492  0.00  0.00    +0.210 HD
ENDBRANCH   2  43
BRANCH   3  45
ATOM     45  O   UNL     1      12.372   7.875  -4.406  0.00  0.00    -0.386 OA
ATOM     46  H   UNL     1      12.220   8.233  -5.316  0.00  0.00    +0.210 HD
ENDBRANCH   3  45
BRANCH   4  47
ATOM     47  C   UNL     1      10.137   6.327  -6.311  0.00  0.00    +0.202 C 
BRANCH  47  48
ATOM     48  O   UNL     1      10.734   7.372  -7.065  0.00  0.00    -0.325 OA
BRANCH  48  49
ATOM     49  P   UNL     1       9.880   8.223  -8.245  0.00  0.00    +0.218 P 
ATOM     50  O   UNL     1      11.176   9.359  -8.390  0.00  0.00    -0.437 OA
ATOM     51  O   UNL     1       9.001   9.199  -7.402  0.00  0.00    -0.517 OA
BRANCH  49  52
ATOM     52  O   UNL     1       8.583   7.087  -8.100  0.00  0.00    -0.270 OA
BRANCH  52  53
ATOM     53  P   UNL     1       8.295   6.080  -9.413  0.00  0.00    +0.218 P 
ATOM     54  O   UNL     1       7.190   5.152  -8.940  0.00  0.00    -0.517 OA
ATOM     55  O   UNL     1       9.634   5.479  -9.790  0.00  0.00    -0.437 OA
BRANCH  53  56
ATOM     56  O   UNL     1       7.676   6.974 -10.659  0.00  0.00    -0.325 OA
BRANCH  56  57
ATOM     57  C   UNL     1       8.330   7.174 -11.968  0.00  0.00    +0.198 C 
BRANCH  57  58
ATOM     58  C   UNL     1       7.653   6.614 -13.339  0.00  0.00    +0.133 C 
ATOM     59  C   UNL     1       8.031   7.471 -14.655  0.00  0.00    -0.093 C 
ATOM     60  O   UNL     1       6.975   7.476 -15.496  0.00  0.00    -0.852 OA
ATOM     61  C   UNL     1       9.213   6.665 -15.344  0.00  0.00    -0.075 C 
ATOM     62  O   UNL     1      10.373   7.340 -15.286  0.00  0.00    -0.851 OA
ATOM     63  C   UNL     1       9.300   5.383 -14.448  0.00  0.00    +0.208 C 
ATOM     64  O   UNL     1       8.082   5.254 -13.666  0.00  0.00    -0.353 OA
BRANCH  63  65
ATOM     65  N   UNL     1       9.549   4.141 -15.187  0.00  0.00    -0.289 N 
ATOM     66  C   UNL     1      10.584   3.265 -14.963  0.00  0.00    +0.167 A 
ATOM     67  N   UNL     1      11.542   3.329 -14.024  0.00  0.00    -0.216 NA
ATOM     68  C   UNL     1      12.404   2.314 -14.112  0.00  0.00    +0.225 A 
ATOM     69  N   UNL     1      12.417   1.290 -14.997  0.00  0.00    -0.219 NA
ATOM     70  C   UNL     1      11.423   1.255 -15.918  0.00  0.00    +0.147 A 
ATOM     71  N   UNL     1      11.474   0.206 -16.853  0.00  0.00    -0.341 N 
ATOM     72  H   UNL     1      10.984   0.497 -17.693  0.00  0.00    +0.144 HD
ATOM     73  H   UNL     1      12.438  -0.075 -16.952  0.00  0.00    +0.144 HD
ATOM     74  C   UNL     1      10.457   2.280 -15.930  0.00  0.00    +0.147 A 
ATOM     75  N   UNL     1       9.387   2.539 -16.766  0.00  0.00    -0.231 NA
ATOM     76  C   UNL     1       8.874   3.665 -16.292  0.00  0.00    +0.203 A 
ENDBRANCH  63  65
ENDBRANCH  57  58
ENDBRANCH  56  57
ENDBRANCH  53  56
ENDBRANCH  52  53
ENDBRANCH  49  52
ENDBRANCH  48  49
ENDBRANCH  47  48
ENDBRANCH   4  47
TORSDOF 17
