REMARK  Name = 
REMARK  6 active torsions:
REMARK  status: ('A' for Active; 'I' for Inactive)
REMARK    1  A    between atoms: O_1  and  C_2
REMARK    2  A    between atoms: C_2  and  C_3
REMARK    3  A    between atoms: N_10  and  O_11
REMARK    4  A    between atoms: C_14  and  O_16
REMARK    5  A    between atoms: C_17  and  O_19
REMARK    6  A    between atoms: C_20  and  O_22
REMARK                            x       y       z     vdW  Elec       q    Type
REMARK                         _______ _______ _______ _____ _____    ______ ____
ROOT
ATOM      1  C   UNL     1       2.825  -0.441   1.488  0.00  0.00    +0.178 C 
ATOM      2  C   UNL     1       2.409  -1.917   1.540  0.00  0.00    +0.177 C 
ATOM      3  C   UNL     1       2.618  -2.498   2.942  0.00  0.00    +0.179 C 
ATOM      4  C   UNL     1       1.947  -1.628   4.002  0.00  0.00    +0.205 C 
ATOM      5  C   UNL     1       2.443  -0.168   3.852  0.00  0.00    +0.247 C 
ATOM      6  C   UNL     1       1.681   0.640   4.943  0.00  0.00    +0.300 C 
ATOM      7  O   UNL     1       0.464   0.747   5.018  0.00  0.00    -0.268 OA
ATOM      8  N   UNL     1       2.616   1.062   5.840  0.00  0.00    -0.096 N 
ATOM      9  C   UNL     1       3.847   0.584   5.539  0.00  0.00    +0.335 C 
ATOM     10  O   UNL     1       4.823   0.573   6.273  0.00  0.00    -0.250 OA
ATOM     11  N   UNL     1       3.809   0.034   4.275  0.00  0.00    -0.260 N 
ATOM     12  H   UNL     1       4.597  -0.520   3.974  0.00  0.00    +0.154 HD
ATOM     13  O   UNL     1       2.272   0.348   2.552  0.00  0.00    -0.338 OA
ENDROOT
BRANCH   2  14
ATOM     14  O   UNL     1       3.195  -2.657   0.594  0.00  0.00    -0.386 OA
ATOM     15  H   UNL     1       3.441  -3.506   1.013  0.00  0.00    +0.210 HD
ENDBRANCH   2  14
BRANCH   3  16
ATOM     16  O   UNL     1       2.126  -3.848   2.958  0.00  0.00    -0.386 OA
ATOM     17  H   UNL     1       1.163  -3.831   2.816  0.00  0.00    +0.210 HD
ENDBRANCH   3  16
BRANCH   4  18
ATOM     18  O   UNL     1       2.245  -2.159   5.303  0.00  0.00    -0.384 OA
ATOM     19  H   UNL     1       1.445  -2.067   5.855  0.00  0.00    +0.210 HD
ENDBRANCH   4  18
BRANCH   8  20
ATOM     20  O   UNL     1       2.284   1.552   7.098  0.00  0.00    -0.284 OA
ATOM     21  H   UNL     1       3.043   1.251   7.637  0.00  0.00    +0.242 HD
ENDBRANCH   8  20
BRANCH   1  22
ATOM     22  C   UNL     1       2.390   0.186   0.151  0.00  0.00    +0.190 C 
BRANCH  22  23
ATOM     23  O   UNL     1       0.967   0.157   0.024  0.00  0.00    -0.392 OA
ATOM     24  H   UNL     1       0.746   0.640  -0.791  0.00  0.00    +0.210 HD
ENDBRANCH  22  23
ENDBRANCH   1  22
TORSDOF 6
