REMARK  Name = 
REMARK  17 active torsions:
REMARK  status: ('A' for Active; 'I' for Inactive)
REMARK    1  A    between atoms: C_1  and  C_2
REMARK    2  A    between atoms: C_2  and  C_3
REMARK    3  A    between atoms: C_2  and  C_4
REMARK    4  A    between atoms: C_2  and  N_5
REMARK    5  A    between atoms: C_6  and  C_8
REMARK    6  A    between atoms: N_11  and  C_12
REMARK    7  A    between atoms: C_12  and  C_13
REMARK    8  A    between atoms: N_24  and  C_25
REMARK    9  A    between atoms: C_25  and  C_26
REMARK   10  A    between atoms: C_26  and  O_28
REMARK   11  A    between atoms: C_26  and  C_29
REMARK   12  A    between atoms: C_29  and  C_30
REMARK   13  A    between atoms: C_30  and  C_32
REMARK   14  A    between atoms: C_30  and  C_39
REMARK   15  A    between atoms: C_32  and  C_33
REMARK   16  A    between atoms: N_41  and  C_42
REMARK   17  A    between atoms: C_44  and  O_46
REMARK                            x       y       z     vdW  Elec       q    Type
REMARK                         _______ _______ _______ _____ _____    ______ ____
ROOT
ATOM      1  C   UNL     1       3.408   6.957   4.578  0.00  0.00    +0.129 C 
ENDROOT
BRANCH   1   2
ATOM      2  O   UNL     1       1.982   6.934   4.602  0.00  0.00    -0.391 OA
ATOM      3  H   UNL     1       1.725   7.828   4.873  0.00  0.00    +0.210 HD
ENDBRANCH   1   2
BRANCH   1   4
ATOM      4  C   UNL     1       3.867   6.871   3.114  0.00  0.00    +0.116 C 
BRANCH   4   6
ATOM      5  C   UNL     1       2.175   8.433   1.969  0.00  0.00    +0.157 C 
ATOM      6  N   UNL     1       3.622   8.086   2.255  0.00  0.00    -0.287 NA
ATOM      7  C   UNL     1       4.191   7.787   0.899  0.00  0.00    +0.100 C 
ATOM      8  C   UNL     1       3.464   6.646   0.126  0.00  0.00    +0.100 C 
ATOM      9  N   UNL     1       1.997   6.797   0.044  0.00  0.00    -0.292 NA
ATOM     10  C   UNL     1       1.398   7.253   1.332  0.00  0.00    +0.113 C 
BRANCH   5  13
ATOM     11  N   UNL     1       2.184   9.689   4.119  0.00  0.00    -0.309 N 
ATOM     12  H   UNL     1       3.165   9.768   3.853  0.00  0.00    +0.149 HD
ATOM     13  C   UNL     1       1.397   9.140   3.122  0.00  0.00    +0.232 C 
ATOM     14  O   UNL     1       0.171   9.197   3.155  0.00  0.00    -0.274 OA
BRANCH  11  16
ATOM     15  C   UNL     1       0.476   9.716   6.014  0.00  0.00    +0.031 C 
ATOM     16  C   UNL     1       1.759  10.320   5.396  0.00  0.00    +0.026 C 
ATOM     17  C   UNL     1       2.902  10.114   6.411  0.00  0.00    +0.031 C 
ATOM     18  C   UNL     1       1.532  11.824   5.210  0.00  0.00    +0.031 C 
ENDBRANCH  11  16
ENDBRANCH   5  13
BRANCH   9  19
ATOM     19  C   UNL     1       1.377   5.536  -0.419  0.00  0.00    +0.158 C 
BRANCH  19  20
ATOM     20  C   UNL     1      -0.078   5.699  -0.688  0.00  0.00    +0.120 A 
ATOM     21  O   UNL     1      -0.934   4.958   0.078  0.00  0.00    -0.458 OA
ATOM     22  C   UNL     1      -2.195   5.374  -0.226  0.00  0.00    +0.135 A 
ATOM     23  C   UNL     1      -3.368   4.912   0.368  0.00  0.00    +0.047 A 
ATOM     24  C   UNL     1      -4.559   5.516  -0.050  0.00  0.00    +0.004 A 
ATOM     25  C   UNL     1      -4.558   6.521  -1.021  0.00  0.00    +0.001 A 
ATOM     26  C   UNL     1      -3.363   6.950  -1.616  0.00  0.00    +0.011 A 
ATOM     27  C   UNL     1      -2.157   6.361  -1.205  0.00  0.00    +0.020 A 
ATOM     28  C   UNL     1      -0.787   6.531  -1.529  0.00  0.00    +0.054 A 
ENDBRANCH  19  20
ENDBRANCH   9  19
ENDBRANCH   4   6
ENDBRANCH   1   4
BRANCH   1  29
ATOM     29  C   UNL     1       3.727   5.805   5.520  0.00  0.00    +0.045 C 
BRANCH  29  30
ATOM     30  C   UNL     1       5.187   5.440   5.743  0.00  0.00    +0.082 C 
BRANCH  30  31
ATOM     31  C   UNL     1       6.043   6.666   6.090  0.00  0.00    +0.217 C 
ATOM     32  N   UNL     1       6.072   7.079   7.401  0.00  0.00    -0.306 N 
ATOM     33  H   UNL     1       5.780   6.448   8.134  0.00  0.00    +0.149 HD
ATOM     34  O   UNL     1       6.613   7.280   5.183  0.00  0.00    -0.275 OA
BRANCH  32  35
ATOM     35  C   UNL     1       6.898   8.205   7.795  0.00  0.00    +0.132 C 
ATOM     36  C   UNL     1       7.972   7.815   8.769  0.00  0.00    -0.022 A 
ATOM     37  C   UNL     1       7.924   8.583   9.933  0.00  0.00    -0.040 A 
ATOM     38  C   UNL     1       8.869   8.425  10.936  0.00  0.00    +0.004 A 
ATOM     39  C   UNL     1       9.881   7.481  10.761  0.00  0.00    +0.000 A 
ATOM     40  C   UNL     1       9.933   6.708   9.594  0.00  0.00    +0.000 A 
ATOM     41  C   UNL     1       6.779   9.541   9.932  0.00  0.00    +0.069 C 
ATOM     42  C   UNL     1       8.977   6.873   8.588  0.00  0.00    +0.006 A 
ATOM     43  C   UNL     1       6.094   9.295   8.572  0.00  0.00    +0.143 C 
BRANCH  43  44
ATOM     44  O   UNL     1       6.039  10.525   7.835  0.00  0.00    -0.389 OA
ATOM     45  H   UNL     1       6.945  10.746   7.553  0.00  0.00    +0.210 HD
ENDBRANCH  43  44
ENDBRANCH  32  35
ENDBRANCH  30  31
BRANCH  30  46
ATOM     46  C   UNL     1       5.216   4.301   6.780  0.00  0.00    +0.048 C 
BRANCH  46  47
ATOM     47  C   UNL     1       6.562   3.684   7.044  0.00  0.00    -0.047 A 
ATOM     48  C   UNL     1       7.507   3.516   6.026  0.00  0.00    +0.003 A 
ATOM     49  C   UNL     1       8.722   2.886   6.286  0.00  0.00    +0.000 A 
ATOM     50  C   UNL     1       8.998   2.407   7.563  0.00  0.00    +0.000 A 
ATOM     51  C   UNL     1       8.061   2.556   8.583  0.00  0.00    +0.000 A 
ATOM     52  C   UNL     1       6.844   3.189   8.325  0.00  0.00    +0.003 A 
ENDBRANCH  46  47
ENDBRANCH  30  46
ENDBRANCH  29  30
ENDBRANCH   1  29
TORSDOF 14
