REMARK  Name = 
REMARK  7 active torsions:
REMARK  status: ('A' for Active; 'I' for Inactive)
REMARK    1  A    between atoms: C_1  and  S_2
REMARK    2  A    between atoms: S_2  and  C_4
REMARK    3  A    between atoms: C_4  and  C_5
REMARK    4  A    between atoms: C_5  and  CA_6
REMARK    5  A    between atoms: CA_6  and  N_8
REMARK    6  A    between atoms: CA_6  and  C_9
REMARK    7  A    between atoms: C_9  and  O_10
REMARK                            x       y       z     vdW  Elec       q    Type
REMARK                         _______ _______ _______ _____ _____    ______ ____
ROOT
ATOM      1  CA  UNL     1       5.401   2.460   1.985  0.00  0.00    +0.161 C 
ENDROOT
BRANCH   1   2
ATOM      2  N   UNL     1       4.967   2.277   3.402  0.00  0.00    -0.318 NA
ATOM      3  H1  UNL     1       5.309   3.088   3.933  0.00  0.00    +0.119 HD
ATOM      4  H2  UNL     1       3.950   2.381   3.445  0.00  0.00    +0.119 HD
ENDBRANCH   1   2
BRANCH   1   5
ATOM      5  C   UNL     1       6.938   2.404   1.944  0.00  0.00    +0.322 C 
ATOM      6  OXT UNL     1       7.640   2.885   1.069  0.00  0.00    -0.249 OA
BRANCH   5   7
ATOM      7  O   UNL     1       7.433   1.724   3.010  0.00  0.00    -0.480 OA
ATOM      8  H   UNL     1       6.656   1.460   3.560  0.00  0.00    +0.295 HD
ENDBRANCH   5   7
ENDBRANCH   1   5
BRANCH   1   9
ATOM      9  C   UNL     1       4.843   1.352   1.079  0.00  0.00    +0.043 C 
BRANCH   9  10
ATOM     10  C   UNL     1       3.322   1.316   0.941  0.00  0.00    +0.105 C 
BRANCH  10  12
ATOM     11  C   UNL     1       0.969   2.286   0.021  0.00  0.00    +0.121 C 
ATOM     12  S   UNL     1       2.674   2.854   0.211  0.00  0.00    +0.019 S 
ATOM     13  O   UNL     1       3.267   2.985  -1.159  0.00  0.00    -0.257 OA
ENDBRANCH  10  12
ENDBRANCH   9  10
ENDBRANCH   1   9
TORSDOF 6
