REMARK  Name = 
REMARK  1 active torsions:
REMARK  status: ('A' for Active; 'I' for Inactive)
REMARK    1  A    between atoms: O_1  and  N_2
REMARK                            x       y       z     vdW  Elec       q    Type
REMARK                         _______ _______ _______ _____ _____    ______ ____
ROOT
ATOM      1  N   UNL     1       2.624  -0.162   0.106  0.00  0.00    -0.085 NA
ATOM      2  C   UNL     1       3.327  -1.077   0.689  0.00  0.00    +0.133 C 
ATOM      3  C   UNL     1       2.871  -2.292   1.421  0.00  0.00    +0.026 A 
ATOM      4  C   UNL     1       1.609  -2.793   1.699  0.00  0.00    +0.012 A 
ATOM      5  C   UNL     1       1.518  -3.989   2.417  0.00  0.00    +0.001 A 
ATOM      6  C   UNL     1       2.678  -4.657   2.841  0.00  0.00    +0.002 A 
ATOM      7  C   UNL     1       3.944  -4.139   2.556  0.00  0.00    +0.024 A 
ATOM      8  C   UNL     1       4.028  -2.955   1.848  0.00  0.00    +0.041 A 
ATOM      9  N   UNL     1       5.169  -2.280   1.457  0.00  0.00    -0.312 N 
ATOM     10  H   UNL     1       6.129  -2.538   1.657  0.00  0.00    +0.152 HD
ATOM     11  C   UNL     1       4.859  -1.124   0.757  0.00  0.00    +0.074 C 
ATOM     12  C   UNL     1       5.739  -0.241   0.248  0.00  0.00    +0.069 C 
ATOM     13  C   UNL     1       5.664   1.018  -0.517  0.00  0.00    +0.010 A 
ATOM     14  C   UNL     1       4.650   1.816  -1.013  0.00  0.00    +0.010 A 
ATOM     15  C   UNL     1       4.975   2.981  -1.723  0.00  0.00    +0.001 A 
ATOM     16  C   UNL     1       6.310   3.348  -1.936  0.00  0.00    +0.002 A 
ATOM     17  C   UNL     1       7.343   2.556  -1.439  0.00  0.00    +0.024 A 
ATOM     18  C   UNL     1       6.992   1.413  -0.742  0.00  0.00    +0.042 A 
ATOM     19  N   UNL     1       7.882   0.510  -0.174  0.00  0.00    -0.281 N 
ATOM     20  H   UNL     1       8.887   0.579  -0.198  0.00  0.00    +0.155 HD
ATOM     21  C   UNL     1       7.214  -0.524   0.451  0.00  0.00    +0.251 C 
ATOM     22  O   UNL     1       7.724  -1.462   1.040  0.00  0.00    -0.270 OA
ENDROOT
BRANCH   1  23
ATOM     23  O   UNL     1       1.249  -0.364   0.192  0.00  0.00    -0.409 OA
ATOM     24  H   UNL     1       0.893   0.401  -0.296  0.00  0.00    +0.328 HD
ENDBRANCH   1  23
TORSDOF 1
