REMARK  Name = 
REMARK  19 active torsions:
REMARK  status: ('A' for Active; 'I' for Inactive)
REMARK    1  A    between atoms: C_1  and  C_2
REMARK    2  A    between atoms: C_2  and  C_4
REMARK    3  A    between atoms: C_4  and  C_5
REMARK    4  A    between atoms: N_8  and  C_14
REMARK    5  A    between atoms: C_10  and  C_11
REMARK    6  A    between atoms: C_17  and  C_19
REMARK    7  A    between atoms: C_19  and  O_20
REMARK    8  A    between atoms: O_20  and  P_21
REMARK    9  A    between atoms: P_21  and  O_24
REMARK   10  A    between atoms: O_24  and  P_25
REMARK   11  A    between atoms: P_25  and  O_26
REMARK   12  A    between atoms: P_25  and  O_28
REMARK   13  A    between atoms: O_28  and  C_29
REMARK   14  A    between atoms: C_29  and  C_30
REMARK   15  A    between atoms: C_33  and  N_41
REMARK   16  A    between atoms: C_35  and  O_37
REMARK   17  A    between atoms: C_38  and  O_40
REMARK   18  A    between atoms: C_51  and  O_53
REMARK   19  A    between atoms: C_54  and  O_56
REMARK                            x       y       z     vdW  Elec       q    Type
REMARK                         _______ _______ _______ _____ _____    ______ ____
ROOT
ATOM      1  P   UNL     1      18.167   3.674  11.726  0.00  0.00    +0.222 P 
ATOM      2  O   UNL     1      19.661   3.761  10.857  0.00  0.00    -0.437 OA
ATOM      3  O   UNL     1      18.193   2.138  11.851  0.00  0.00    -0.517 OA
ENDROOT
BRANCH   1   4
ATOM      4  O   UNL     1      16.674   3.587  12.596  0.00  0.00    -0.229 OA
BRANCH   4   5
ATOM      5  P   UNL     1      16.064   4.538  13.735  0.00  0.00    +0.480 P 
ATOM      6  O   UNL     1      14.727   4.075  14.242  0.00  0.00    -0.227 OA
BRANCH   5   7
ATOM      7  O   UNL     1      15.777   5.906  12.936  0.00  0.00    -0.302 OA
ATOM      8  H   UNL     1      14.809   6.028  12.941  0.00  0.00    +0.222 HD
ENDBRANCH   5   7
BRANCH   5   9
ATOM      9  O   UNL     1      17.052   5.066  14.924  0.00  0.00    -0.284 OA
BRANCH   9  10
ATOM     10  C   UNL     1      16.609   4.984  16.310  0.00  0.00    +0.206 C 
BRANCH  10  11
ATOM     11  C   UNL     1      16.662   6.275  17.225  0.00  0.00    +0.178 C 
ATOM     12  C   UNL     1      16.292   5.939  18.699  0.00  0.00    +0.178 C 
ATOM     13  C   UNL     1      17.631   5.713  19.410  0.00  0.00    +0.195 C 
ATOM     14  C   UNL     1      18.673   6.103  18.354  0.00  0.00    +0.253 C 
ATOM     15  O   UNL     1      17.988   6.853  17.334  0.00  0.00    -0.346 OA
BRANCH  14  16
ATOM     16  N   UNL     1      19.780   6.852  18.926  0.00  0.00    -0.286 N 
ATOM     17  C   UNL     1      20.668   6.315  19.821  0.00  0.00    +0.167 A 
ATOM     18  N   UNL     1      20.671   5.063  20.319  0.00  0.00    -0.216 NA
ATOM     19  C   UNL     1      21.728   4.886  21.145  0.00  0.00    +0.225 A 
ATOM     20  N   UNL     1      22.669   5.786  21.503  0.00  0.00    -0.219 NA
ATOM     21  C   UNL     1      22.593   7.034  21.006  0.00  0.00    +0.147 A 
ATOM     22  N   UNL     1      23.558   7.958  21.394  0.00  0.00    -0.341 N 
ATOM     23  H   UNL     1      23.668   8.727  20.742  0.00  0.00    +0.144 HD
ATOM     24  H   UNL     1      24.397   7.507  21.732  0.00  0.00    +0.144 HD
ATOM     25  C   UNL     1      21.560   7.335  20.106  0.00  0.00    +0.147 A 
ATOM     26  N   UNL     1      21.220   8.482  19.401  0.00  0.00    -0.231 NA
ATOM     27  C   UNL     1      20.153   8.147  18.702  0.00  0.00    +0.203 A 
ENDBRANCH  14  16
BRANCH  13  28
ATOM     28  O   UNL     1      17.784   4.347  19.803  0.00  0.00    -0.385 OA
ATOM     29  H   UNL     1      18.666   4.272  20.228  0.00  0.00    +0.210 HD
ENDBRANCH  13  28
BRANCH  12  30
ATOM     30  O   UNL     1      15.596   7.033  19.326  0.00  0.00    -0.386 OA
ATOM     31  H   UNL     1      16.203   7.784  19.450  0.00  0.00    +0.210 HD
ENDBRANCH  12  30
ENDBRANCH  10  11
ENDBRANCH   9  10
ENDBRANCH   5   9
ENDBRANCH   4   5
ENDBRANCH   1   4
BRANCH   1  32
ATOM     32  O   UNL     1      17.285   3.989  10.301  0.00  0.00    -0.324 OA
BRANCH  32  33
ATOM     33  C   UNL     1      17.929   3.527   9.094  0.00  0.00    +0.202 C 
BRANCH  33  37
ATOM     34  C   UNL     1      17.302   4.096   5.552  0.00  0.00    +0.439 C 
ATOM     35  C   UNL     1      17.082   5.516   6.073  0.00  0.00    +0.244 C 
ATOM     36  C   UNL     1      16.967   5.344   7.594  0.00  0.00    +0.183 C 
ATOM     37  C   UNL     1      17.125   3.840   7.842  0.00  0.00    +0.182 C 
ATOM     38  O   UNL     1      17.751   3.308   6.657  0.00  0.00    -0.309 OA
BRANCH  34  42
ATOM     39  C   UNL     1      14.008   1.689   4.322  0.00  0.00    -0.017 A 
ATOM     40  C   UNL     1      13.806   2.737   5.230  0.00  0.00    +0.104 A 
ATOM     41  C   UNL     1      14.860   3.604   5.516  0.00  0.00    +0.325 A 
ATOM     42  N   UNL     1      16.093   3.419   4.986  0.00  0.00    -0.173 N 
ATOM     43  C   UNL     1      16.290   2.454   4.056  0.00  0.00    +0.312 A 
ATOM     44  C   UNL     1      15.257   1.593   3.697  0.00  0.00    +0.074 A 
BRANCH  40  45
ATOM     45  C   UNL     1      12.508   2.979   5.907  0.00  0.00    +0.248 C 
ATOM     46  O   UNL     1      11.445   2.691   5.354  0.00  0.00    -0.270 OA
ATOM     47  N   UNL     1      12.521   3.513   7.161  0.00  0.00    -0.325 N 
ATOM     48  H   UNL     1      11.614   3.581   7.618  0.00  0.00    +0.145 HD
ATOM     49  H   UNL     1      13.318   3.556   7.780  0.00  0.00    +0.145 HD
ENDBRANCH  40  45
BRANCH  39  50
ATOM     50  C   UNL     1      12.947   0.656   4.008  0.00  0.00    +0.110 C 
BRANCH  50  52
ATOM     51  C   UNL     1      10.625   0.443   2.935  0.00  0.00    +0.086 C 
ATOM     52  C   UNL     1      11.996   1.069   2.904  0.00  0.00    +0.135 C 
ATOM     53  O   UNL     1      12.353   1.807   1.984  0.00  0.00    -0.297 OA
ENDBRANCH  50  52
ENDBRANCH  39  50
ENDBRANCH  34  42
BRANCH  36  54
ATOM     54  O   UNL     1      15.669   5.754   8.025  0.00  0.00    -0.386 OA
ATOM     55  H   UNL     1      15.715   5.776   9.006  0.00  0.00    +0.210 HD
ENDBRANCH  36  54
BRANCH  35  56
ATOM     56  O   UNL     1      18.187   6.358   5.704  0.00  0.00    -0.380 OA
ATOM     57  H   UNL     1      18.906   6.285   6.361  0.00  0.00    +0.210 HD
ENDBRANCH  35  56
ENDBRANCH  33  37
ENDBRANCH  32  33
ENDBRANCH   1  32
TORSDOF 18
