REMARK  Name = 
REMARK  9 active torsions:
REMARK  status: ('A' for Active; 'I' for Inactive)
REMARK    1  A    between atoms: N_1  and  C_2
REMARK    2  A    between atoms: C_2  and  C_4
REMARK    3  A    between atoms: C_2  and  C_6
REMARK    4  A    between atoms: C_4  and  O_5
REMARK    5  A    between atoms: C_6  and  C_7
REMARK    6  A    between atoms: C_7  and  C_8
REMARK    7  A    between atoms: C_8  and  C_9
REMARK    8  A    between atoms: C_9  and  N_10
REMARK    9  A    between atoms: C_11  and  O_12
REMARK                            x       y       z     vdW  Elec       q    Type
REMARK                         _______ _______ _______ _____ _____    ______ ____
ROOT
ATOM      1  C   UNK     1       4.541  -0.662   1.392  0.00  0.00    +0.003 C 
ENDROOT
BRANCH   1   2
ATOM      2  C   UNK     1       3.013  -0.554   1.295  0.00  0.00    +0.021 C 
BRANCH   2   3
ATOM      3  C   UNK     1       2.523   0.122   0.004  0.00  0.00    +0.076 C 
BRANCH   3   4
ATOM      4  N   UNK     1       3.067   1.483  -0.115  0.00  0.00    -0.325 NA
ATOM      5  H   UNK     1       2.831   1.859  -1.032  0.00  0.00    +0.119 HD
ATOM      6  H   UNK     1       2.648   2.093   0.584  0.00  0.00    +0.119 HD
ENDBRANCH   3   4
BRANCH   3   7
ATOM      7  C   UNK     1       0.980   0.124  -0.033  0.00  0.00    +0.174 C 
BRANCH   7   8
ATOM      8  O   UNK     1       0.503   0.751  -1.221  0.00  0.00    -0.393 OA
ATOM      9  H   UNK     1       0.710   1.697  -1.140  0.00  0.00    +0.209 HD
ENDBRANCH   7   8
ENDBRANCH   3   7
ENDBRANCH   2   3
ENDBRANCH   1   2
BRANCH   1  10
ATOM     10  C   UNK     1       5.014  -1.384   2.659  0.00  0.00    +0.019 C 
BRANCH  10  11
ATOM     11  C   UNK     1       4.558  -2.841   2.716  0.00  0.00    +0.107 C 
BRANCH  11  12
ATOM     12  N   UNK     1       5.096  -3.538   3.865  0.00  0.00    -0.281 N 
ATOM     13  H   UNK     1       6.010  -3.949   3.773  0.00  0.00    +0.152 HD
ATOM     14  C   UNK     1       4.425  -3.550   5.052  0.00  0.00    +0.398 C 
ATOM     15  O   UNK     1       3.366  -2.991   5.280  0.00  0.00    -0.227 OA
BRANCH  14  16
ATOM     16  O   UNK     1       5.076  -4.275   5.975  0.00  0.00    -0.466 OA
ATOM     17  H   UNK     1       5.873  -4.689   5.610  0.00  0.00    +0.297 HD
ENDBRANCH  14  16
ENDBRANCH  11  12
ENDBRANCH  10  11
ENDBRANCH   1  10
TORSDOF 9
