REMARK  Name = 
REMARK  15 active torsions:
REMARK  status: ('A' for Active; 'I' for Inactive)
REMARK    1  A    between atoms: C_1  and  C_2
REMARK    2  A    between atoms: C_2  and  N_4
REMARK    3  A    between atoms: C_2  and  C_5
REMARK    4  A    between atoms: C_5  and  C_7
REMARK    5  A    between atoms: C_5  and  N_15
REMARK    6  A    between atoms: C_7  and  C_8
REMARK    7  A    between atoms: C_8  and  C_9
REMARK    8  A    between atoms: C_9  and  C_10
REMARK    9  A    between atoms: C_10  and  C_11
REMARK   10  A    between atoms: C_11  and  C_12
REMARK   11  A    between atoms: C_12  and  O_13
REMARK   12  A    between atoms: C_16  and  O_18
REMARK   13  A    between atoms: O_18  and  P_19
REMARK   14  A    between atoms: P_19  and  O_20
REMARK   15  A    between atoms: P_19  and  O_21
REMARK                            x       y       z     vdW  Elec       q    Type
REMARK                         _______ _______ _______ _____ _____    ______ ____
ROOT
ATOM      1  C   UNL     1       3.067  -0.325   1.417  0.00  0.00    +0.093 C 
ENDROOT
BRANCH   1   2
ATOM      2  N   UNL     1       4.520  -0.365   1.502  0.00  0.00    -0.277 N 
ATOM      3  H   UNL     1       4.999  -1.206   1.213  0.00  0.00    +0.152 HD
ATOM      4  C   UNL     1       5.262   0.593   2.110  0.00  0.00    +0.408 C 
ATOM      5  O   UNL     1       4.865   1.665   2.539  0.00  0.00    -0.226 OA
BRANCH   4   6
ATOM      6  O   UNL     1       6.520   0.166   2.204  0.00  0.00    -0.356 OA
BRANCH   6   7
ATOM      7  P   UNL     1       7.564   0.910   3.155  0.00  0.00    +0.531 P 
ATOM      8  O   UNL     1       7.402   0.681   4.620  0.00  0.00    -0.215 OA
BRANCH   7   9
ATOM      9  O   UNL     1       7.550   2.425   2.664  0.00  0.00    -0.293 OA
ATOM     10  H   UNL     1       6.697   2.853   2.883  0.00  0.00    +0.223 HD
ENDBRANCH   7   9
BRANCH   7  11
ATOM     11  O   UNL     1       8.934   0.355   2.542  0.00  0.00    -0.293 OA
ATOM     12  H   UNL     1       9.024  -0.605   2.671  0.00  0.00    +0.223 HD
ENDBRANCH   7  11
ENDBRANCH   6   7
ENDBRANCH   4   6
ENDBRANCH   1   2
BRANCH   1  14
ATOM     13  C   UNL     1       1.142   0.262  -0.169  0.00  0.00    +0.025 C 
ATOM     14  C   UNL     1       2.644   0.017  -0.043  0.00  0.00    +0.068 C 
BRANCH  14  15
ATOM     15  N   UNL     1       3.057  -1.026  -0.997  0.00  0.00    -0.326 NA
ATOM     16  H   UNL     1       2.752  -0.767  -1.935  0.00  0.00    +0.119 HD
ATOM     17  H   UNL     1       4.075  -1.054  -1.034  0.00  0.00    +0.119 HD
ENDBRANCH  14  15
ENDBRANCH   1  14
BRANCH   1  18
ATOM     18  C   UNL     1       2.491  -1.658   1.939  0.00  0.00    +0.024 C 
BRANCH  18  19
ATOM     19  C   UNL     1       2.929  -1.977   3.377  0.00  0.00    +0.002 C 
BRANCH  19  20
ATOM     20  C   UNL     1       2.307  -3.289   3.862  0.00  0.00    +0.001 C 
BRANCH  20  21
ATOM     21  C   UNL     1       2.757  -3.636   5.283  0.00  0.00    +0.011 C 
BRANCH  21  22
ATOM     22  C   UNL     1       2.103  -4.929   5.763  0.00  0.00    +0.120 C 
BRANCH  22  23
ATOM     23  C   UNL     1       2.578  -5.342   7.134  0.00  0.00    +0.305 C 
ATOM     24  O   UNL     1       3.183  -6.379   7.359  0.00  0.00    -0.251 OA
BRANCH  23  25
ATOM     25  O   UNL     1       2.236  -4.477   8.113  0.00  0.00    -0.481 OA
ATOM     26  H   UNL     1       1.728  -3.703   7.805  0.00  0.00    +0.295 HD
ENDBRANCH  23  25
ENDBRANCH  22  23
ENDBRANCH  21  22
ENDBRANCH  20  21
ENDBRANCH  19  20
ENDBRANCH  18  19
ENDBRANCH   1  18
TORSDOF 14
