REMARK  Name = 
REMARK  6 active torsions:
REMARK  status: ('A' for Active; 'I' for Inactive)
REMARK    1  A    between atoms: O_1  and  C_2
REMARK    2  A    between atoms: C_2  and  C_3
REMARK    3  A    between atoms: C_3  and  C_4
REMARK    4  A    between atoms: C_4  and  C_5
REMARK    5  A    between atoms: C_5  and  N_6
REMARK    6  A    between atoms: N_13  and  C_14
REMARK                            x       y       z     vdW  Elec       q    Type
REMARK                         _______ _______ _______ _____ _____    ______ ____
ROOT
ATOM      1  N   UNL     1       6.501   2.757   0.514  0.00  0.00    -0.315 N 
ATOM      2  C   UNL     1       7.355   2.763  -0.549  0.00  0.00    +0.169 A 
ATOM      3  N   UNL     1       7.016   2.751  -1.857  0.00  0.00    -0.196 NA
ATOM      4  C   UNL     1       8.029   2.789  -2.685  0.00  0.00    +0.202 A 
ATOM      5  N   UNL     1       9.345   2.857  -2.238  0.00  0.00    -0.293 N 
ATOM      6  H   UNL     1      10.106   2.835  -2.894  0.00  0.00    +0.172 HD
ATOM      7  C   UNL     1       9.738   2.822  -0.905  0.00  0.00    +0.280 A 
ATOM      8  O   UNL     1      10.923   2.810  -0.585  0.00  0.00    -0.265 OA
ATOM      9  N   UNL     1       7.874   2.782  -4.048  0.00  0.00    -0.285 N 
ATOM     10  H   UNL     1       8.627   3.109  -4.633  0.00  0.00    +0.155 HD
ATOM     11  C   UNL     1       8.614   2.786   0.001  0.00  0.00    +0.172 A 
ATOM     12  N   UNL     1       8.563   2.766   1.372  0.00  0.00    -0.229 NA
ATOM     13  C   UNL     1       7.274   2.737   1.648  0.00  0.00    +0.201 A 
ENDROOT
BRANCH   9  14
ATOM     14  C   UNL     1       6.802   2.199  -4.751  0.00  0.00    +0.034 A 
ATOM     15  C   UNL     1       6.036   1.155  -4.213  0.00  0.00    +0.023 A 
ATOM     16  C   UNL     1       4.946   0.626  -4.906  0.00  0.00    +0.002 A 
ATOM     17  C   UNL     1       4.589   1.152  -6.144  0.00  0.00    +0.000 A 
ATOM     18  C   UNL     1       5.328   2.201  -6.687  0.00  0.00    +0.002 A 
ATOM     19  C   UNL     1       6.428   2.719  -5.997  0.00  0.00    +0.023 A 
ENDBRANCH   9  14
BRANCH   1  20
ATOM     20  C   UNL     1       5.055   2.785   0.466  0.00  0.00    +0.125 C 
BRANCH  20  21
ATOM     21  C   UNL     1       4.436   3.992   1.175  0.00  0.00    +0.024 C 
BRANCH  21  22
ATOM     22  C   UNL     1       4.845   5.327   0.540  0.00  0.00    +0.029 C 
BRANCH  22  23
ATOM     23  C   UNL     1       4.241   6.517   1.274  0.00  0.00    +0.156 C 
BRANCH  23  24
ATOM     24  O   UNL     1       2.823   6.444   1.224  0.00  0.00    -0.395 OA
ATOM     25  H   UNL     1       2.482   7.228   1.687  0.00  0.00    +0.209 HD
ENDBRANCH  23  24
ENDBRANCH  22  23
ENDBRANCH  21  22
ENDBRANCH  20  21
ENDBRANCH   1  20
TORSDOF 6
