REMARK  Name = 
REMARK  10 active torsions:
REMARK  status: ('A' for Active; 'I' for Inactive)
REMARK    1  A    between atoms: C_1  and  C_2
REMARK    2  A    between atoms: C_2  and  O_4
REMARK    3  A    between atoms: C_2  and  C_5
REMARK    4  A    between atoms: C_5  and  O_7
REMARK    5  A    between atoms: C_5  and  C_8
REMARK    6  A    between atoms: C_8  and  O_10
REMARK    7  A    between atoms: C_8  and  C_11
REMARK    8  A    between atoms: C_11  and  O_13
REMARK    9  A    between atoms: C_11  and  C_14
REMARK   10  A    between atoms: C_14  and  O_15
REMARK                            x       y       z     vdW  Elec       q    Type
REMARK                         _______ _______ _______ _____ _____    ______ ____
ROOT
ATOM      1  C   UNL     1       4.546   1.542  -3.317  0.00  0.00    +0.176 C 
ENDROOT
BRANCH   1   2
ATOM      2  O   UNL     1       4.985   0.172  -3.400  0.00  0.00    -0.387 OA
ATOM      3  H   UNL     1       5.087  -0.048  -4.343  0.00  0.00    +0.210 HD
ENDBRANCH   1   2
BRANCH   1   4
ATOM      4  C   UNL     1       5.209   2.426  -4.410  0.00  0.00    +0.174 C 
BRANCH   4   6
ATOM      5  C   UNL     1       5.240   3.081  -6.874  0.00  0.00    +0.040 C 
ATOM      6  C   UNL     1       4.680   2.120  -5.828  0.00  0.00    +0.142 C 
BRANCH   6   7
ATOM      7  O   UNL     1       3.254   2.203  -5.845  0.00  0.00    -0.389 OA
ATOM      8  H   UNL     1       2.961   2.023  -6.755  0.00  0.00    +0.210 HD
ENDBRANCH   6   7
ENDBRANCH   4   6
BRANCH   4   9
ATOM      9  O   UNL     1       6.631   2.246  -4.400  0.00  0.00    -0.387 OA
ATOM     10  H   UNL     1       6.891   2.229  -3.452  0.00  0.00    +0.210 HD
ENDBRANCH   4   9
ENDBRANCH   1   4
BRANCH   1  11
ATOM     11  C   UNL     1       4.858   2.074  -1.894  0.00  0.00    +0.171 C 
BRANCH  11  12
ATOM     12  O   UNL     1       6.283   2.151  -1.696  0.00  0.00    -0.387 OA
ATOM     13  H   UNL     1       6.490   1.576  -0.932  0.00  0.00    +0.210 HD
ENDBRANCH  11  12
BRANCH  11  14
ATOM     14  C   UNL     1       4.230   1.189  -0.804  0.00  0.00    +0.189 C 
BRANCH  14  15
ATOM     15  O   UNL     1       4.877  -0.081  -0.748  0.00  0.00    -0.392 OA
ATOM     16  H   UNL     1       4.981  -0.374  -1.683  0.00  0.00    +0.210 HD
ENDBRANCH  14  15
ENDBRANCH  11  14
ENDBRANCH   1  11
TORSDOF 9
