REMARK  Name = 
REMARK  4 active torsions:
REMARK  status: ('A' for Active; 'I' for Inactive)
REMARK    1  A    between atoms: O5*_1  and  C5*_2
REMARK    2  A    between atoms: C5*_2  and  C4*_3
REMARK    3  A    between atoms: C1*_6  and  N1_12
REMARK    4  A    between atoms: C3*_9  and  O3*_11
REMARK                            x       y       z     vdW  Elec       q    Type
REMARK                         _______ _______ _______ _____ _____    ______ ____
ROOT
ATOM      1  C4*   U A   1       2.974   0.845  -1.118  0.00  0.00    +0.175 C 
ATOM      2  C3*   U A   1       4.487   0.821  -1.287  0.00  0.00    +0.150 C 
ATOM      3  C2*   U A   1       4.844   2.193  -1.816  0.00  0.00    +0.088 C 
ATOM      4  C1*   U A   1       3.510   2.907  -2.028  0.00  0.00    +0.226 C 
ATOM      5  O4*   U A   1       2.563   2.224  -1.192  0.00  0.00    -0.348 OA
ENDROOT
BRANCH   4   6
ATOM      6  N1    U A   1       3.055   2.944  -3.426  0.00  0.00    -0.274 N 
ATOM      7  C2    U A   1       3.865   3.617  -4.340  0.00  0.00    +0.331 A 
ATOM      8  O2    U A   1       4.920   4.177  -4.049  0.00  0.00    -0.246 OA
ATOM      9  N3    U A   1       3.423   3.622  -5.637  0.00  0.00    -0.275 N 
ATOM     10  H3    U A   1       4.017   4.068  -6.316  0.00  0.00    +0.173 HD
ATOM     11  C4    U A   1       2.267   3.065  -6.096  0.00  0.00    +0.254 A 
ATOM     12  O4    U A   1       1.946   3.061  -7.278  0.00  0.00    -0.268 OA
ATOM     13  C5    U A   1       1.400   2.470  -5.072  0.00  0.00    +0.088 A 
ATOM     14  C6    U A   1       1.824   2.442  -3.807  0.00  0.00    +0.098 A 
ENDBRANCH   4   6
BRANCH   2  15
ATOM     15  O3*   U A   1       4.861  -0.193  -2.220  0.00  0.00    -0.389 OA
ATOM     16  H3*   U A   1       5.826  -0.136  -2.338  0.00  0.00    +0.210 HD
ENDBRANCH   2  15
BRANCH   1  17
ATOM     17  C5*   U A   1       2.482   0.208   0.180  0.00  0.00    +0.190 C 
BRANCH  17  18
ATOM     18  O5*   U A   1       3.092   0.809   1.320  0.00  0.00    -0.392 OA
ATOM     19  H5*   U A   1       2.637   0.450   2.102  0.00  0.00    +0.210 HD
ENDBRANCH  17  18
ENDBRANCH   1  17
TORSDOF 4
