REMARK  Name = 
REMARK  11 active torsions:
REMARK  status: ('A' for Active; 'I' for Inactive)
REMARK    1  A    between atoms: C_1  and  C_2
REMARK    2  A    between atoms: C_2  and  C_3
REMARK    3  A    between atoms: C_3  and  C_4
REMARK    4  A    between atoms: C_4  and  C_5
REMARK    5  A    between atoms: C_5  and  C_6
REMARK    6  A    between atoms: C_6  and  C_7
REMARK    7  A    between atoms: C_7  and  C_8
REMARK    8  A    between atoms: C_8  and  S_9
REMARK    9  A    between atoms: S_9  and  C_11
REMARK   10  A    between atoms: C_11  and  C_12
REMARK   11  A    between atoms: C_12  and  O_13
REMARK                            x       y       z     vdW  Elec       q    Type
REMARK                         _______ _______ _______ _____ _____    ______ ____
ROOT
ATOM      1  C   UNL     1       7.036  -3.189  -2.886  0.00  0.00    +0.013 C 
ENDROOT
BRANCH   1   2
ATOM      2  C   UNL     1       6.564  -2.096  -1.926  0.00  0.00    +0.001 C 
BRANCH   2   3
ATOM      3  C   UNL     1       5.033  -2.053  -1.894  0.00  0.00    +0.000 C 
BRANCH   3   4
ATOM      4  C   UNL     1       4.501  -0.975  -0.951  0.00  0.00    -0.000 C 
BRANCH   4   5
ATOM      5  C   UNL     1       2.970  -0.965  -0.947  0.00  0.00    -0.000 C 
BRANCH   5   7
ATOM      6  C   UNL     1       0.895   0.107  -0.006  0.00  0.00    +0.004 C 
ATOM      7  C   UNL     1       2.416   0.104  -0.008  0.00  0.00    -0.003 C 
ENDBRANCH   5   7
ENDBRANCH   4   5
ENDBRANCH   3   4
ENDBRANCH   2   3
ENDBRANCH   1   2
BRANCH   1   8
ATOM      8  C   UNL     1       8.557  -3.266  -2.991  0.00  0.00    +0.104 C 
BRANCH   8   9
ATOM      9  S   UNL     1       9.012  -4.610  -4.142  0.00  0.00    +0.024 S 
ATOM     10  O   UNL     1       8.458  -4.259  -5.492  0.00  0.00    -0.257 OA
BRANCH   9  11
ATOM     11  C   UNL     1      10.790  -4.256  -4.186  0.00  0.00    +0.131 C 
BRANCH  11  12
ATOM     12  C   UNL     1      11.487  -5.230  -5.123  0.00  0.00    +0.169 C 
BRANCH  12  13
ATOM     13  O   UNL     1      12.882  -4.945  -5.175  0.00  0.00    -0.394 OA
ATOM     14  H   UNL     1      13.001  -4.214  -5.807  0.00  0.00    +0.209 HD
ENDBRANCH  12  13
ENDBRANCH  11  12
ENDBRANCH   9  11
ENDBRANCH   8   9
ENDBRANCH   1   8
TORSDOF 10
