REMARK  Name = 
REMARK  3 active torsions:
REMARK  status: ('A' for Active; 'I' for Inactive)
REMARK    1  A    between atoms: C_1  and  C_2
REMARK    2  A    between atoms: C_15  and  C_16
REMARK    3  A    between atoms: C_20  and  O_21
REMARK                            x       y       z     vdW  Elec       q    Type
REMARK                         _______ _______ _______ _____ _____    ______ ____
ROOT
ATOM      1  C   UNL     1       1.721  -0.691   0.487  0.00  0.00    +0.014 C 
ATOM      2  C   UNL     1       3.204  -0.323   0.173  0.00  0.00    -0.003 C 
ATOM      3  C   UNL     1       3.943  -1.620  -0.249  0.00  0.00    +0.121 C 
ATOM      4  C   UNL     1       4.338  -2.253   1.081  0.00  0.00    +0.032 C 
ATOM      5  C   UNL     1       4.815  -1.069   1.894  0.00  0.00    +0.007 C 
ATOM      6  C   UNL     1       3.873   0.099   1.508  0.00  0.00    +0.001 C 
ATOM      7  C   UNL     1       4.626   1.446   1.547  0.00  0.00    -0.004 C 
ATOM      8  C   UNL     1       4.856   1.797   3.020  0.00  0.00    +0.004 C 
ATOM      9  C   UNL     1       5.521   3.131   3.179  0.00  0.00    +0.005 C 
ATOM     10  C   UNL     1       4.749   4.311   2.574  0.00  0.00    +0.002 C 
ATOM     11  C   UNL     1       3.768   3.994   1.385  0.00  0.00    -0.025 C 
ATOM     12  C   UNL     1       2.313   4.000   1.938  0.00  0.00    +0.012 C 
ATOM     13  C   UNL     1       3.830   5.119   0.284  0.00  0.00    +0.015 C 
ATOM     14  C   UNL     1       4.135   6.553   0.731  0.00  0.00    +0.075 C 
ATOM     15  C   UNL     1       5.142   6.641   1.835  0.00  0.00    +0.134 C 
ATOM     16  O   UNL     1       5.439   7.720   2.348  0.00  0.00    -0.297 OA
ATOM     17  C   UNL     1       5.802   5.363   2.254  0.00  0.00    +0.078 C 
ATOM     18  C   UNL     1       4.071   2.607   0.676  0.00  0.00    -0.001 C 
ATOM     19  C   UNL     1       2.956   2.150  -0.294  0.00  0.00    +0.005 C 
ATOM     20  C   UNL     1       3.243   0.779  -0.896  0.00  0.00    +0.010 C 
ENDROOT
BRANCH   3  21
ATOM     21  O   UNL     1       5.118  -1.360  -1.009  0.00  0.00    -0.391 OA
ATOM     22  H   UNL     1       5.666  -0.709  -0.538  0.00  0.00    +0.210 HD
ENDBRANCH   3  21
TORSDOF 1
