REMARK  Name = 
REMARK  1 active torsions:
REMARK  status: ('A' for Active; 'I' for Inactive)
REMARK    1  A    between atoms: C_1  and  C_2
REMARK                            x       y       z     vdW  Elec       q    Type
REMARK                         _______ _______ _______ _____ _____    ______ ____
ROOT
ATOM      1  C   UNL     1       1.133   0.040   0.005  0.00  0.00    +0.109 C 
ATOM      2  C   UNL     1       2.634   0.078  -0.004  0.00  0.00    +0.207 C 
ATOM      3  O   UNL     1       3.278   1.095  -0.235  0.00  0.00    -0.276 OA
ATOM      4  N   UNL     1       3.253  -1.104   0.264  0.00  0.00    -0.330 N 
ATOM      5  H   UNL     1       4.265  -1.113   0.266  0.00  0.00    +0.145 HD
ATOM      6  H   UNL     1       2.758  -1.962   0.459  0.00  0.00    +0.145 HD
ENDROOT
TORSDOF 0
