REMARK  Name = 
REMARK  6 active torsions:
REMARK  status: ('A' for Active; 'I' for Inactive)
REMARK    1  A    between atoms: N_6  and  C_9
REMARK    2  A    between atoms: C_13  and  C_15
REMARK    3  A    between atoms: C_15  and  O_16
REMARK    4  A    between atoms: O_16  and  P_17
REMARK    5  A    between atoms: P_17  and  O_18
REMARK    6  A    between atoms: P_17  and  O_19
REMARK                            x       y       z     vdW  Elec       q    Type
REMARK                         _______ _______ _______ _____ _____    ______ ____
ROOT
ATOM      1  C   UNL     1       6.572   0.196   0.301  0.00  0.00    +0.224 C 
ATOM      2  O   UNL     1       7.042  -0.979   0.987  0.00  0.00    -0.351 OA
ATOM      3  C   UNL     1       8.315  -0.695   1.596  0.00  0.00    +0.147 C 
ATOM      4  C   UNL     1       8.612   0.776   1.342  0.00  0.00    +0.038 C 
ATOM      5  C   UNL     1       7.252   1.347   1.039  0.00  0.00    +0.057 C 
ENDROOT
BRANCH   1  12
ATOM      6  N   UNL     1       1.076   0.156  -0.247  0.00  0.00    -0.343 N 
ATOM      7  H   UNL     1       0.525   0.668   0.434  0.00  0.00    +0.144 HD
ATOM      8  H   UNL     1       0.730  -0.784  -0.417  0.00  0.00    +0.144 HD
ATOM      9  C   UNL     1       2.433   0.195  -0.113  0.00  0.00    +0.123 A 
ATOM     10  C   UNL     1       3.072   1.384   0.474  0.00  0.00    +0.061 A 
ATOM     11  C   UNL     1       4.384   1.317   0.637  0.00  0.00    +0.096 A 
ATOM     12  N   UNL     1       5.117   0.210   0.254  0.00  0.00    -0.273 N 
ATOM     13  C   UNL     1       4.484  -0.844  -0.428  0.00  0.00    +0.352 A 
ATOM     14  O   UNL     1       5.123  -1.746  -0.963  0.00  0.00    -0.244 OA
ATOM     15  N   UNL     1       3.101  -0.840  -0.521  0.00  0.00    -0.178 NA
ENDBRANCH   1  12
BRANCH   3  16
ATOM     16  C   UNL     1       8.232  -1.066   3.075  0.00  0.00    +0.204 C 
BRANCH  16  17
ATOM     17  O   UNL     1       7.179  -0.341   3.706  0.00  0.00    -0.284 OA
BRANCH  17  18
ATOM     18  P   UNL     1       7.033  -0.737   5.384  0.00  0.00    +0.472 P 
ATOM     19  O   UNL     1       6.902  -1.091   6.885  0.00  0.00    -0.228 OA
BRANCH  18  20
ATOM     20  O   UNL     1       5.713  -1.562   4.891  0.00  0.00    -0.303 OA
ATOM     21  H   UNL     1       5.159  -0.942   4.383  0.00  0.00    +0.222 HD
ENDBRANCH  18  20
BRANCH  18  22
ATOM     22  O   UNL     1       6.277   0.711   5.517  0.00  0.00    -0.303 OA
ATOM     23  H   UNL     1       6.921   1.422   5.674  0.00  0.00    +0.222 HD
ENDBRANCH  18  22
ENDBRANCH  17  18
ENDBRANCH  16  17
ENDBRANCH   3  16
TORSDOF 6
