REMARK  Name = 
REMARK  4 active torsions:
REMARK  status: ('A' for Active; 'I' for Inactive)
REMARK    1  A    between atoms: N_4  and  C_5
REMARK    2  A    between atoms: C_7  and  C_10
REMARK    3  A    between atoms: C_13  and  C_14
REMARK    4  A    between atoms: C_14  and  N_15
REMARK                            x       y       z     vdW  Elec       q    Type
REMARK                         _______ _______ _______ _____ _____    ______ ____
ROOT
ATOM      1  C   UNL     1       7.571   0.713  -2.525  0.00  0.00    +0.038 A 
ATOM      2  S   UNL     1       8.136  -0.805  -3.068  0.00  0.00    -0.090 S 
ATOM      3  C   UNL     1       9.436  -0.103  -3.929  0.00  0.00    +0.008 A 
ATOM      4  C   UNL     1       9.409   1.276  -3.842  0.00  0.00    +0.013 A 
ATOM      5  C   UNL     1       8.338   1.746  -3.021  0.00  0.00    +0.018 A 
ENDROOT
BRANCH   1   9
ATOM      6  C   UNL     1       5.003   2.042  -0.298  0.00  0.00    +0.272 A 
ATOM      7  S   UNL     1       4.390   0.431  -0.127  0.00  0.00    -0.038 S 
ATOM      8  C   UNL     1       5.591  -0.144  -1.194  0.00  0.00    +0.079 A 
ATOM      9  C   UNL     1       6.394   0.897  -1.609  0.00  0.00    +0.088 A 
ATOM     10  N   UNL     1       6.042   2.143  -1.113  0.00  0.00    -0.206 NA
BRANCH   6  15
ATOM     11  N   UNL     1       4.186   5.213   1.030  0.00  0.00    -0.289 N 
ATOM     12  H   UNL     1       3.468   4.845   1.645  0.00  0.00    +0.255 HD
ATOM     13  H   UNL     1       4.817   5.831   1.526  0.00  0.00    +0.255 HD
ATOM     14  C   UNL     1       4.836   4.214   0.385  0.00  0.00    +0.384 C 
ATOM     15  N   UNL     1       4.353   3.020   0.383  0.00  0.00    -0.045 NA
ATOM     16  N   UNL     1       5.972   4.702  -0.169  0.00  0.00    -0.289 N 
ATOM     17  H   UNL     1       6.403   4.009  -0.785  0.00  0.00    +0.255 HD
ATOM     18  H   UNL     1       5.812   5.569  -0.671  0.00  0.00    +0.255 HD
ENDBRANCH   6  15
ENDBRANCH   1   9
BRANCH   3  19
ATOM     19  C   UNL     1      10.403  -0.986  -4.674  0.00  0.00    +0.147 C 
BRANCH  19  20
ATOM     20  N   UNL     1       9.948  -1.288  -6.020  0.00  0.00    -0.310 N 
ATOM     21  H   UNL     1       9.313  -0.605  -6.415  0.00  0.00    +0.149 HD
ATOM     22  C   UNL     1      10.708  -2.075  -6.800  0.00  0.00    +0.194 A 
ATOM     23  N   UNL     1      10.322  -2.316  -8.092  0.00  0.00    -0.326 N 
ATOM     24  H   UNL     1       9.483  -1.965  -8.521  0.00  0.00    +0.169 HD
ATOM     25  C   UNL     1      11.251  -3.135  -8.677  0.00  0.00    +0.067 A 
ATOM     26  C   UNL     1      11.353  -3.682  -9.957  0.00  0.00    +0.028 A 
ATOM     27  C   UNL     1      12.473  -4.482 -10.207  0.00  0.00    +0.002 A 
ATOM     28  C   UNL     1      13.431  -4.721  -9.218  0.00  0.00    +0.002 A 
ATOM     29  C   UNL     1      13.297  -4.167  -7.938  0.00  0.00    +0.030 A 
ATOM     30  C   UNL     1      12.182  -3.358  -7.668  0.00  0.00    +0.091 A 
ATOM     31  N   UNL     1      11.821  -2.703  -6.514  0.00  0.00    -0.215 NA
ENDBRANCH  19  20
ENDBRANCH   3  19
TORSDOF 4
