REMARK  Name = 
REMARK  12 active torsions:
REMARK  status: ('A' for Active; 'I' for Inactive)
REMARK    1  A    between atoms: C_2  and  C_3
REMARK    2  A    between atoms: C_3  and  N_4
REMARK    3  A    between atoms: N_4  and  C_5
REMARK    4  A    between atoms: N_4  and  C_8
REMARK    5  A    between atoms: C_5  and  C_6
REMARK    6  A    between atoms: C_8  and  C_9
REMARK    7  A    between atoms: C_9  and  C_10
REMARK    8  A    between atoms: C_10  and  C_11
REMARK    9  A    between atoms: C_11  and  C_13
REMARK   10  A    between atoms: C_11  and  N_14
REMARK   11  A    between atoms: C_27  and  O_28
REMARK   12  A    between atoms: O_28  and  C_29
REMARK                            x       y       z     vdW  Elec       q    Type
REMARK                         _______ _______ _______ _____ _____    ______ ____
ROOT
ATOM      1  N   UNL     1       9.255  -5.618  -0.192  0.00  0.00    -0.280 NA
ATOM      2  C   UNL     1       9.091  -6.747  -0.793  0.00  0.00    +0.077 A 
ATOM      3  C   UNL     1      10.012  -7.864  -0.319  0.00  0.00    +0.027 A 
ATOM      4  C   UNL     1       9.885  -9.143  -0.871  0.00  0.00    +0.049 A 
ATOM      5  C   UNL     1      10.709 -10.181  -0.419  0.00  0.00    +0.030 A 
ATOM      6  C   UNL     1      11.627  -9.968   0.608  0.00  0.00    +0.047 A 
ATOM      7  C   UNL     1      11.757  -8.703   1.177  0.00  0.00    +0.121 A 
ATOM      8  N   UNL     1       8.989  -9.383  -1.912  0.00  0.00    -0.354 N 
ATOM      9  H   UNL     1       8.800 -10.352  -2.135  0.00  0.00    +0.166 HD
ATOM     10  C   UNL     1       8.062  -8.436  -2.364  0.00  0.00    +0.050 A 
ATOM     11  C   UNL     1       7.159  -8.824  -3.371  0.00  0.00    +0.046 A 
ATOM     12  C   UNL     1       6.246  -7.918  -3.889  0.00  0.00    +0.043 A 
ATOM     13 CL   UNL     1       5.125  -8.406  -5.094  0.00  0.00    -0.083 Cl
ATOM     14  C   UNL     1       6.237  -6.611  -3.425  0.00  0.00    +0.021 A 
ATOM     15  C   UNL     1       7.142  -6.223  -2.432  0.00  0.00    +0.013 A 
ATOM     16  C   UNL     1      10.954  -7.653   0.706  0.00  0.00    +0.057 A 
ATOM     17  C   UNL     1       8.077  -7.110  -1.878  0.00  0.00    +0.024 A 
ENDROOT
BRANCH   1  18
ATOM     18  C   UNL     1       8.507  -4.383  -0.301  0.00  0.00    +0.103 C 
ATOM     19  C   UNL     1       8.670  -3.617   1.012  0.00  0.00    +0.032 C 
BRANCH  18  20
ATOM     20  C   UNL     1       8.916  -3.555  -1.537  0.00  0.00    +0.028 C 
BRANCH  20  21
ATOM     21  C   UNL     1      10.263  -2.835  -1.524  0.00  0.00    +0.017 C 
BRANCH  21  22
ATOM     22  C   UNL     1      11.498  -3.744  -1.575  0.00  0.00    +0.084 C 
BRANCH  22  23
ATOM     23  N   UNL     1      11.574  -4.686  -2.715  0.00  0.00    -0.300 NA
BRANCH  23  24
ATOM     24  C   UNL     1      11.620  -3.999  -4.020  0.00  0.00    +0.100 C 
BRANCH  24  26
ATOM     25 CL   UNL     1      11.609  -3.953  -6.749  0.00  0.00    -0.124 Cl
ATOM     26  C   UNL     1      11.617  -4.922  -5.248  0.00  0.00    +0.124 C 
ENDBRANCH  24  26
ENDBRANCH  23  24
BRANCH  23  27
ATOM     27  C   UNL     1      12.672  -5.658  -2.503  0.00  0.00    +0.100 C 
BRANCH  27  28
ATOM     28  C   UNL     1      14.098  -5.090  -2.472  0.00  0.00    +0.124 C 
ATOM     29 CL   UNL     1      15.291  -6.396  -2.245  0.00  0.00    -0.124 Cl
ENDBRANCH  27  28
ENDBRANCH  23  27
ENDBRANCH  22  23
ENDBRANCH  21  22
ENDBRANCH  20  21
ENDBRANCH  18  20
ENDBRANCH   1  18
BRANCH   7  30
ATOM     30  O   UNL     1      12.622  -8.379   2.187  0.00  0.00    -0.495 OA
ATOM     31  C   UNL     1      13.406  -9.440   2.724  0.00  0.00    +0.277 C 
ENDBRANCH   7  30
TORSDOF 10
