REMARK  Name = 
REMARK  12 active torsions:
REMARK  status: ('A' for Active; 'I' for Inactive)
REMARK    1  A    between atoms: C_1  and  O_2
REMARK    2  A    between atoms: O_2  and  C_3
REMARK    3  A    between atoms: C_5  and  O_7
REMARK    4  A    between atoms: C_8  and  C_10
REMARK    5  A    between atoms: C_14  and  O_15
REMARK    6  A    between atoms: C_16  and  C_18
REMARK    7  A    between atoms: C_22  and  C_41
REMARK    8  A    between atoms: C_28  and  O_30
REMARK    9  A    between atoms: O_30  and  C_31
REMARK   10  A    between atoms: C_32  and  O_34
REMARK   11  A    between atoms: O_34  and  C_35
REMARK   12  A    between atoms: C_38  and  C_40
REMARK                            x       y       z     vdW  Elec       q    Type
REMARK                         _______ _______ _______ _____ _____    ______ ____
ROOT
ATOM      1  C   UNL     1       3.339  -1.389   2.032  0.00  0.00    +0.206 C 
ATOM      2  C   UNL     1       4.319  -2.147   2.975  0.00  0.00    +0.210 C 
ATOM      3  C   UNL     1       4.865  -3.481   2.374  0.00  0.00    +0.156 C 
ATOM      4  C   UNL     1       6.259  -3.282   1.792  0.00  0.00    +0.025 C 
ATOM      5  C   UNL     1       3.873  -4.286   1.492  0.00  0.00    +0.316 C 
ATOM      6  O   UNL     1       2.782  -4.614   1.946  0.00  0.00    -0.250 OA
ATOM      7  O   UNL     1       4.269  -4.796   0.236  0.00  0.00    -0.456 OA
ATOM      8  C   UNL     1       5.022  -4.057  -0.721  0.00  0.00    +0.207 C 
ATOM      9  C   UNL     1       6.451  -4.661  -1.041  0.00  0.00    +0.049 C 
ATOM     10  C   UNL     1       7.226  -3.715  -1.982  0.00  0.00    +0.004 C 
ATOM     11  C   UNL     1       8.508  -2.997  -1.559  0.00  0.00    +0.003 C 
ATOM     12  C   UNL     1       8.300  -1.488  -1.822  0.00  0.00    +0.034 C 
ATOM     13  C   UNL     1       9.480  -0.499  -1.807  0.00  0.00    +0.150 C 
ATOM     14  C   UNL     1       9.350   0.603  -0.700  0.00  0.00    +0.169 C 
ATOM     15  C   UNL     1       9.053   0.087   0.696  0.00  0.00    +0.003 C 
ATOM     16  C   UNL     1       7.900   0.380   1.321  0.00  0.00    -0.023 C 
ATOM     17  C   UNL     1       7.435   0.045   2.726  0.00  0.00    +0.038 C 
ATOM     18  C   UNL     1       8.241  -1.077   3.427  0.00  0.00    +0.014 C 
ATOM     19  C   UNL     1       5.859  -0.055   2.922  0.00  0.00    +0.134 C 
ATOM     20  C   UNL     1       4.914   0.381   1.794  0.00  0.00    +0.047 C 
ATOM     21  C   UNL     1       4.955   1.746   1.114  0.00  0.00    +0.013 C 
ATOM     22  O   UNL     1       5.475  -1.364   3.421  0.00  0.00    -0.342 OA
ATOM     23  C   UNL     1       3.494   0.105   2.289  0.00  0.00    +0.154 C 
ENDROOT
BRANCH   8  24
ATOM     24  C   UNL     1       4.311  -3.780  -2.092  0.00  0.00    -0.007 A 
ATOM     25  C   UNL     1       4.430  -4.725  -3.128  0.00  0.00    +0.007 A 
ATOM     26  C   UNL     1       4.811  -4.293  -4.407  0.00  0.00    +0.000 A 
ATOM     27  C   UNL     1       4.975  -2.933  -4.673  0.00  0.00    +0.000 A 
ATOM     28  C   UNL     1       4.618  -1.990  -3.710  0.00  0.00    +0.000 A 
ATOM     29  C   UNL     1       4.215  -2.410  -2.439  0.00  0.00    +0.007 A 
ENDBRANCH   8  24
BRANCH   1  31
ATOM     30  C   UNL     1       1.232  -1.378   0.969  0.00  0.00    +0.194 C 
ATOM     31  O   UNL     1       1.960  -1.755   2.146  0.00  0.00    -0.372 OA
ENDBRANCH   1  31
BRANCH   2  32
ATOM     32  O   UNL     1       3.631  -2.452   4.200  0.00  0.00    -0.362 OA
ATOM     33  H   UNL     1       2.738  -2.059   4.141  0.00  0.00    +0.213 HD
ENDBRANCH   2  32
BRANCH  13  34
ATOM     34  O   UNL     1      10.765  -1.062  -2.053  0.00  0.00    -0.377 OA
ATOM     35  C   UNL     1      11.371  -1.833  -1.041  0.00  0.00    +0.194 C 
ENDBRANCH  13  34
BRANCH  14  36
ATOM     36  O   UNL     1      10.502   1.452  -0.702  0.00  0.00    -0.373 OA
ATOM     37  C   UNL     1      10.360   2.616   0.105  0.00  0.00    +0.194 C 
ENDBRANCH  14  36
BRANCH  23  38
ATOM     38  O   UNL     1       3.283   0.473   3.668  0.00  0.00    -0.389 OA
ATOM     39  H   UNL     1       3.760  -0.146   4.256  0.00  0.00    +0.210 HD
ENDBRANCH  23  38
TORSDOF 6
