REMARK  Name = 
REMARK  12 active torsions:
REMARK  status: ('A' for Active; 'I' for Inactive)
REMARK    1  A    between atoms: O_1  and  C_2
REMARK    2  A    between atoms: C_4  and  O_6
REMARK    3  A    between atoms: C_7  and  C_9
REMARK    4  A    between atoms: C_9  and  O_10
REMARK    5  A    between atoms: O_10  and  P_11
REMARK    6  A    between atoms: P_11  and  O_12
REMARK    7  A    between atoms: P_11  and  O_13
REMARK    8  A    between atoms: C_16  and  C_18
REMARK    9  A    between atoms: C_18  and  O_19
REMARK   10  A    between atoms: O_19  and  P_20
REMARK   11  A    between atoms: P_20  and  O_21
REMARK   12  A    between atoms: P_20  and  O_22
REMARK                            x       y       z     vdW  Elec       q    Type
REMARK                         _______ _______ _______ _____ _____    ______ ____
ROOT
ATOM      1  C   UNL     1       2.407   0.215   0.012  0.00  0.00    +0.176 C 
ATOM      2  C   UNL     1       2.964  -1.094   0.606  0.00  0.00    +0.176 C 
ATOM      3  O   UNL     1       4.173  -0.756   1.327  0.00  0.00    -0.363 OA
ATOM      4  C   UNL     1       4.329   0.690   1.315  0.00  0.00    +0.176 C 
ATOM      5  C   UNL     1       2.958   1.277   0.957  0.00  0.00    +0.176 C 
ENDROOT
BRANCH   1   6
ATOM      6  O   UNL     1       2.947   0.463  -1.298  0.00  0.00    -0.386 OA
ATOM      7  H   UNL     1       2.963  -0.386  -1.785  0.00  0.00    +0.210 HD
ENDBRANCH   1   6
BRANCH   5   8
ATOM      8  O   UNL     1       2.142   1.343   2.126  0.00  0.00    -0.386 OA
ATOM      9  H   UNL     1       1.335   1.843   1.880  0.00  0.00    +0.210 HD
ENDBRANCH   5   8
BRANCH   2  10
ATOM     10  C   UNL     1       1.988  -1.821   1.541  0.00  0.00    +0.206 C 
BRANCH  10  11
ATOM     11  O   UNL     1       0.839  -2.202   0.798  0.00  0.00    -0.284 OA
BRANCH  11  12
ATOM     12  P   UNL     1      -0.368  -3.072   1.681  0.00  0.00    +0.472 P 
ATOM     13  O   UNL     1      -1.448  -3.850   2.471  0.00  0.00    -0.228 OA
BRANCH  12  14
ATOM     14  O   UNL     1      -1.125  -3.322   0.253  0.00  0.00    -0.303 OA
ATOM     15  H   UNL     1      -1.918  -3.859   0.471  0.00  0.00    +0.222 HD
ENDBRANCH  12  14
BRANCH  12  16
ATOM     16  O   UNL     1      -1.060  -1.610   1.932  0.00  0.00    -0.303 OA
ATOM     17  H   UNL     1      -1.697  -1.442   1.237  0.00  0.00    +0.222 HD
ENDBRANCH  12  16
ENDBRANCH  11  12
ENDBRANCH  10  11
ENDBRANCH   2  10
BRANCH   4  18
ATOM     18  C   UNL     1       5.452   1.020   0.319  0.00  0.00    +0.206 C 
BRANCH  18  19
ATOM     19  O   UNL     1       5.648   2.426   0.159  0.00  0.00    -0.284 OA
BRANCH  19  20
ATOM     20  P   UNL     1       6.857   2.790  -1.024  0.00  0.00    +0.472 P 
ATOM     21  O   UNL     1       7.939   3.116  -2.083  0.00  0.00    -0.228 OA
BRANCH  20  22
ATOM     22  O   UNL     1       7.966   2.523   0.152  0.00  0.00    -0.303 OA
ATOM     23  H   UNL     1       8.621   1.865  -0.138  0.00  0.00    +0.222 HD
ENDBRANCH  20  22
BRANCH  20  24
ATOM     24  O   UNL     1       6.580   4.364  -0.676  0.00  0.00    -0.303 OA
ATOM     25  H   UNL     1       6.505   4.879  -1.497  0.00  0.00    +0.222 HD
ENDBRANCH  20  24
ENDBRANCH  19  20
ENDBRANCH  18  19
ENDBRANCH   4  18
TORSDOF 12
