REMARK  Name = 
REMARK  16 active torsions:
REMARK  status: ('A' for Active; 'I' for Inactive)
REMARK    1  A    between atoms: CD1_1  and  CG1_2
REMARK    2  A    between atoms: CG1_2  and  CB_3
REMARK    3  A    between atoms: CB_3  and  CG2_5
REMARK    4  A    between atoms: CB_3  and  CA_6
REMARK    5  A    between atoms: CA_6  and  N_8
REMARK    6  A    between atoms: CA_6  and  C_24
REMARK    7  A    between atoms: N_8  and  C_9
REMARK    8  A    between atoms: C_9  and  C_10
REMARK    9  A    between atoms: C_11  and  O_12
REMARK   10  A    between atoms: C_13  and  C_14
REMARK   11  A    between atoms: C_17  and  C_18
REMARK   12  A    between atoms: C_18  and  O_19
REMARK   13  A    between atoms: O_19  and  P_20
REMARK   14  A    between atoms: P_20  and  O_21
REMARK   15  A    between atoms: P_20  and  O_22
REMARK   16  A    between atoms: C_24  and  O_25
REMARK                            x       y       z     vdW  Elec       q    Type
REMARK                         _______ _______ _______ _____ _____    ______ ____
ROOT
ATOM      1  C   UNK A   0       4.719   2.097   1.849  0.00  0.00    +0.016 A 
ATOM      2  C   UNK A   0       3.965   2.891   2.756  0.00  0.00    +0.005 A 
ATOM      3  C   UNK A   0       4.685   3.618   3.718  0.00  0.00    +0.117 A 
ATOM      4  N   UNK A   0       6.025   3.628   3.868  0.00  0.00    -0.256 NA
ATOM      5  C   UNK A   0       6.740   2.880   3.002  0.00  0.00    +0.080 A 
ATOM      6  C   UNK A   0       8.231   2.930   3.175  0.00  0.00    +0.069 C 
ATOM      7  C   UNK A   0       6.133   2.135   1.987  0.00  0.00    +0.142 A 
ENDROOT
BRANCH   7   8
ATOM      8  O   UNK A   0       6.972   1.465   1.141  0.00  0.00    -0.505 OA
ATOM      9  H   UNK A   0       6.444   1.022   0.454  0.00  0.00    +0.292 HD
ENDBRANCH   7   8
BRANCH   1  10
ATOM     10  C   UNK A   0       4.112   1.231   0.739  0.00  0.00    +0.121 C 
BRANCH  10  11
ATOM     11  N   ILE A   1       4.445  -0.180   0.923  0.00  0.00    -0.300 NA
ATOM     12  H   ILE A   1       5.382  -0.365   1.282  0.00  0.00    +0.123 HD
BRANCH  11  13
ATOM     13  CA  ILE A   1       4.064  -1.157  -0.117  0.00  0.00    +0.166 C 
BRANCH  13  14
ATOM     14  CB  ILE A   1       4.594  -0.947  -1.577  0.00  0.00    +0.014 C 
ATOM     15  CG2 ILE A   1       4.008  -2.017  -2.520  0.00  0.00    +0.009 C 
BRANCH  14  17
ATOM     16  CD1 ILE A   1       6.661  -0.620  -3.097  0.00  0.00    +0.004 C 
ATOM     17  CG1 ILE A   1       6.134  -0.918  -1.697  0.00  0.00    +0.002 C 
ENDBRANCH  14  17
ENDBRANCH  13  14
BRANCH  13  18
ATOM     18  C   ILE A   1       4.519  -2.542   0.417  0.00  0.00    +0.322 C 
ATOM     19  OXT ILE A   1       5.653  -2.791   0.803  0.00  0.00    -0.249 OA
BRANCH  18  20
ATOM     20  O   ILE A   1       3.543  -3.490   0.422  0.00  0.00    -0.480 OA
ATOM     21  H   ILE A   1       2.668  -3.146   0.174  0.00  0.00    +0.295 HD
ENDBRANCH  18  20
ENDBRANCH  13  18
ENDBRANCH  11  13
ENDBRANCH  10  11
ENDBRANCH   1  10
BRANCH   2  22
ATOM     22  C   UNK A   0       2.467   3.137   2.766  0.00  0.00    +0.209 C 
BRANCH  22  23
ATOM     23  O   UNK A   0       1.742   1.973   2.495  0.00  0.00    -0.282 OA
BRANCH  23  24
ATOM     24  P   UNK A   0       0.014   2.020   2.566  0.00  0.00    +0.473 P 
ATOM     25  O   UNK A   0      -1.533   2.062   2.630  0.00  0.00    -0.228 OA
BRANCH  24  26
ATOM     26  O   UNK A   0       0.047   0.443   2.127  0.00  0.00    -0.303 OA
ATOM     27  H   UNK A   0      -0.264  -0.121   2.856  0.00  0.00    +0.222 HD
ENDBRANCH  24  26
BRANCH  24  28
ATOM     28  O   UNK A   0       0.080   2.642   1.052  0.00  0.00    -0.303 OA
ATOM     29  H   UNK A   0      -0.482   3.433   0.981  0.00  0.00    +0.222 HD
ENDBRANCH  24  28
ENDBRANCH  23  24
ENDBRANCH  22  23
ENDBRANCH   2  22
TORSDOF 13
