REMARK  Name = 
REMARK  5 active torsions:
REMARK  status: ('A' for Active; 'I' for Inactive)
REMARK    1  A    between atoms: C_4  and  O_5
REMARK    2  A    between atoms: C_4  and  C_6
REMARK    3  A    between atoms: C_6  and  O_8
REMARK    4  A    between atoms: O_8  and  C_9
REMARK    5  A    between atoms: C_10  and  C_11
REMARK                            x       y       z     vdW  Elec       q    Type
REMARK                         _______ _______ _______ _____ _____    ______ ____
ROOT
ATOM      1  C   UNL     1      -0.000  -0.000  -0.000  0.00  0.00    +0.226 C 
ATOM      2  N   UNL     1      -0.000  -0.000  -0.000  0.00  0.00    -0.311 N 
ATOM      3  C   UNL     1      -0.000  -0.000  -0.000  0.00  0.00    +0.077 A 
ATOM      4  C   UNL     1      -0.000  -0.000  -0.000  0.00  0.00    +0.077 A 
ATOM      5  C   UNL     1      -0.000  -0.000  -0.000  0.00  0.00    +0.015 A 
ATOM      6  C   UNL     1      -0.000  -0.000  -0.000  0.00  0.00    -0.008 A 
ATOM      7  C   UNL     1      -0.000  -0.000  -0.000  0.00  0.00    +0.052 A 
ATOM      8  C   UNL     1      -0.000  -0.000  -0.000  0.00  0.00    +0.245 C 
ATOM      9  O   UNL     1      -0.000  -0.000  -0.000  0.00  0.00    -0.270 OA
ATOM     10  N   UNL     1      -0.000  -0.000  -0.000  0.00  0.00    -0.307 N 
ATOM     11  H   UNL     1       0.000   0.000   0.000  0.00  0.00    +0.149 HD
ATOM     12  C   UNL     1      -0.000  -0.000  -0.000  0.00  0.00    +0.141 C 
ATOM     13  C   UNL     1      -0.000  -0.000  -0.000  0.00  0.00    +0.008 A 
ATOM     14  C   UNL     1      -0.000  -0.000  -0.000  0.00  0.00    +0.010 A 
ATOM     15  C   UNL     1      -0.000  -0.000  -0.000  0.00  0.00    +0.001 A 
ATOM     16  C   UNL     1      -0.000  -0.000  -0.000  0.00  0.00    +0.002 A 
ATOM     17  C   UNL     1      -0.000  -0.000  -0.000  0.00  0.00    +0.026 A 
ATOM     18  C   UNL     1      -0.000  -0.000  -0.000  0.00  0.00    +0.053 A 
ATOM     19  N   UNL     1      -0.000  -0.000  -0.000  0.00  0.00    -0.306 N 
ATOM     20  C   UNL     1      -0.000  -0.000  -0.000  0.00  0.00    +0.186 C 
ATOM     21  C   UNL     1      -0.000  -0.000  -0.000  0.00  0.00    +0.070 C 
ATOM     22  C   UNL     1      -0.000  -0.000  -0.000  0.00  0.00    +0.214 C 
ATOM     23  C   UNL     1      -0.000  -0.000  -0.000  0.00  0.00    +0.022 A 
ATOM     24  C   UNL     1      -0.000  -0.000  -0.000  0.00  0.00    +0.008 A 
ATOM     25  C   UNL     1      -0.000  -0.000  -0.000  0.00  0.00    +0.010 A 
ATOM     26  C   UNL     1      -0.000  -0.000  -0.000  0.00  0.00    +0.001 A 
ATOM     27  C   UNL     1      -0.000  -0.000  -0.000  0.00  0.00    +0.002 A 
ATOM     28  C   UNL     1      -0.000  -0.000   0.000  0.00  0.00    +0.026 A 
ATOM     29  C   UNL     1      -0.000  -0.000  -0.000  0.00  0.00    +0.052 A 
ATOM     30  O   UNL     1      -0.000  -0.000  -0.000  0.00  0.00    -0.327 OA
ATOM     31  C   UNL     1      -0.000  -0.000   0.000  0.00  0.00    +0.106 C 
ENDROOT
BRANCH  22  32
ATOM     32  C   UNL     1      -0.000  -0.000  -0.000  0.00  0.00    +0.344 C 
ATOM     33  O   UNL     1      -0.000  -0.000  -0.000  0.00  0.00    -0.247 OA
BRANCH  32  34
ATOM     34  O   UNL     1      -0.000  -0.000  -0.000  0.00  0.00    -0.466 OA
ATOM     35  C   UNL     1      -0.000  -0.000  -0.000  0.00  0.00    +0.280 C 
ENDBRANCH  32  34
ENDBRANCH  22  32
BRANCH  22  36
ATOM     36  O   UNL     1      -0.000  -0.000  -0.000  0.00  0.00    -0.374 OA
ATOM     37  H   UNL     1       0.000   0.000   0.000  0.00  0.00    +0.211 HD
ENDBRANCH  22  36
TORSDOF 3
