REMARK  Name = 
REMARK  9 active torsions:
REMARK  status: ('A' for Active; 'I' for Inactive)
REMARK    1  A    between atoms: C_1  and  C_2
REMARK    2  A    between atoms: N_6  and  C_11
REMARK    3  A    between atoms: C_14  and  C_16
REMARK    4  A    between atoms: C_16  and  O_17
REMARK    5  A    between atoms: O_17  and  P_18
REMARK    6  A    between atoms: P_18  and  O_19
REMARK    7  A    between atoms: P_18  and  O_20
REMARK    8  A    between atoms: C_22  and  O_24
REMARK    9  A    between atoms: C_25  and  O_27
REMARK                            x       y       z     vdW  Elec       q    Type
REMARK                         _______ _______ _______ _____ _____    ______ ____
ROOT
ATOM      1  C   UNL     1       7.752   0.876  -0.154  0.00  0.00    +0.252 C 
ATOM      2  C   UNL     1       8.707   0.375   0.942  0.00  0.00    +0.195 C 
ATOM      3  C   UNL     1       9.306   1.639   1.565  0.00  0.00    +0.178 C 
ATOM      4  C   UNL     1       8.729   2.773   0.727  0.00  0.00    +0.178 C 
ATOM      5  O   UNL     1       7.511   2.269   0.156  0.00  0.00    -0.346 OA
ENDROOT
BRANCH   1  11
ATOM      6  C   UNL     1       9.915  -3.308  -5.027  0.00  0.00    +0.044 C 
ATOM      7  C   UNL     1       9.446  -2.298  -4.020  0.00  0.00    -0.048 A 
ATOM      8  C   UNL     1       9.435  -0.939  -4.365  0.00  0.00    +0.033 A 
ATOM      9  C   UNL     1       8.990   0.006  -3.433  0.00  0.00    +0.089 A 
ATOM     10  C   UNL     1       8.581  -0.415  -2.168  0.00  0.00    +0.071 A 
ATOM     11  N   UNL     1       8.247   0.755  -1.519  0.00  0.00    -0.301 N 
ATOM     12  C   UNL     1       8.377   1.776  -2.425  0.00  0.00    +0.202 A 
ATOM     13  C   UNL     1       8.576  -1.763  -1.792  0.00  0.00    +0.028 A 
ATOM     14  N   UNL     1       8.865   1.362  -3.569  0.00  0.00    -0.236 NA
ATOM     15  C   UNL     1       9.017  -2.694  -2.745  0.00  0.00    +0.005 A 
ENDBRANCH   1  11
BRANCH   2  16
ATOM     16  O   UNL     1       7.966  -0.357   1.940  0.00  0.00    -0.385 OA
ATOM     17  H   UNL     1       7.316   0.242   2.350  0.00  0.00    +0.210 HD
ENDBRANCH   2  16
BRANCH   3  18
ATOM     18  O   UNL     1      10.728   1.618   1.489  0.00  0.00    -0.386 OA
ATOM     19  H   UNL     1      11.052   2.416   1.947  0.00  0.00    +0.210 HD
ENDBRANCH   3  18
BRANCH   4  20
ATOM     20  C   UNL     1       8.429   4.037   1.517  0.00  0.00    +0.206 C 
BRANCH  20  21
ATOM     21  O   UNL     1       9.623   4.594   2.057  0.00  0.00    -0.284 OA
BRANCH  21  22
ATOM     22  P   UNL     1       9.286   6.034   2.955  0.00  0.00    +0.472 P 
ATOM     23  O   UNL     1       8.985   7.323   3.758  0.00  0.00    -0.228 OA
BRANCH  22  24
ATOM     24  O   UNL     1      10.911   6.101   3.148  0.00  0.00    -0.303 OA
ATOM     25  H   UNL     1      11.351   6.485   2.369  0.00  0.00    +0.222 HD
ENDBRANCH  22  24
BRANCH  22  26
ATOM     26  O   UNL     1       9.069   5.029   4.229  0.00  0.00    -0.303 OA
ATOM     27  H   UNL     1       9.785   5.246   4.857  0.00  0.00    +0.222 HD
ENDBRANCH  22  26
ENDBRANCH  21  22
ENDBRANCH  20  21
ENDBRANCH   4  20
TORSDOF 8
