REMARK  Name = 
REMARK  13 active torsions:
REMARK  status: ('A' for Active; 'I' for Inactive)
REMARK    1  A    between atoms: C_1  and  O_2
REMARK    2  A    between atoms: O_2  and  C_3
REMARK    3  A    between atoms: C_6  and  C_8
REMARK    4  A    between atoms: C_8  and  O_9
REMARK    5  A    between atoms: C_10  and  O_12
REMARK    6  A    between atoms: C_13  and  O_15
REMARK    7  A    between atoms: O_15  and  C_16
REMARK    8  A    between atoms: C_19  and  C_21
REMARK    9  A    between atoms: C_21  and  O_22
REMARK   10  A    between atoms: C_23  and  O_25
REMARK   11  A    between atoms: C_26  and  O_28
REMARK   12  A    between atoms: C_29  and  O_31
REMARK   13  A    between atoms: C_32  and  O_34
REMARK                            x       y       z     vdW  Elec       q    Type
REMARK                         _______ _______ _______ _____ _____    ______ ____
ROOT
ATOM      1  O   UNL     1       2.590   1.554  -1.935  0.00  0.00    -0.340 OA
ENDROOT
BRANCH   1   4
ATOM      2  C   UNL     1       3.131   1.403   1.418  0.00  0.00    +0.281 C 
ATOM      3  C   UNL     1       2.693   2.507   0.430  0.00  0.00    +0.202 C 
ATOM      4  C   UNL     1       3.317   2.373  -0.978  0.00  0.00    +0.186 C 
ATOM      5  C   UNL     1       4.813   2.011  -0.886  0.00  0.00    +0.177 C 
ATOM      6  C   UNL     1       5.194   0.994   0.200  0.00  0.00    +0.178 C 
ATOM      7  O   UNL     1       4.548   1.222   1.458  0.00  0.00    -0.341 OA
BRANCH   2   9
ATOM      8  C   UNL     1       2.438  -0.652   2.354  0.00  0.00    +0.197 C 
ATOM      9  O   UNL     1       2.432   0.179   1.200  0.00  0.00    -0.352 OA
ENDBRANCH   2   9
BRANCH   3  10
ATOM     10  O   UNL     1       3.082   3.775   1.016  0.00  0.00    -0.384 OA
ATOM     11  H   UNL     1       3.218   4.418   0.300  0.00  0.00    +0.210 HD
ENDBRANCH   3  10
BRANCH   5  12
ATOM     12  O   UNL     1       5.534   3.244  -0.614  0.00  0.00    -0.386 OA
ATOM     13  H   UNL     1       5.743   3.268   0.340  0.00  0.00    +0.210 HD
ENDBRANCH   5  12
BRANCH   6  14
ATOM     14  C   UNL     1       5.088  -0.463  -0.245  0.00  0.00    +0.190 C 
BRANCH  14  15
ATOM     15  O   UNL     1       5.700  -1.308   0.738  0.00  0.00    -0.392 OA
ATOM     16  H   UNL     1       5.417  -0.961   1.604  0.00  0.00    +0.210 HD
ENDBRANCH  14  15
ENDBRANCH   6  14
ENDBRANCH   1   4
BRANCH   1  17
ATOM     17  C   UNL     1       1.300   2.129  -2.285  0.00  0.00    +0.282 C 
ATOM     18  C   UNL     1       0.429   1.345  -3.337  0.00  0.00    +0.201 C 
ATOM     19  C   UNL     1       0.270   1.976  -4.744  0.00  0.00    +0.179 C 
ATOM     20  C   UNL     1       0.381   3.503  -4.696  0.00  0.00    +0.177 C 
ATOM     21  C   UNL     1       1.577   3.964  -3.859  0.00  0.00    +0.178 C 
ATOM     22  O   UNL     1       1.380   3.540  -2.508  0.00  0.00    -0.341 OA
BRANCH  18  23
ATOM     23  O   UNL     1      -0.920   1.292  -2.792  0.00  0.00    -0.384 OA
ATOM     24  H   UNL     1      -1.302   2.189  -2.925  0.00  0.00    +0.210 HD
ENDBRANCH  18  23
BRANCH  19  25
ATOM     25  O   UNL     1       1.125   1.406  -5.733  0.00  0.00    -0.386 OA
ATOM     26  H   UNL     1       2.034   1.467  -5.369  0.00  0.00    +0.210 HD
ENDBRANCH  19  25
BRANCH  20  27
ATOM     27  O   UNL     1      -0.834   3.993  -4.080  0.00  0.00    -0.386 OA
ATOM     28  H   UNL     1      -0.658   4.882  -3.726  0.00  0.00    +0.210 HD
ENDBRANCH  20  27
BRANCH  21  29
ATOM     29  C   UNL     1       2.973   3.645  -4.426  0.00  0.00    +0.190 C 
BRANCH  29  30
ATOM     30  O   UNL     1       3.199   2.254  -4.608  0.00  0.00    -0.392 OA
ATOM     31  H   UNL     1       4.163   2.129  -4.642  0.00  0.00    +0.210 HD
ENDBRANCH  29  30
ENDBRANCH  21  29
ENDBRANCH   1  17
TORSDOF 12
