REMARK  Name = 
REMARK  10 active torsions:
REMARK  status: ('A' for Active; 'I' for Inactive)
REMARK    1  A    between atoms: C_1  and  S_2
REMARK    2  A    between atoms: S_2  and  C_3
REMARK    3  A    between atoms: S_2  and  C_7
REMARK    4  A    between atoms: C_3  and  C_4
REMARK    5  A    between atoms: C_4  and  O_5
REMARK    6  A    between atoms: O_5  and  N_6
REMARK    7  A    between atoms: C_7  and  C_8
REMARK    8  A    between atoms: C_11  and  N_19
REMARK    9  A    between atoms: C_13  and  O_15
REMARK   10  A    between atoms: C_16  and  O_18
REMARK                            x       y       z     vdW  Elec       q    Type
REMARK                         _______ _______ _______ _____ _____    ______ ____
ROOT
ATOM      1  C   UNL     1       5.251   0.633   1.407  0.00  0.00    +0.201 C 
ATOM      2  C   UNL     1       5.514   0.344  -0.071  0.00  0.00    +0.181 C 
ATOM      3  C   UNL     1       6.698  -0.614  -0.091  0.00  0.00    +0.195 C 
ATOM      4  C   UNL     1       6.926  -0.991   1.376  0.00  0.00    +0.253 C 
ATOM      5  O   UNL     1       5.864  -0.432   2.162  0.00  0.00    -0.343 OA
ENDROOT
BRANCH   4   6
ATOM      6  N   UNL     1       6.988  -2.428   1.572  0.00  0.00    -0.286 N 
ATOM      7  C   UNL     1       7.993  -3.233   1.099  0.00  0.00    +0.167 A 
ATOM      8  N   UNL     1       9.082  -2.853   0.408  0.00  0.00    -0.216 NA
ATOM      9  C   UNL     1       9.859  -3.926   0.130  0.00  0.00    +0.225 A 
ATOM     10  N   UNL     1       9.643  -5.225   0.433  0.00  0.00    -0.219 NA
ATOM     11  C   UNL     1       8.509  -5.550   1.094  0.00  0.00    +0.147 A 
ATOM     12  N   UNL     1       8.272  -6.889   1.376  0.00  0.00    -0.341 N 
ATOM     13  H   UNL     1       7.615  -7.039   2.133  0.00  0.00    +0.144 HD
ATOM     14  H   UNL     1       9.119  -7.444   1.369  0.00  0.00    +0.144 HD
ATOM     15  C   UNL     1       7.635  -4.515   1.471  0.00  0.00    +0.147 A 
ATOM     16  N   UNL     1       6.445  -4.504   2.169  0.00  0.00    -0.231 NA
ATOM     17  C   UNL     1       6.094  -3.236   2.221  0.00  0.00    +0.203 A 
ENDBRANCH   4   6
BRANCH   2  18
ATOM     18  O   UNL     1       4.365  -0.306  -0.645  0.00  0.00    -0.386 OA
ATOM     19  H   UNL     1       4.075  -1.026  -0.059  0.00  0.00    +0.210 HD
ENDBRANCH   2  18
BRANCH   3  20
ATOM     20  O   UNL     1       7.864   0.023  -0.622  0.00  0.00    -0.385 OA
ATOM     21  H   UNL     1       8.567  -0.657  -0.647  0.00  0.00    +0.210 HD
ENDBRANCH   3  20
BRANCH   1  22
ATOM     22  C   UNL     1       5.758   2.005   1.899  0.00  0.00    +0.312 C 
BRANCH  22  24
ATOM     23  C   UNL     1       5.257   4.661   2.370  0.00  0.00    +0.341 C 
ATOM     24  S   UNL     1       4.914   3.431   1.083  0.00  0.00    -0.008 S 
BRANCH  24  25
ATOM     25  C   UNL     1       3.245   2.997   1.619  0.00  0.00    +0.307 C 
BRANCH  25  26
ATOM     26  C   UNL     1       2.126   3.944   1.236  0.00  0.00    +0.239 C 
BRANCH  26  27
ATOM     27  O   UNL     1       0.935   3.222   1.600  0.00  0.00    -0.298 OA
BRANCH  27  28
ATOM     28  N   UNL     1      -0.241   4.024   1.322  0.00  0.00    -0.215 NA
ATOM     29  H   UNL     1      -0.561   3.603   0.447  0.00  0.00    +0.150 HD
ATOM     30  H   UNL     1      -0.879   3.659   2.034  0.00  0.00    +0.150 HD
ENDBRANCH  27  28
ENDBRANCH  26  27
ENDBRANCH  25  26
ENDBRANCH  24  25
ENDBRANCH  22  24
ENDBRANCH   1  22
TORSDOF 9
