REMARK  Name = 
REMARK  9 active torsions:
REMARK  status: ('A' for Active; 'I' for Inactive)
REMARK    1  A    between atoms: C_1  and  C_2
REMARK    2  A    between atoms: C_2  and  C_3
REMARK    3  A    between atoms: C_6  and  C_7
REMARK    4  A    between atoms: C_6  and  C_8
REMARK    5  A    between atoms: C_11  and  C_15
REMARK    6  A    between atoms: C_15  and  C_17
REMARK    7  A    between atoms: C_18  and  C_19
REMARK    8  A    between atoms: C_22  and  C_25
REMARK    9  A    between atoms: C_25  and  O_26
REMARK                            x       y       z     vdW  Elec       q    Type
REMARK                         _______ _______ _______ _____ _____    ______ ____
ROOT
ATOM      1  C   UNL     1       1.049   0.128  -0.061  0.00  0.00    +0.016 C 
ATOM      2  C   UNL     1       2.592   0.053  -0.034  0.00  0.00    -0.010 C 
ATOM      3  C   UNL     1       3.106   0.793   1.212  0.00  0.00    -0.038 A 
ATOM      4  C   UNL     1       3.614   0.108   2.341  0.00  0.00    -0.037 A 
ATOM      5  C   UNL     1       4.102   0.866   3.432  0.00  0.00    +0.016 A 
ATOM      6  C   UNL     1       4.042   2.265   3.452  0.00  0.00    +0.022 A 
ATOM      7  C   UNL     1       3.519   2.933   2.351  0.00  0.00    +0.012 A 
ATOM      8  C   UNL     1       3.697  -1.424   2.408  0.00  0.00    -0.010 C 
ATOM      9  C   UNL     1       5.174  -1.849   2.256  0.00  0.00    +0.016 C 
ATOM     10  C   UNL     1       3.169  -1.965   3.759  0.00  0.00    +0.016 C 
ATOM     11  C   UNL     1       2.843  -2.091   1.307  0.00  0.00    +0.012 C 
ATOM     12  C   UNL     1       3.053   2.206   1.251  0.00  0.00    +0.005 A 
ATOM     13  C   UNL     1       3.042  -1.426  -0.044  0.00  0.00    +0.012 C 
ATOM     14  C   UNL     1       3.130   0.680  -1.342  0.00  0.00    +0.016 C 
ENDROOT
BRANCH   6  15
ATOM     15  C   UNL     1       4.546   3.055   4.611  0.00  0.00    +0.186 C 
ATOM     16  O   UNL     1       5.015   4.176   4.454  0.00  0.00    -0.287 OA
BRANCH  15  17
ATOM     17  C   UNL     1       4.412   2.435   5.960  0.00  0.00    +0.052 C 
ATOM     18  C   UNL     1       5.083   2.912   7.021  0.00  0.00    +0.012 C 
BRANCH  18  19
ATOM     19  C   UNL     1       4.983   2.311   8.363  0.00  0.00    -0.025 A 
ATOM     20  C   UNL     1       3.789   1.750   8.835  0.00  0.00    +0.009 A 
ATOM     21  C   UNL     1       3.721   1.169  10.104  0.00  0.00    +0.015 A 
ATOM     22  C   UNL     1       4.846   1.150  10.932  0.00  0.00    +0.059 A 
ATOM     23  C   UNL     1       6.030   1.757  10.496  0.00  0.00    +0.015 A 
ATOM     24  C   UNL     1       6.095   2.331   9.218  0.00  0.00    +0.009 A 
BRANCH  22  25
ATOM     25  C   UNL     1       4.709   0.518  12.271  0.00  0.00    +0.337 C 
ATOM     26  O   UNL     1       3.652   0.471  12.874  0.00  0.00    -0.245 OA
BRANCH  25  27
ATOM     27  O   UNL     1       5.844  -0.047  12.731  0.00  0.00    -0.477 OA
ATOM     28  H   UNL     1       6.571  -0.110  12.084  0.00  0.00    +0.295 HD
ENDBRANCH  25  27
ENDBRANCH  22  25
ENDBRANCH  18  19
ENDBRANCH  15  17
ENDBRANCH   6  15
TORSDOF 5
