REMARK  Name = 
REMARK  5 active torsions:
REMARK  status: ('A' for Active; 'I' for Inactive)
REMARK    1  A    between atoms: O_1  and  C_2
REMARK    2  A    between atoms: C_2  and  C_4
REMARK    3  A    between atoms: N_6  and  C_7
REMARK    4  A    between atoms: C_8  and  C_9
REMARK    5  A    between atoms: C_9  and  O_10
REMARK                            x       y       z     vdW  Elec       q    Type
REMARK                         _______ _______ _______ _____ _____    ______ ____
ROOT
ATOM      1  C   UNL     1       5.219  -2.016   1.959  0.00  0.00    +0.087 A 
ATOM      2  S   UNL     1       5.016  -3.705   1.934  0.00  0.00    -0.077 S 
ATOM      3  C   UNL     1       6.125  -3.956   3.187  0.00  0.00    +0.005 A 
ATOM      4  C   UNL     1       6.378  -5.353   3.663  0.00  0.00    +0.111 C 
ATOM      5  S   UNL     1       7.077  -5.382   5.340  0.00  0.00    -0.155 S 
ATOM      6  C   UNL     1       8.314  -4.063   5.113  0.00  0.00    +0.074 C 
ATOM      7  C   UNL     1       7.669  -2.716   4.775  0.00  0.00    +0.047 C 
ATOM      8  C   UNL     1       6.697  -2.772   3.617  0.00  0.00    -0.020 A 
ATOM      9  C   UNL     1       6.187  -1.623   2.877  0.00  0.00    +0.091 A 
ENDROOT
BRANCH   1  11
ATOM     10  C   UNL     1       3.346  -1.676   0.397  0.00  0.00    +0.326 C 
ATOM     11  N   UNL     1       4.484  -1.244   1.066  0.00  0.00    -0.270 N 
ATOM     12  H   UNL     1       4.764  -0.279   0.893  0.00  0.00    +0.156 HD
ATOM     13  O   UNL     1       2.736  -2.736   0.452  0.00  0.00    -0.263 OA
BRANCH  10  14
ATOM     14  C   UNL     1       2.718  -0.605  -0.497  0.00  0.00    +0.393 C 
ATOM     15  O   UNL     1       3.210   0.497  -0.633  0.00  0.00    -0.240 OA
BRANCH  14  16
ATOM     16  O   UNL     1       1.565  -1.050  -1.036  0.00  0.00    -0.474 OA
ATOM     17  H   UNL     1       1.413  -1.980  -0.733  0.00  0.00    +0.296 HD
ENDBRANCH  14  16
ENDBRANCH  10  14
ENDBRANCH   1  11
BRANCH   9  18
ATOM     18  C   UNL     1       6.626  -0.241   3.099  0.00  0.00    +0.339 C 
ATOM     19  O   UNL     1       7.769   0.066   3.398  0.00  0.00    -0.245 OA
BRANCH  18  20
ATOM     20  O   UNL     1       5.651   0.695   2.961  0.00  0.00    -0.477 OA
ATOM     21  H   UNL     1       4.758   0.306   2.989  0.00  0.00    +0.295 HD
ENDBRANCH  18  20
ENDBRANCH   9  18
TORSDOF 5
