REMARK  Name = 
REMARK  13 active torsions:
REMARK  status: ('A' for Active; 'I' for Inactive)
REMARK    1  A    between atoms: C_7  and  C_8
REMARK    2  A    between atoms: C_8  and  C_9
REMARK    3  A    between atoms: C_9  and  C_11
REMARK    4  A    between atoms: C_9  and  C_14
REMARK    5  A    between atoms: C_11  and  O_12
REMARK    6  A    between atoms: C_17  and  C_20
REMARK    7  A    between atoms: N_22  and  CA_23
REMARK    8  A    between atoms: CA_23  and  CB_25
REMARK    9  A    between atoms: CA_23  and  C_30
REMARK   10  A    between atoms: CB_25  and  CG_26
REMARK   11  A    between atoms: CG_26  and  CD_27
REMARK   12  A    between atoms: CD_27  and  OE1_28
REMARK   13  A    between atoms: C_30  and  O_31
REMARK                            x       y       z     vdW  Elec       q    Type
REMARK                         _______ _______ _______ _____ _____    ______ ____
ROOT
ATOM      1  C   UNK A   0      13.837   1.009   1.359  0.00  0.00    +0.132 C 
ENDROOT
BRANCH   1   2
ATOM      2  C   UNK A   0      14.587   0.276   0.251  0.00  0.00    -0.033 A 
ATOM      3  C   UNK A   0      14.661  -1.122   0.275  0.00  0.00    +0.005 A 
ATOM      4  C   UNK A   0      15.292  -1.830  -0.744  0.00  0.00    +0.013 A 
ATOM      5  C   UNK A   0      15.873  -1.158  -1.824  0.00  0.00    +0.037 A 
ATOM      6  C   UNK A   0      15.779   0.242  -1.876  0.00  0.00    +0.013 A 
ATOM      7  C   UNK A   0      15.135   0.956  -0.849  0.00  0.00    +0.005 A 
BRANCH   5   8
ATOM      8  C   UNK A   0      16.678  -1.891  -2.854  0.00  0.00    +0.245 C 
ATOM      9  N   GLU A   1      16.678  -3.270  -2.764  0.00  0.00    -0.298 N 
ATOM     10  H   GLU A   1      15.889  -3.737  -2.331  0.00  0.00    +0.150 HD
ATOM     11  O   UNK A   0      17.331  -1.285  -3.692  0.00  0.00    -0.270 OA
BRANCH   9  12
ATOM     12  CA  GLU A   1      17.585  -4.138  -3.537  0.00  0.00    +0.182 C 
BRANCH  12  13
ATOM     13  C   GLU A   1      18.051  -5.272  -2.602  0.00  0.00    +0.325 C 
ATOM     14  OXT GLU A   1      18.513  -6.342  -2.964  0.00  0.00    -0.249 OA
BRANCH  13  15
ATOM     15  O   GLU A   1      17.968  -4.932  -1.288  0.00  0.00    -0.479 OA
ATOM     16  H   GLU A   1      17.720  -3.988  -1.203  0.00  0.00    +0.295 HD
ENDBRANCH  13  15
ENDBRANCH  12  13
BRANCH  12  17
ATOM     17  CB  GLU A   1      16.922  -4.704  -4.795  0.00  0.00    +0.045 C 
BRANCH  17  18
ATOM     18  CG  GLU A   1      16.534  -3.607  -5.782  0.00  0.00    +0.123 C 
BRANCH  18  19
ATOM     19  CD  GLU A   1      15.883  -4.146  -7.030  0.00  0.00    +0.305 C 
ATOM     20  OE2 GLU A   1      15.649  -5.321  -7.256  0.00  0.00    -0.251 OA
BRANCH  19  21
ATOM     21  OE1 GLU A   1      15.551  -3.156  -7.892  0.00  0.00    -0.481 OA
ATOM     22  HE1 GLU A   1      15.798  -2.266  -7.574  0.00  0.00    +0.295 HD
ENDBRANCH  19  21
ENDBRANCH  18  19
ENDBRANCH  17  18
ENDBRANCH  12  17
ENDBRANCH   9  12
ENDBRANCH   5   8
ENDBRANCH   1   2
BRANCH   1  23
ATOM     23  C   UNK A   0      14.173   0.441   2.744  0.00  0.00    +0.313 C 
ATOM     24  O   UNK A   0      13.539  -0.440   3.307  0.00  0.00    -0.250 OA
BRANCH  23  25
ATOM     25  O   UNK A   0      15.309   0.947   3.278  0.00  0.00    -0.480 OA
ATOM     26  H   UNK A   0      15.767   1.603   2.721  0.00  0.00    +0.295 HD
ENDBRANCH  23  25
ENDBRANCH   1  23
BRANCH   1  27
ATOM     27  C   UNK A   0      12.324   0.889   1.082  0.00  0.00    +0.054 C 
BRANCH  27  40
ATOM     28  N   UNK A   0       7.935   5.864   5.199  0.00  0.00    -0.329 N 
ATOM     29  H   UNK A   0       7.672   6.766   4.825  0.00  0.00    +0.145 HD
ATOM     30  H   UNK A   0       7.136   5.312   5.496  0.00  0.00    +0.145 HD
ATOM     31  C   UNK A   0       8.808   5.133   4.467  0.00  0.00    +0.194 A 
ATOM     32  N   UNK A   0       9.753   5.830   3.775  0.00  0.00    -0.295 N 
ATOM     33  H   UNK A   0       9.816   6.829   3.875  0.00  0.00    +0.172 HD
ATOM     34  C   UNK A   0      10.715   5.238   2.996  0.00  0.00    +0.260 A 
ATOM     35  O   UNK A   0      11.578   5.888   2.416  0.00  0.00    -0.267 OA
ATOM     36  C   UNK A   0      10.641   3.776   2.906  0.00  0.00    +0.065 A 
ATOM     37  C   UNK A   0       9.644   3.137   3.644  0.00  0.00    +0.080 A 
ATOM     38  C   UNK A   0       9.561   1.746   3.573  0.00  0.00    +0.029 A 
ATOM     39  C   UNK A   0      10.443   1.021   2.764  0.00  0.00    +0.006 A 
ATOM     40  C   UNK A   0      11.431   1.674   2.011  0.00  0.00    -0.045 A 
ATOM     41  C   UNK A   0      11.531   3.065   2.094  0.00  0.00    +0.019 A 
ATOM     42  N   UNK A   0       8.721   3.842   4.433  0.00  0.00    -0.216 NA
ENDBRANCH  27  40
ENDBRANCH   1  27
TORSDOF 13
