REMARK  Name = 
REMARK  22 active torsions:
REMARK  status: ('A' for Active; 'I' for Inactive)
REMARK    1  A    between atoms: C_1  and  C_2
REMARK    2  A    between atoms: C_7  and  C_8
REMARK    3  A    between atoms: N_9  and  C_10
REMARK    4  A    between atoms: C_10  and  C_11
REMARK    5  A    between atoms: C_11  and  O_13
REMARK    6  A    between atoms: C_11  and  C_14
REMARK    7  A    between atoms: C_14  and  O_16
REMARK    8  A    between atoms: C_14  and  C_17
REMARK    9  A    between atoms: C_17  and  O_19
REMARK   10  A    between atoms: C_17  and  C_20
REMARK   11  A    between atoms: C_20  and  O_21
REMARK   12  A    between atoms: O_21  and  P_22
REMARK   13  A    between atoms: P_22  and  O_23
REMARK   14  A    between atoms: P_22  and  O_25
REMARK   15  A    between atoms: O_25  and  P_26
REMARK   16  A    between atoms: P_26  and  O_27
REMARK   17  A    between atoms: P_26  and  O_29
REMARK   18  A    between atoms: O_29  and  C_30
REMARK   19  A    between atoms: C_30  and  C_31
REMARK   20  A    between atoms: C_34  and  N_42
REMARK   21  A    between atoms: C_36  and  O_38
REMARK   22  A    between atoms: C_39  and  O_41
REMARK                            x       y       z     vdW  Elec       q    Type
REMARK                         _______ _______ _______ _____ _____    ______ ____
ROOT
ATOM      1  P   UNL     1       2.955  17.386  -4.045  0.00  0.00    +0.483 P 
ATOM      2  O   UNL     1       2.571  15.911  -4.039  0.00  0.00    -0.227 OA
ENDROOT
BRANCH   1   3
ATOM      3  O   UNL     1       4.573  16.877  -4.389  0.00  0.00    -0.302 OA
ATOM      4  H   UNL     1       4.427  16.059  -4.917  0.00  0.00    +0.222 HD
ENDBRANCH   1   3
BRANCH   1   5
ATOM      5  O   UNL     1       1.338  17.895  -3.700  0.00  0.00    -0.186 OA
BRANCH   5   6
ATOM      6  P   UNL     1       0.774  17.095  -2.273  0.00  0.00    +0.483 P 
ATOM      7  O   UNL     1      -0.572  16.815  -2.942  0.00  0.00    -0.227 OA
BRANCH   6   8
ATOM      8  O   UNL     1       0.620  18.544  -1.531  0.00  0.00    -0.302 OA
ATOM      9  H   UNL     1       1.356  18.837  -0.974  0.00  0.00    +0.222 HD
ENDBRANCH   6   8
BRANCH   6  10
ATOM     10  O   UNL     1       0.210  16.296  -0.847  0.00  0.00    -0.284 OA
BRANCH  10  11
ATOM     11  C   UNL     1       0.981  15.184  -0.430  0.00  0.00    +0.206 C 
BRANCH  11  12
ATOM     12  C   UNL     1       0.384  14.582   0.852  0.00  0.00    +0.178 C 
ATOM     13  C   UNL     1       0.237  15.595   1.989  0.00  0.00    +0.178 C 
ATOM     14  C   UNL     1      -1.229  16.025   1.967  0.00  0.00    +0.195 C 
ATOM     15  C   UNL     1      -1.845  15.201   0.828  0.00  0.00    +0.253 C 
ATOM     16  O   UNL     1      -0.950  14.089   0.606  0.00  0.00    -0.346 OA
BRANCH  15  17
ATOM     17  N   UNL     1      -3.171  14.712   1.155  0.00  0.00    -0.286 N 
ATOM     18  C   UNL     1      -4.244  15.521   1.419  0.00  0.00    +0.167 A 
ATOM     19  N   UNL     1      -4.268  16.866   1.443  0.00  0.00    -0.216 NA
ATOM     20  C   UNL     1      -5.509  17.309   1.743  0.00  0.00    +0.225 A 
ATOM     21  N   UNL     1      -6.613  16.586   2.028  0.00  0.00    -0.219 NA
ATOM     22  C   UNL     1      -6.528  15.236   1.987  0.00  0.00    +0.147 A 
ATOM     23  N   UNL     1      -7.664  14.495   2.280  0.00  0.00    -0.341 N 
ATOM     24  H   UNL     1      -7.462  13.540   2.555  0.00  0.00    +0.144 HD
ATOM     25  H   UNL     1      -8.331  15.016   2.833  0.00  0.00    +0.144 HD
ATOM     26  C   UNL     1      -5.290  14.652   1.675  0.00  0.00    +0.147 A 
ATOM     27  N   UNL     1      -4.868  13.340   1.586  0.00  0.00    -0.231 NA
ATOM     28  C   UNL     1      -3.596  13.416   1.246  0.00  0.00    +0.203 A 
ENDBRANCH  15  17
BRANCH  14  29
ATOM     29  O   UNL     1      -1.346  17.434   1.760  0.00  0.00    -0.385 OA
ATOM     30  H   UNL     1      -2.301  17.619   1.628  0.00  0.00    +0.210 HD
ENDBRANCH  14  29
BRANCH  13  31
ATOM     31  O   UNL     1       0.538  14.947   3.238  0.00  0.00    -0.386 OA
ATOM     32  H   UNL     1      -0.030  14.160   3.323  0.00  0.00    +0.210 HD
ENDBRANCH  13  31
ENDBRANCH  11  12
ENDBRANCH  10  11
ENDBRANCH   6  10
ENDBRANCH   5   6
ENDBRANCH   1   5
BRANCH   1  33
ATOM     33  O   UNL     1       2.905  17.974  -5.572  0.00  0.00    -0.284 OA
BRANCH  33  34
ATOM     34  C   UNL     1       3.285  19.330  -5.852  0.00  0.00    +0.206 C 
BRANCH  34  35
ATOM     35  C   UNL     1       4.692  19.729  -5.350  0.00  0.00    +0.172 C 
BRANCH  35  36
ATOM     36  O   UNL     1       5.695  18.904  -5.956  0.00  0.00    -0.387 OA
ATOM     37  H   UNL     1       5.408  17.978  -5.836  0.00  0.00    +0.210 HD
ENDBRANCH  35  36
BRANCH  35  38
ATOM     38  C   UNL     1       5.012  21.233  -5.616  0.00  0.00    +0.175 C 
BRANCH  38  39
ATOM     39  O   UNL     1       5.044  21.481  -7.026  0.00  0.00    -0.387 OA
ATOM     40  H   UNL     1       4.958  22.438  -7.182  0.00  0.00    +0.210 HD
ENDBRANCH  38  39
BRANCH  38  41
ATOM     41  C   UNL     1       6.351  21.647  -4.953  0.00  0.00    +0.165 C 
BRANCH  41  42
ATOM     42  O   UNL     1       6.481  21.167  -3.611  0.00  0.00    -0.387 OA
ATOM     43  H   UNL     1       7.115  20.424  -3.651  0.00  0.00    +0.210 HD
ENDBRANCH  41  42
BRANCH  41  44
ATOM     44  C   UNL     1       6.757  23.125  -5.062  0.00  0.00    +0.158 C 
BRANCH  44  51
ATOM     45  C   UNL     1       0.983  25.284  -2.004  0.00  0.00    +0.044 C 
ATOM     46  C   UNL     1       2.367  24.922  -2.468  0.00  0.00    -0.045 A 
ATOM     47  C   UNL     1       2.839  23.612  -2.626  0.00  0.00    -0.045 A 
ATOM     48  C   UNL     1       1.947  22.436  -2.314  0.00  0.00    +0.044 C 
ATOM     49  C   UNL     1       4.145  23.386  -3.165  0.00  0.00    +0.031 A 
ATOM     50  C   UNL     1       4.974  24.423  -3.627  0.00  0.00    +0.069 A 
ATOM     51  N   UNL     1       6.233  24.281  -4.255  0.00  0.00    -0.320 N 
ATOM     52  C   UNL     1       6.961  25.479  -4.504  0.00  0.00    +0.170 A 
ATOM     53  C   UNL     1       6.365  26.814  -4.136  0.00  0.00    +0.171 A 
ATOM     54  N   UNL     1       5.185  26.907  -3.622  0.00  0.00    -0.237 NA
ATOM     55  C   UNL     1       7.126  28.075  -4.424  0.00  0.00    +0.282 A 
ATOM     56  O   UNL     1       6.724  29.176  -4.103  0.00  0.00    -0.265 OA
ATOM     57  N   UNL     1       8.303  27.851  -5.065  0.00  0.00    -0.272 N 
ATOM     58  H   UNL     1       8.869  28.654  -5.285  0.00  0.00    +0.174 HD
ATOM     59  C   UNL     1       8.819  26.631  -5.380  0.00  0.00    +0.351 A 
ATOM     60  O   UNL     1       9.919  26.596  -5.920  0.00  0.00    -0.245 OA
ATOM     61  N   UNL     1       8.123  25.489  -5.097  0.00  0.00    -0.173 NA
ATOM     62  C   UNL     1       4.482  25.730  -3.364  0.00  0.00    +0.089 A 
ATOM     63  C   UNL     1       3.219  25.960  -2.811  0.00  0.00    +0.033 A 
ENDBRANCH  44  51
ENDBRANCH  41  44
ENDBRANCH  38  41
ENDBRANCH  35  38
ENDBRANCH  34  35
ENDBRANCH  33  34
ENDBRANCH   1  33
TORSDOF 20
