REMARK  Name = 
REMARK  73 active torsions:
REMARK  status: ('A' for Active; 'I' for Inactive)
REMARK    1  A    between atoms: N_1  and  C_2
REMARK    2  A    between atoms: C_2  and  C_3
REMARK    3  A    between atoms: C_2  and  C_70
REMARK    4  A    between atoms: C_3  and  O_4
REMARK    5  A    between atoms: O_4  and  C_5
REMARK    6  A    between atoms: N_7  and  C_8
REMARK    7  A    between atoms: C_8  and  C_9
REMARK    8  A    between atoms: C_9  and  C_10
REMARK    9  A    between atoms: C_10  and  O_11
REMARK   10  A    between atoms: O_11  and  C_12
REMARK   11  A    between atoms: C_12  and  C_13
REMARK   12  A    between atoms: C_13  and  O_14
REMARK   13  A    between atoms: O_14  and  C_15
REMARK   14  A    between atoms: C_15  and  C_16
REMARK   15  A    between atoms: C_16  and  O_17
REMARK   16  A    between atoms: O_17  and  C_18
REMARK   17  A    between atoms: C_18  and  C_19
REMARK   18  A    between atoms: C_19  and  C_20
REMARK   19  A    between atoms: C_20  and  N_21
REMARK   20  A    between atoms: N_21  and  C_22
REMARK   21  A    between atoms: C_23  and  N_24
REMARK   22  A    between atoms: N_24  and  C_25
REMARK   23  A    between atoms: C_25  and  C_26
REMARK   24  A    between atoms: C_26  and  C_27
REMARK   25  A    between atoms: C_27  and  N_28
REMARK   26  A    between atoms: N_31  and  C_32
REMARK   27  A    between atoms: C_32  and  C_33
REMARK   28  A    between atoms: C_33  and  C_34
REMARK   29  A    between atoms: C_34  and  N_35
REMARK   30  A    between atoms: C_36  and  C_38
REMARK   31  A    between atoms: C_40  and  O_41
REMARK   32  A    between atoms: O_41  and  C_42
REMARK   33  A    between atoms: C_45  and  C_47
REMARK   34  A    between atoms: C_47  and  O_48
REMARK   35  A    between atoms: C_49  and  O_51
REMARK   36  A    between atoms: C_52  and  O_54
REMARK   37  A    between atoms: C_55  and  O_57
REMARK   38  A    between atoms: C_59  and  N_61
REMARK   39  A    between atoms: C_70  and  O_71
REMARK   40  A    between atoms: O_71  and  C_72
REMARK   41  A    between atoms: N_74  and  C_75
REMARK   42  A    between atoms: C_75  and  C_76
REMARK   43  A    between atoms: C_76  and  C_77
REMARK   44  A    between atoms: C_77  and  O_78
REMARK   45  A    between atoms: O_78  and  C_79
REMARK   46  A    between atoms: C_79  and  C_80
REMARK   47  A    between atoms: C_80  and  O_81
REMARK   48  A    between atoms: O_81  and  C_82
REMARK   49  A    between atoms: C_82  and  C_83
REMARK   50  A    between atoms: C_83  and  O_84
REMARK   51  A    between atoms: O_84  and  C_85
REMARK   52  A    between atoms: C_85  and  C_86
REMARK   53  A    between atoms: C_86  and  C_87
REMARK   54  A    between atoms: C_87  and  N_88
REMARK   55  A    between atoms: N_88  and  C_89
REMARK   56  A    between atoms: C_90  and  N_91
REMARK   57  A    between atoms: N_91  and  C_92
REMARK   58  A    between atoms: C_92  and  C_93
REMARK   59  A    between atoms: C_93  and  C_94
REMARK   60  A    between atoms: C_94  and  N_95
REMARK   61  A    between atoms: N_98  and  C_99
REMARK   62  A    between atoms: C_99  and  C_100
REMARK   63  A    between atoms: C_100  and  C_101
REMARK   64  A    between atoms: C_101  and  N_102
REMARK   65  A    between atoms: C_103  and  C_105
REMARK   66  A    between atoms: C_107  and  O_108
REMARK   67  A    between atoms: O_108  and  C_109
REMARK   68  A    between atoms: C_112  and  C_114
REMARK   69  A    between atoms: C_114  and  O_115
REMARK   70  A    between atoms: C_116  and  O_118
REMARK   71  A    between atoms: C_119  and  O_121
REMARK   72  A    between atoms: C_122  and  O_124
REMARK   73  A    between atoms: C_126  and  N_128
REMARK                            x       y       z     vdW  Elec       q    Type
REMARK                         _______ _______ _______ _____ _____    ______ ____
ROOT
ATOM      1  C   UNL     1      40.990  -1.657 -15.109  0.00  0.00    +0.127 C 
ENDROOT
BRANCH   1   2
ATOM      2  N   UNL     1      41.248  -1.112 -16.487  0.00  0.00    -0.322 NA
ATOM      3  H   UNL     1      40.519  -0.446 -16.739  0.00  0.00    +0.119 HD
ATOM      4  H   UNL     1      42.064  -0.497 -16.447  0.00  0.00    +0.119 HD
ENDBRANCH   1   2
BRANCH   1   5
ATOM      5  C   UNL     1      39.452  -1.890 -14.971  0.00  0.00    +0.255 C 
BRANCH   5   6
ATOM      6  O   UNL     1      38.944  -1.897 -13.598  0.00  0.00    -0.449 OA
BRANCH   6   7
ATOM      7  C   UNL     1      39.392  -2.994 -12.916  0.00  0.00    +0.400 C 
ATOM      8  N   UNL     1      39.151  -2.935 -11.540  0.00  0.00    -0.281 N 
ATOM      9  H   UNL     1      38.294  -2.440 -11.359  0.00  0.00    +0.152 HD
ATOM     10  O   UNL     1      39.957  -3.845 -13.571  0.00  0.00    -0.226 OA
BRANCH   8  11
ATOM     11  C   UNL     1      39.750  -3.671 -10.358  0.00  0.00    +0.110 C 
BRANCH  11  12
ATOM     12  C   UNL     1      41.090  -3.315  -9.671  0.00  0.00    +0.047 C 
BRANCH  12  13
ATOM     13  C   UNL     1      42.172  -2.841 -10.575  0.00  0.00    +0.161 C 
BRANCH  13  14
ATOM     14  O   UNL     1      41.627  -1.985 -11.579  0.00  0.00    -0.377 OA
BRANCH  14  15
ATOM     15  C   UNL     1      41.235  -0.682 -11.192  0.00  0.00    +0.188 C 
BRANCH  15  16
ATOM     16  C   UNL     1      42.287   0.517 -11.177  0.00  0.00    +0.188 C 
BRANCH  16  17
ATOM     17  O   UNL     1      43.333   0.969 -12.105  0.00  0.00    -0.375 OA
BRANCH  17  18
ATOM     18  C   UNL     1      43.202   1.610 -13.408  0.00  0.00    +0.188 C 
BRANCH  18  19
ATOM     19  C   UNL     1      44.247   1.154 -14.767  0.00  0.00    +0.188 C 
BRANCH  19  20
ATOM     20  O   UNL     1      44.925  -0.177 -15.102  0.00  0.00    -0.377 OA
BRANCH  20  21
ATOM     21  C   UNL     1      44.266  -1.214 -15.889  0.00  0.00    +0.161 C 
BRANCH  21  22
ATOM     22  C   UNL     1      44.655  -2.745 -15.972  0.00  0.00    +0.047 C 
BRANCH  22  23
ATOM     23  C   UNL     1      45.011  -3.650 -14.764  0.00  0.00    +0.104 C 
BRANCH  23  24
ATOM     24  N   UNL     1      43.897  -4.223 -13.934  0.00  0.00    -0.339 N 
ATOM     25  H   UNL     1      43.452  -3.497 -13.348  0.00  0.00    +0.146 HD
BRANCH  24  26
ATOM     26  C   UNL     1      43.926  -5.454 -13.395  0.00  0.00    +0.103 C 
ATOM     27  C   UNL     1      44.786  -6.594 -13.753  0.00  0.00    +0.250 C 
ATOM     28  O   UNL     1      45.638  -6.862 -14.562  0.00  0.00    -0.282 OA
ATOM     29  C   UNL     1      43.995  -7.445 -12.851  0.00  0.00    +0.250 C 
ATOM     30  O   UNL     1      43.921  -8.631 -12.756  0.00  0.00    -0.282 OA
ATOM     31  C   UNL     1      43.260  -6.243 -12.452  0.00  0.00    +0.103 C 
BRANCH  31  32
ATOM     32  N   UNL     1      42.162  -6.248 -11.716  0.00  0.00    -0.339 N 
ATOM     33  H   UNL     1      42.234  -5.928 -10.746  0.00  0.00    +0.146 HD
BRANCH  32  34
ATOM     34  C   UNL     1      41.071  -5.569 -12.380  0.00  0.00    +0.103 C 
BRANCH  34  35
ATOM     35  C   UNL     1      39.709  -6.239 -12.414  0.00  0.00    +0.034 C 
BRANCH  35  36
ATOM     36  C   UNL     1      39.214  -6.969 -11.185  0.00  0.00    +0.086 C 
BRANCH  36  37
ATOM     37  N   UNL     1      37.945  -7.654 -11.465  0.00  0.00    -0.300 NA
ATOM     38  C   UNL     1      37.489  -8.304 -10.215  0.00  0.00    +0.100 C 
ATOM     39  C   UNL     1      38.267  -9.596  -9.868  0.00  0.00    +0.100 C 
ATOM     40  N   UNL     1      38.299 -10.568 -10.980  0.00  0.00    -0.300 NA
ATOM     41  C   UNL     1      38.890  -9.889 -12.154  0.00  0.00    +0.100 C 
ATOM     42  C   UNL     1      38.096  -8.637 -12.560  0.00  0.00    +0.100 C 
BRANCH  40  43
ATOM     43  C   UNL     1      36.932 -11.054 -11.252  0.00  0.00    +0.086 C 
BRANCH  43  44
ATOM     44  C   UNL     1      36.878 -12.085 -12.365  0.00  0.00    +0.034 C 
BRANCH  44  45
ATOM     45  C   UNL     1      37.772 -13.269 -12.044  0.00  0.00    +0.106 C 
BRANCH  45  46
ATOM     46  N   UNL     1      37.736 -14.206 -13.133  0.00  0.00    -0.311 N 
ATOM     47  H   UNL     1      38.245 -13.920 -13.959  0.00  0.00    +0.149 HD
ATOM     48  C   UNL     1      36.744 -15.156 -13.244  0.00  0.00    +0.244 C 
ATOM     49  O   UNL     1      35.872 -15.359 -12.411  0.00  0.00    -0.270 OA
BRANCH  48  50
ATOM     50  C   UNL     1      36.764 -15.900 -14.525  0.00  0.00    +0.047 A 
ATOM     51  C   UNL     1      35.583 -16.397 -15.069  0.00  0.00    +0.097 A 
ATOM     52  C   UNL     1      35.633 -16.982 -16.338  0.00  0.00    +0.277 A 
ATOM     53  C   UNL     1      36.835 -17.033 -17.066  0.00  0.00    +0.130 A 
ATOM     54  C   UNL     1      38.017 -16.563 -16.495  0.00  0.00    +0.131 A 
ATOM     55  C   UNL     1      37.976 -16.044 -15.209  0.00  0.00    +0.059 A 
BRANCH  52  56
ATOM     56  N   UNL     1      34.409 -17.543 -16.921  0.00  0.00    +0.080 N 
ATOM     57  O   UNL     1      33.370 -17.477 -16.251  0.00  0.00    +0.041 OA
ATOM     58  O   UNL     1      34.489 -18.053 -18.047  0.00  0.00    -0.576 OA
ENDBRANCH  52  56
BRANCH  54  59
ATOM     59  O   UNL     1      39.134 -16.613 -17.278  0.00  0.00    -0.461 OA
BRANCH  59  60
ATOM     60  C   UNL     1      40.438 -16.567 -16.665  0.00  0.00    +0.339 C 
ATOM     61  C   UNL     1      40.949 -15.124 -16.394  0.00  0.00    +0.214 C 
ATOM     62  C   UNL     1      42.334 -15.187 -15.718  0.00  0.00    +0.180 C 
ATOM     63  C   UNL     1      42.337 -16.149 -14.520  0.00  0.00    +0.177 C 
ATOM     64  C   UNL     1      41.815 -17.520 -14.956  0.00  0.00    +0.179 C 
ATOM     65  O   UNL     1      40.500 -17.404 -15.506  0.00  0.00    -0.331 OA
BRANCH  61  66
ATOM     66  O   UNL     1      40.980 -14.363 -17.611  0.00  0.00    -0.383 OA
ATOM     67  H   UNL     1      41.864 -14.426 -18.008  0.00  0.00    +0.210 HD
ENDBRANCH  61  66
BRANCH  62  68
ATOM     68  O   UNL     1      42.730 -13.882 -15.280  0.00  0.00    -0.386 OA
ATOM     69  H   UNL     1      43.456 -14.003 -14.634  0.00  0.00    +0.210 HD
ENDBRANCH  62  68
BRANCH  63  70
ATOM     70  O   UNL     1      43.659 -16.215 -13.979  0.00  0.00    -0.386 OA
ATOM     71  H   UNL     1      44.216 -16.782 -14.542  0.00  0.00    +0.210 HD
ENDBRANCH  63  70
BRANCH  64  72
ATOM     72  C   UNL     1      41.721 -18.498 -13.782  0.00  0.00    +0.190 C 
BRANCH  72  73
ATOM     73  O   UNL     1      41.205 -19.745 -14.251  0.00  0.00    -0.392 OA
ATOM     74  H   UNL     1      40.348 -19.539 -14.673  0.00  0.00    +0.210 HD
ENDBRANCH  72  73
ENDBRANCH  64  72
ENDBRANCH  59  60
ENDBRANCH  54  59
ENDBRANCH  48  50
ENDBRANCH  45  46
ENDBRANCH  44  45
ENDBRANCH  43  44
ENDBRANCH  40  43
ENDBRANCH  36  37
ENDBRANCH  35  36
ENDBRANCH  34  35
ENDBRANCH  32  34
ENDBRANCH  31  32
ENDBRANCH  24  26
ENDBRANCH  23  24
ENDBRANCH  22  23
ENDBRANCH  21  22
ENDBRANCH  20  21
ENDBRANCH  19  20
ENDBRANCH  18  19
ENDBRANCH  17  18
ENDBRANCH  16  17
ENDBRANCH  15  16
ENDBRANCH  14  15
ENDBRANCH  13  14
ENDBRANCH  12  13
ENDBRANCH  11  12
ENDBRANCH   8  11
ENDBRANCH   6   7
ENDBRANCH   5   6
ENDBRANCH   1   5
BRANCH   1  75
ATOM     75  C   UNL     1      41.533  -0.651 -14.115  0.00  0.00    +0.255 C 
BRANCH  75  76
ATOM     76  O   UNL     1      42.980  -0.730 -13.665  0.00  0.00    -0.449 OA
BRANCH  76  77
ATOM     77  C   UNL     1      43.907  -1.380 -12.895  0.00  0.00    +0.400 C 
ATOM     78  N   UNL     1      45.204  -0.867 -12.813  0.00  0.00    -0.281 N 
ATOM     79  H   UNL     1      45.485  -0.330 -13.627  0.00  0.00    +0.152 HD
ATOM     80  O   UNL     1      43.726  -2.434 -12.330  0.00  0.00    -0.226 OA
BRANCH  78  81
ATOM     81  C   UNL     1      46.237  -1.661 -12.164  0.00  0.00    +0.110 C 
BRANCH  81  82
ATOM     82  C   UNL     1      47.116  -0.910 -11.191  0.00  0.00    +0.047 C 
BRANCH  82  83
ATOM     83  C   UNL     1      46.349  -0.188 -10.099  0.00  0.00    +0.161 C 
BRANCH  83  84
ATOM     84  O   UNL     1      45.560  -1.090  -9.316  0.00  0.00    -0.377 OA
BRANCH  84  85
ATOM     85  C   UNL     1      44.903  -0.372  -8.268  0.00  0.00    +0.188 C 
BRANCH  85  86
ATOM     86  C   UNL     1      43.959  -1.270  -7.470  0.00  0.00    +0.188 C 
BRANCH  86  87
ATOM     87  O   UNL     1      43.302  -0.596  -6.395  0.00  0.00    -0.375 OA
BRANCH  87  88
ATOM     88  C   UNL     1      42.429   0.483  -6.748  0.00  0.00    +0.188 C 
BRANCH  88  89
ATOM     89  C   UNL     1      41.248   0.091  -7.636  0.00  0.00    +0.188 C 
BRANCH  89  90
ATOM     90  O   UNL     1      40.368  -0.843  -7.000  0.00  0.00    -0.377 OA
BRANCH  90  91
ATOM     91  C   UNL     1      39.211  -1.111  -7.789  0.00  0.00    +0.161 C 
BRANCH  91  92
ATOM     92  C   UNL     1      38.371  -2.226  -7.173  0.00  0.00    +0.047 C 
BRANCH  92  93
ATOM     93  C   UNL     1      37.203  -2.536  -8.101  0.00  0.00    +0.104 C 
BRANCH  93  94
ATOM     94  N   UNL     1      36.265  -3.477  -7.511  0.00  0.00    -0.339 N 
ATOM     95  H   UNL     1      36.599  -4.444  -7.491  0.00  0.00    +0.146 HD
BRANCH  94  96
ATOM     96  C   UNL     1      34.968  -3.253  -7.584  0.00  0.00    +0.103 C 
ATOM     97  C   UNL     1      34.244  -2.080  -8.149  0.00  0.00    +0.250 C 
ATOM     98  O   UNL     1      34.493  -1.019  -8.668  0.00  0.00    -0.282 OA
ATOM     99  C   UNL     1      32.985  -2.801  -7.890  0.00  0.00    +0.250 C 
ATOM    100  O   UNL     1      31.831  -2.527  -8.088  0.00  0.00    -0.282 OA
ATOM    101  C   UNL     1      33.788  -3.863  -7.237  0.00  0.00    +0.103 C 
BRANCH 101 102
ATOM    102  N   UNL     1      33.352  -4.948  -6.622  0.00  0.00    -0.339 N 
ATOM    103  H   UNL     1      32.364  -5.181  -6.763  0.00  0.00    +0.146 HD
BRANCH 102 104
ATOM    104  C   UNL     1      33.696  -5.160  -5.211  0.00  0.00    +0.103 C 
BRANCH 104 105
ATOM    105  C   UNL     1      33.482  -6.617  -4.826  0.00  0.00    +0.034 C 
BRANCH 105 106
ATOM    106  C   UNL     1      34.392  -7.545  -5.637  0.00  0.00    +0.086 C 
BRANCH 106 107
ATOM    107  N   UNL     1      34.276  -8.965  -5.253  0.00  0.00    -0.300 NA
ATOM    108  C   UNL     1      35.212  -9.783  -6.066  0.00  0.00    +0.100 C 
ATOM    109  C   UNL     1      34.779 -10.005  -7.540  0.00  0.00    +0.100 C 
ATOM    110  N   UNL     1      33.396 -10.497  -7.708  0.00  0.00    -0.300 NA
ATOM    111  C   UNL     1      32.491  -9.623  -6.927  0.00  0.00    +0.100 C 
ATOM    112  C   UNL     1      32.906  -9.493  -5.444  0.00  0.00    +0.100 C 
BRANCH 110 113
ATOM    113  C   UNL     1      33.286 -11.914  -7.316  0.00  0.00    +0.086 C 
BRANCH 113 114
ATOM    114  C   UNL     1      31.893 -12.507  -7.542  0.00  0.00    +0.034 C 
BRANCH 114 115
ATOM    115  C   UNL     1      31.472 -12.415  -9.003  0.00  0.00    +0.106 C 
BRANCH 115 116
ATOM    116  N   UNL     1      30.106 -12.865  -9.175  0.00  0.00    -0.311 N 
ATOM    117  H   UNL     1      29.953 -13.818  -9.475  0.00  0.00    +0.149 HD
ATOM    118  C   UNL     1      29.067 -11.977  -9.016  0.00  0.00    +0.244 C 
ATOM    119  O   UNL     1      29.212 -10.800  -8.705  0.00  0.00    -0.270 OA
BRANCH 118 120
ATOM    120  C   UNL     1      27.706 -12.480  -9.307  0.00  0.00    +0.047 A 
ATOM    121  C   UNL     1      27.312 -13.798  -9.072  0.00  0.00    +0.097 A 
ATOM    122  C   UNL     1      25.994 -14.170  -9.377  0.00  0.00    +0.277 A 
ATOM    123  C   UNL     1      25.092 -13.250  -9.936  0.00  0.00    +0.130 A 
ATOM    124  C   UNL     1      25.506 -11.941 -10.180  0.00  0.00    +0.131 A 
ATOM    125  C   UNL     1      26.796 -11.554  -9.829  0.00  0.00    +0.059 A 
BRANCH 122 126
ATOM    126  N   UNL     1      25.553 -15.542  -9.099  0.00  0.00    +0.080 N 
ATOM    127  O   UNL     1      26.378 -16.317  -8.593  0.00  0.00    +0.041 OA
ATOM    128  O   UNL     1      24.387 -15.844  -9.383  0.00  0.00    -0.576 OA
ENDBRANCH 122 126
BRANCH 124 129
ATOM    129  O   UNL     1      24.586 -11.099 -10.744  0.00  0.00    -0.461 OA
BRANCH 129 130
ATOM    130  C   UNL     1      25.135 -10.045 -11.555  0.00  0.00    +0.339 C 
ATOM    131  C   UNL     1      24.159  -9.746 -12.713  0.00  0.00    +0.214 C 
ATOM    132  C   UNL     1      24.751  -8.608 -13.560  0.00  0.00    +0.180 C 
ATOM    133  C   UNL     1      25.092  -7.391 -12.691  0.00  0.00    +0.177 C 
ATOM    134  C   UNL     1      25.982  -7.813 -11.515  0.00  0.00    +0.179 C 
ATOM    135  O   UNL     1      25.361  -8.869 -10.765  0.00  0.00    -0.331 OA
BRANCH 133 136
ATOM    136  O   UNL     1      25.716  -6.400 -13.517  0.00  0.00    -0.386 OA
ATOM    137  H   UNL     1      26.635  -6.663 -13.701  0.00  0.00    +0.210 HD
ENDBRANCH 133 136
BRANCH 132 138
ATOM    138  O   UNL     1      23.850  -8.216 -14.600  0.00  0.00    -0.386 OA
ATOM    139  H   UNL     1      24.167  -7.351 -14.929  0.00  0.00    +0.210 HD
ENDBRANCH 132 138
BRANCH 131 140
ATOM    140  O   UNL     1      23.944 -10.923 -13.511  0.00  0.00    -0.383 OA
ATOM    141  H   UNL     1      24.722 -11.076 -14.072  0.00  0.00    +0.210 HD
ENDBRANCH 131 140
BRANCH 134 142
ATOM    142  C   UNL     1      26.243  -6.636 -10.568  0.00  0.00    +0.190 C 
BRANCH 142 143
ATOM    143  O   UNL     1      27.157  -7.031  -9.546  0.00  0.00    -0.392 OA
ATOM    144  H   UNL     1      26.759  -7.801  -9.098  0.00  0.00    +0.210 HD
ENDBRANCH 142 143
ENDBRANCH 134 142
ENDBRANCH 129 130
ENDBRANCH 124 129
ENDBRANCH 118 120
ENDBRANCH 115 116
ENDBRANCH 114 115
ENDBRANCH 113 114
ENDBRANCH 110 113
ENDBRANCH 106 107
ENDBRANCH 105 106
ENDBRANCH 104 105
ENDBRANCH 102 104
ENDBRANCH 101 102
ENDBRANCH  94  96
ENDBRANCH  93  94
ENDBRANCH  92  93
ENDBRANCH  91  92
ENDBRANCH  90  91
ENDBRANCH  89  90
ENDBRANCH  88  89
ENDBRANCH  87  88
ENDBRANCH  86  87
ENDBRANCH  85  86
ENDBRANCH  84  85
ENDBRANCH  83  84
ENDBRANCH  82  83
ENDBRANCH  81  82
ENDBRANCH  78  81
ENDBRANCH  76  77
ENDBRANCH  75  76
ENDBRANCH   1  75
TORSDOF 73
