REMARK  Name = 
REMARK  2 active torsions:
REMARK  status: ('A' for Active; 'I' for Inactive)
REMARK    1  A    between atoms: C_9  and  C_10
REMARK    2  A    between atoms: C_10  and  C_11
REMARK                            x       y       z     vdW  Elec       q    Type
REMARK                         _______ _______ _______ _____ _____    ______ ____
ROOT
ATOM      1  N   UNL     1       1.178  -0.042  -0.343  0.00  0.00    -0.329 N 
ATOM      2  H   UNL     1       0.782   0.681   0.245  0.00  0.00    +0.145 HD
ATOM      3  H   UNL     1       0.776  -0.946  -0.107  0.00  0.00    +0.145 HD
ATOM      4  C   UNL     1       2.535  -0.109  -0.287  0.00  0.00    +0.194 A 
ATOM      5  N   UNL     1       3.123   1.128  -0.345  0.00  0.00    -0.326 N 
ATOM      6  H   UNL     1       2.556   1.939  -0.545  0.00  0.00    +0.169 HD
ATOM      7  C   UNL     1       4.451   1.151  -0.173  0.00  0.00    +0.076 A 
ATOM      8  C   UNL     1       5.363   2.223  -0.003  0.00  0.00    -0.002 A 
ATOM      9  C   UNL     1       6.606   1.616   0.142  0.00  0.00    +0.089 A 
ATOM     10  N   UNL     1       6.445   0.250   0.111  0.00  0.00    -0.355 N 
ATOM     11  H   UNL     1       7.170  -0.447   0.209  0.00  0.00    +0.166 HD
ATOM     12  C   UNL     1       5.119  -0.034  -0.045  0.00  0.00    +0.130 A 
ATOM     13  C   UNL     1       4.488  -1.325  -0.070  0.00  0.00    +0.299 A 
ATOM     14  O   UNL     1       5.121  -2.370   0.016  0.00  0.00    -0.263 OA
ATOM     15  N   UNL     1       3.108  -1.268  -0.164  0.00  0.00    -0.176 NA
ENDROOT
BRANCH   8  16
ATOM     16  C   UNL     1       5.108   3.697   0.038  0.00  0.00    +0.075 C 
BRANCH  16  17
ATOM     17  C   UNL     1       4.117   4.022   1.132  0.00  0.00    -0.025 A 
ATOM     18  C   UNL     1       3.357   5.196   1.032  0.00  0.00    +0.007 A 
ATOM     19  C   UNL     1       2.409   5.506   2.004  0.00  0.00    +0.020 A 
ATOM     20  C   UNL     1       2.253   4.636   3.067  0.00  0.00    +0.111 A 
ATOM     21  N   UNL     1       3.002   3.530   3.238  0.00  0.00    -0.263 NA
ATOM     22  C   UNL     1       3.930   3.264   2.288  0.00  0.00    +0.114 A 
ENDBRANCH  16  17
ENDBRANCH   8  16
TORSDOF 2
