REMARK  Name = 
REMARK  9 active torsions:
REMARK  status: ('A' for Active; 'I' for Inactive)
REMARK    1  A    between atoms: C_1  and  O_2
REMARK    2  A    between atoms: O_2  and  C_3
REMARK    3  A    between atoms: C_4  and  C_21
REMARK    4  A    between atoms: C_9  and  C_10
REMARK    5  A    between atoms: C_10  and  N_12
REMARK    6  A    between atoms: N_12  and  C_13
REMARK    7  A    between atoms: N_12  and  C_14
REMARK    8  A    between atoms: C_14  and  C_15
REMARK    9  A    between atoms: C_15  and  O_16
REMARK                            x       y       z     vdW  Elec       q    Type
REMARK                         _______ _______ _______ _____ _____    ______ ____
ROOT
ATOM      1  C   UNL     1       2.836  -0.623   0.926  0.00  0.00    +0.132 A 
ATOM      2  C   UNL     1       3.604  -0.176   1.991  0.00  0.00    +0.047 A 
ATOM      3  C   UNL     1       4.144  -1.076   2.921  0.00  0.00    +0.013 A 
ATOM      4  C   UNL     1       4.030  -2.483   2.811  0.00  0.00    -0.008 A 
ATOM      5  C   UNL     1       3.209  -2.924   1.712  0.00  0.00    -0.002 A 
ATOM      6  C   UNL     1       3.009  -4.306   1.561  0.00  0.00    +0.009 A 
ATOM      7  C   UNL     1       3.715  -5.233   2.309  0.00  0.00    +0.001 A 
ATOM      8  C   UNL     1       4.610  -4.803   3.278  0.00  0.00    +0.011 A 
ATOM      9  C   UNL     1       4.696  -3.465   3.666  0.00  0.00    +0.011 A 
ATOM     10  C   UNL     1       2.626  -1.998   0.771  0.00  0.00    +0.104 A 
ENDROOT
BRANCH  10  11
ATOM     11  C   UNL     1       1.819  -2.514  -0.414  0.00  0.00    +0.421 C 
ATOM     12  F   UNL     1       0.710  -3.210  -0.016  0.00  0.00    -0.166 F 
ATOM     13  F   UNL     1       2.535  -3.390  -1.185  0.00  0.00    -0.166 F 
ATOM     14  F   UNL     1       1.346  -1.588  -1.295  0.00  0.00    -0.166 F 
ENDBRANCH  10  11
BRANCH   1  16
ATOM     15  C   UNL     1       1.978   1.534   0.420  0.00  0.00    +0.277 C 
ATOM     16  O   UNL     1       2.326   0.224  -0.019  0.00  0.00    -0.495 OA
ENDBRANCH   1  16
BRANCH   9  17
ATOM     17  C   UNL     1       5.576  -3.140   4.908  0.00  0.00    +0.083 C 
ATOM     18  S   UNL     1       6.754  -1.919   4.821  0.00  0.00    -0.035 S 
BRANCH  17  19
ATOM     19  N   UNL     1       5.444  -3.873   6.136  0.00  0.00    -0.316 N 
ATOM     20  C   UNL     1       5.385  -5.337   6.265  0.00  0.00    +0.130 C 
BRANCH  19  21
ATOM     21  C   UNL     1       5.564  -3.215   7.474  0.00  0.00    +0.225 C 
BRANCH  21  22
ATOM     22  C   UNL     1       6.896  -3.189   8.234  0.00  0.00    +0.322 C 
ATOM     23  O   UNL     1       6.957  -3.206   9.462  0.00  0.00    -0.249 OA
BRANCH  22  24
ATOM     24  O   UNL     1       8.002  -3.036   7.473  0.00  0.00    -0.480 OA
ATOM     25  H   UNL     1       7.769  -2.849   6.536  0.00  0.00    +0.295 HD
ENDBRANCH  22  24
ENDBRANCH  21  22
ENDBRANCH  19  21
ENDBRANCH  17  19
ENDBRANCH   9  17
TORSDOF 7
