REMARK  Name = 
REMARK  33 active torsions:
REMARK  status: ('A' for Active; 'I' for Inactive)
REMARK    1  A    between atoms: C_1  and  C_2
REMARK    2  A    between atoms: C_2  and  C_3
REMARK    3  A    between atoms: C_4  and  C_5
REMARK    4  A    between atoms: C_9  and  C_10
REMARK    5  A    between atoms: C_12  and  C_13
REMARK    6  A    between atoms: C_17  and  C_19
REMARK    7  A    between atoms: C_20  and  C_22
REMARK    8  A    between atoms: C_22  and  C_23
REMARK    9  A    between atoms: C_23  and  C_24
REMARK   10  A    between atoms: C_24  and  O_26
REMARK   11  A    between atoms: O_26  and  C_27
REMARK   12  A    between atoms: C_27  and  C_28
REMARK   13  A    between atoms: C_29  and  C_30
REMARK   14  A    between atoms: C_29  and  C_31
REMARK   15  A    between atoms: C_31  and  C_32
REMARK   16  A    between atoms: C_32  and  C_33
REMARK   17  A    between atoms: C_33  and  C_34
REMARK   18  A    between atoms: C_34  and  C_36
REMARK   19  A    between atoms: C_34  and  C_37
REMARK   20  A    between atoms: C_37  and  C_38
REMARK   21  A    between atoms: C_38  and  C_39
REMARK   22  A    between atoms: C_39  and  C_40
REMARK   23  A    between atoms: C_40  and  C_42
REMARK   24  A    between atoms: C_40  and  C_43
REMARK   25  A    between atoms: C_43  and  C_44
REMARK   26  A    between atoms: C_44  and  C_45
REMARK   27  A    between atoms: C_45  and  C_46
REMARK   28  A    between atoms: C_46  and  C_47
REMARK   29  A    between atoms: C_46  and  C_48
REMARK   30  A    between atoms: C_58  and  C_59
REMARK   31  A    between atoms: C_63  and  C_65
REMARK   32  A    between atoms: C_65  and  O_67
REMARK   33  A    between atoms: O_67  and  C_68
REMARK                            x       y       z     vdW  Elec       q    Type
REMARK                         _______ _______ _______ _____ _____    ______ ____
ROOT
ATOM      1  C   UNL     1     -17.407   0.418  -3.041  0.00  0.00    +0.000 C 
ATOM      2  C   UNL     1     -17.383   0.524  -6.013  0.00  0.00    +0.000 C 
ATOM      3  N   UNL     1     -18.515   0.107  -6.312  0.00  0.00    +1.000 N 
ATOM      4 MG   UNL     1     -20.559  -0.844 -11.048  0.00  0.00    +0.000 Mg
ATOM      5  N   UNL     1     -18.986  -0.333 -12.297  0.00  0.00    +0.000 N 
ATOM      6  C   UNL     1     -19.502  -1.371 -13.679  0.00  0.00    +0.000 A 
ATOM      7  C   UNL     1     -18.964  -1.914 -15.268  0.00  0.00    +0.000 A 
ATOM      8  C   UNL     1     -18.250  -3.069 -15.487  0.00  0.00    +0.000 C 
ATOM      9  C   UNL     1     -17.821  -3.216 -14.046  0.00  0.00    +0.000 C 
ATOM     10  O   UNL     1     -17.696  -3.396 -16.672  0.00  0.00    +0.000 OA
ATOM     11  C   UNL     1     -18.214  -1.151 -15.543  0.00  0.00    +0.000 A 
ATOM     12  C   UNL     1     -19.112  -1.159 -18.167  0.00  0.00    +0.000 C 
ATOM     13  C   UNL     1     -19.421  -2.514 -13.078  0.00  0.00    +0.000 C 
ATOM     14  C   UNL     1     -19.884  -2.052 -11.131  0.00  0.00    +0.000 C 
ATOM     15  C   UNL     1     -18.736  -1.022 -10.366  0.00  0.00    +0.000 C 
ATOM     16  C   UNL     1     -19.883   0.689 -10.063  0.00  0.00    +0.000 C 
ATOM     17  C   UNL     1     -20.030   1.739 -11.248  0.00  0.00    +0.000 C 
ATOM     18  C   UNL     1     -20.892  -0.335  -9.554  0.00  0.00    +0.000 C 
ATOM     19  C   UNL     1     -21.413   0.467  -8.480  0.00  0.00    +0.000 C 
ATOM     20  C   UNL     1     -20.563   0.622  -7.407  0.00  0.00    +0.000 A 
ATOM     21  C   UNL     1     -20.883   1.300  -6.228  0.00  0.00    +0.000 A 
ATOM     22  C   UNL     1     -21.688   2.463  -6.148  0.00  0.00    +0.000 C 
ATOM     23  C   UNL     1     -20.772   0.469  -5.159  0.00  0.00    +0.000 A 
ATOM     24  C   UNL     1     -20.362  -0.947  -5.894  0.00  0.00    +0.000 A 
ATOM     25  C   UNL     1     -19.311  -1.567  -4.696  0.00  0.00    +0.000 C 
ATOM     26  C   UNL     1     -17.674  -0.581 -12.491  0.00  0.00    +0.000 A 
ATOM     27  N   UNL     1     -20.039  -0.522  -7.464  0.00  0.00    +0.000 N 
ATOM     28  N   UNL     1     -20.918  -1.374 -10.753  0.00  0.00    +1.000 N 
ATOM     29  C   UNL     1     -18.612  -0.513  -4.564  0.00  0.00    +0.000 C 
ATOM     30  C   UNL     1     -16.300  -0.569  -7.759  0.00  0.00    +0.000 C 
ATOM     31  C   UNL     1     -18.430   0.201  -3.002  0.00  0.00    +0.000 C 
ATOM     32  C   UNL     1     -18.840   1.629  -2.818  0.00  0.00    +0.000 C 
ENDROOT
BRANCH  23  33
ATOM     33  C   UNL     1     -21.240   0.848  -3.506  0.00  0.00    +0.000 C 
ATOM     34  C   UNL     1     -22.442   1.330  -3.145  0.00  0.00    +0.000 C 
ENDBRANCH  23  33
BRANCH   1  36
ATOM     35  C   UNL     1     -16.947   0.903   1.066  0.00  0.00    +0.000 C 
ATOM     36  C   UNL     1     -17.366   1.100  -0.685  0.00  0.00    +0.000 C 
ENDBRANCH   1  36
BRANCH   9  37
ATOM     37  C   UNL     1     -16.449  -2.228 -14.277  0.00  0.00    +0.000 C 
ATOM     38  O   UNL     1     -16.227  -0.967 -14.257  0.00  0.00    +0.000 OA
BRANCH  37  39
ATOM     39  O   UNL     1     -15.530  -3.010 -14.678  0.00  0.00    +0.000 OA
ATOM     40  C   UNL     1     -14.251  -2.742 -14.784  0.00  0.00    +0.000 C 
ENDBRANCH  37  39
ENDBRANCH   9  37
BRANCH  15  41
ATOM     41  C   UNL     1     -17.308  -0.416 -10.390  0.00  0.00    +0.000 C 
BRANCH  41  42
ATOM     42  C   UNL     1     -17.527  -0.351  -9.475  0.00  0.00    +0.000 C 
BRANCH  42  43
ATOM     43  C   UNL     1     -17.769  -1.968  -8.657  0.00  0.00    +0.000 C 
ATOM     44  O   UNL     1     -18.875  -2.480  -8.646  0.00  0.00    +0.000 OA
BRANCH  43  45
ATOM     45  O   UNL     1     -16.674  -2.604  -8.592  0.00  0.00    +0.000 OA
BRANCH  45  46
ATOM     46  C   UNL     1     -16.780  -3.838  -8.477  0.00  0.00    +0.000 C 
BRANCH  46  47
ATOM     47  C   UNL     1     -17.689  -4.245  -7.361  0.00  0.00    +0.000 C 
ATOM     48  C   UNL     1     -17.870  -5.533  -7.093  0.00  0.00    +0.000 C 
ATOM     49  C   UNL     1     -17.145  -6.578  -7.890  0.00  0.00    +0.000 C 
BRANCH  48  50
ATOM     50  C   UNL     1     -18.790  -5.979  -5.985  0.00  0.00    +0.000 C 
BRANCH  50  51
ATOM     51  C   UNL     1     -19.949  -5.034  -5.778  0.00  0.00    +0.000 C 
BRANCH  51  52
ATOM     52  C   UNL     1     -20.788  -4.919  -7.044  0.00  0.00    +0.000 C 
BRANCH  52  53
ATOM     53  C   UNL     1     -21.922  -3.945  -6.829  0.00  0.00    +0.000 C 
ATOM     54  C   UNL     1     -22.828  -4.405  -5.690  0.00  0.00    +0.000 C 
BRANCH  53  55
ATOM     55  C   UNL     1     -22.729  -3.805  -8.114  0.00  0.00    +0.000 C 
BRANCH  55  56
ATOM     56  C   UNL     1     -23.856  -2.819  -7.940  0.00  0.00    +0.000 C 
BRANCH  56  57
ATOM     57  C   UNL     1     -23.360  -1.458  -7.585  0.00  0.00    +0.000 C 
BRANCH  57  58
ATOM     58  C   UNL     1     -24.539  -0.515  -7.431  0.00  0.00    +0.000 C 
ATOM     59  C   UNL     1     -25.301  -0.362  -8.726  0.00  0.00    +0.000 C 
BRANCH  58  60
ATOM     60  C   UNL     1     -24.043   0.795  -7.058  0.00  0.00    +0.000 C 
BRANCH  60  61
ATOM     61  C   UNL     1     -25.076   1.872  -6.818  0.00  0.00    +0.000 C 
BRANCH  61  62
ATOM     62  C   UNL     1     -24.552   3.258  -6.457  0.00  0.00    +0.000 C 
BRANCH  62  63
ATOM     63  C   UNL     1     -25.669   4.237  -6.233  0.00  0.00    +0.000 C 
ATOM     64  C   UNL     1     -25.091   5.600  -5.879  0.00  0.00    +0.000 C 
ATOM     65  C   UNL     1     -26.554   3.751  -5.093  0.00  0.00    +0.000 C 
ENDBRANCH  62  63
ENDBRANCH  61  62
ENDBRANCH  60  61
ENDBRANCH  58  60
ENDBRANCH  57  58
ENDBRANCH  56  57
ENDBRANCH  55  56
ENDBRANCH  53  55
ENDBRANCH  52  53
ENDBRANCH  51  52
ENDBRANCH  50  51
ENDBRANCH  48  50
ENDBRANCH  46  47
ENDBRANCH  45  46
ENDBRANCH  43  45
ENDBRANCH  42  43
ENDBRANCH  41  42
ENDBRANCH  15  41
TORSDOF 22
