REMARK  Name = 
REMARK  9 active torsions:
REMARK  status: ('A' for Active; 'I' for Inactive)
REMARK    1  A    between atoms: N_1  and  C_2
REMARK    2  A    between atoms: C_2  and  C_3
REMARK    3  A    between atoms: C_6  and  C_7
REMARK    4  A    between atoms: C_7  and  C_8
REMARK    5  A    between atoms: C_8  and  C_9
REMARK    6  A    between atoms: C_9  and  O_10
REMARK    7  A    between atoms: C_12  and  C_13
REMARK    8  A    between atoms: C_13  and  C_14
REMARK    9  A    between atoms: C_14  and  O_15
REMARK                            x       y       z     vdW  Elec       q    Type
REMARK                         _______ _______ _______ _____ _____    ______ ____
ROOT
ATOM      1  C   UNL     1       2.867  -1.108  -0.702  0.00  0.00    +0.034 A 
ATOM      2  C   UNL     1       2.404  -2.309  -0.168  0.00  0.00    -0.012 A 
ATOM      3  C   UNL     1       3.033  -3.363  -0.930  0.00  0.00    -0.026 A 
ATOM      4  C   UNL     1       3.885  -2.748  -1.828  0.00  0.00    +0.086 A 
ATOM      5  N   UNL     1       3.797  -1.400  -1.668  0.00  0.00    -0.363 N 
ATOM      6  H   UNL     1       4.241  -0.702  -2.254  0.00  0.00    +0.165 HD
ENDROOT
BRANCH   1   7
ATOM      7  C   UNL     1       2.487   0.318  -0.489  0.00  0.00    +0.131 C 
BRANCH   7   8
ATOM      8  N   UNL     1       1.998   0.854  -1.755  0.00  0.00    -0.325 NA
ATOM      9  H   UNL     1       1.482   0.125  -2.249  0.00  0.00    +0.119 HD
ATOM     10  H   UNL     1       1.308   1.578  -1.559  0.00  0.00    +0.119 HD
ENDBRANCH   7   8
ENDBRANCH   1   7
BRANCH   2  11
ATOM     11  C   UNL     1       1.344  -2.480   0.895  0.00  0.00    +0.157 C 
BRANCH  11  12
ATOM     12  C   UNL     1       1.806  -2.675   2.325  0.00  0.00    +0.309 C 
ATOM     13  O   UNL     1       1.014  -2.841   3.248  0.00  0.00    -0.251 OA
BRANCH  12  14
ATOM     14  O   UNL     1       3.134  -2.639   2.558  0.00  0.00    -0.480 OA
ATOM     15  H   UNL     1       3.670  -2.507   1.754  0.00  0.00    +0.295 HD
ENDBRANCH  12  14
ENDBRANCH  11  12
ENDBRANCH   2  11
BRANCH   3  16
ATOM     16  C   UNL     1       2.766  -4.845  -0.835  0.00  0.00    +0.048 C 
BRANCH  16  17
ATOM     17  C   UNL     1       3.489  -5.653  -1.916  0.00  0.00    +0.125 C 
BRANCH  17  18
ATOM     18  C   UNL     1       3.207  -7.126  -1.824  0.00  0.00    +0.305 C 
ATOM     19  O   UNL     1       2.476  -7.655  -1.000  0.00  0.00    -0.251 OA
BRANCH  18  20
ATOM     20  O   UNL     1       3.862  -7.832  -2.776  0.00  0.00    -0.481 OA
ATOM     21  H   UNL     1       4.410  -7.284  -3.370  0.00  0.00    +0.295 HD
ENDBRANCH  18  20
ENDBRANCH  17  18
ENDBRANCH  16  17
ENDBRANCH   3  16
TORSDOF 9
