REMARK  Name = 
REMARK  12 active torsions:
REMARK  status: ('A' for Active; 'I' for Inactive)
REMARK    1  A    between atoms: O_1  and  C_2
REMARK    2  A    between atoms: C_2  and  CA_4
REMARK    3  A    between atoms: CA_4  and  C_20
REMARK    4  A    between atoms: N_5  and  C_6
REMARK    5  A    between atoms: C_6  and  C_8
REMARK    6  A    between atoms: C_8  and  C_10
REMARK    7  A    between atoms: C_8  and  C_12
REMARK    8  A    between atoms: C_10  and  S_11
REMARK    9  A    between atoms: C_12  and  C_13
REMARK   10  A    between atoms: C_13  and  C_14
REMARK   11  A    between atoms: C_23  and  C_24
REMARK   12  A    between atoms: C_24  and  N_25
REMARK                            x       y       z     vdW  Elec       q    Type
REMARK                         _______ _______ _______ _____ _____    ______ ____
ROOT
ATOM      1  CA  UNL     1       0.562  -6.566   1.690  0.00  0.00    +0.154 C 
ATOM      2  N   UNL     1       0.133  -5.334   1.701  0.00  0.00    -0.172 NA
ENDROOT
BRANCH   1   3
ATOM      3  C   UNL     1      -0.441  -7.605   1.424  0.00  0.00    +0.043 A 
ATOM      4  S   UNL     1      -2.066  -7.357   1.931  0.00  0.00    -0.090 S 
ATOM      5  C   UNL     1      -2.602  -8.833   1.250  0.00  0.00    +0.012 A 
ATOM      6  C   UNL     1      -1.556  -9.527   0.677  0.00  0.00    +0.014 A 
ATOM      7  C   UNL     1      -0.316  -8.828   0.789  0.00  0.00    +0.018 A 
BRANCH   5   8
ATOM      8  C   UNL     1      -4.042  -9.239   1.364  0.00  0.00    +0.189 C 
BRANCH   8   9
ATOM      9  N   UNL     1      -4.834  -8.764   0.249  0.00  0.00    -0.227 N 
ATOM     10  N   UNL     1      -5.525  -9.621  -0.524  0.00  0.00    -0.044 NA
ATOM     11  N   UNL     1      -6.234  -8.856  -1.343  0.00  0.00    -0.023 NA
ATOM     12  N   UNL     1      -6.012  -7.523  -1.086  0.00  0.00    -0.117 NA
ATOM     13  C   UNL     1      -5.150  -7.487  -0.096  0.00  0.00    +0.245 A 
ENDBRANCH   8   9
ENDBRANCH   5   8
ENDBRANCH   1   3
BRANCH   1  14
ATOM     14  C   UNL     1       2.006  -7.118   1.947  0.00  0.00    +0.354 C 
ATOM     15  OXT UNL     1       2.174  -8.297   2.220  0.00  0.00    -0.244 OA
BRANCH  14  16
ATOM     16  O   UNL     1       3.050  -6.294   1.873  0.00  0.00    -0.476 OA
ATOM     17  H   UNL     1       2.858  -5.379   1.567  0.00  0.00    +0.295 HD
ENDBRANCH  14  16
ENDBRANCH   1  14
BRANCH   2  18
ATOM     18  C   UNL     1       0.917  -4.232   1.843  0.00  0.00    +0.241 C 
ATOM     19  O   UNL     1       2.065  -4.165   1.415  0.00  0.00    -0.273 OA
BRANCH  18  20
ATOM     20  C   UNL     1       0.294  -3.028   2.538  0.00  0.00    +0.087 C 
BRANCH  20  21
ATOM     21  C   UNL     1      -1.219  -2.888   2.311  0.00  0.00    +0.018 C 
BRANCH  21  22
ATOM     22  C   UNL     1      -1.759  -1.537   2.798  0.00  0.00    +0.036 C 
BRANCH  22  23
ATOM     23  C   UNL     1      -3.250  -1.430   2.612  0.00  0.00    -0.047 A 
ATOM     24  C   UNL     1      -3.787  -0.929   1.419  0.00  0.00    +0.003 A 
ATOM     25  C   UNL     1      -5.170  -0.866   1.240  0.00  0.00    +0.000 A 
ATOM     26  C   UNL     1      -6.026  -1.304   2.248  0.00  0.00    +0.000 A 
ATOM     27  C   UNL     1      -5.502  -1.798   3.441  0.00  0.00    +0.000 A 
ATOM     28  C   UNL     1      -4.120  -1.862   3.623  0.00  0.00    +0.003 A 
ENDBRANCH  22  23
ENDBRANCH  21  22
ENDBRANCH  20  21
BRANCH  20  29
ATOM     29  C   UNL     1       0.773  -2.989   3.994  0.00  0.00    +0.078 C 
BRANCH  29  30
ATOM     30  S   UNL     1       0.007  -4.224   5.090  0.00  0.00    -0.178 S 
ATOM     31  H   UNL     1      -1.243  -3.737   5.042  0.00  0.00    +0.102 HD
ENDBRANCH  29  30
ENDBRANCH  20  29
ENDBRANCH  18  20
ENDBRANCH   2  18
TORSDOF 12
