REMARK  Name = 
REMARK  14 active torsions:
REMARK  status: ('A' for Active; 'I' for Inactive)
REMARK    1  A    between atoms: N_10  and  C_11
REMARK    2  A    between atoms: C_14  and  C_16
REMARK    3  A    between atoms: C_16  and  O_17
REMARK    4  A    between atoms: O_17  and  P_18
REMARK    5  A    between atoms: P_18  and  O_19
REMARK    6  A    between atoms: P_18  and  O_21
REMARK    7  A    between atoms: O_21  and  P_22
REMARK    8  A    between atoms: P_22  and  O_23
REMARK    9  A    between atoms: P_22  and  O_25
REMARK   10  A    between atoms: O_25  and  P_26
REMARK   11  A    between atoms: P_26  and  O_27
REMARK   12  A    between atoms: P_26  and  S_28
REMARK   13  A    between atoms: C_30  and  O_32
REMARK   14  A    between atoms: C_33  and  O_35
REMARK                            x       y       z     vdW  Elec       q    Type
REMARK                         _______ _______ _______ _____ _____    ______ ____
ROOT
ATOM      1  C   UNL     1      -0.062  -0.203   0.203  0.00  0.00    +0.253 C 
ATOM      2  C   UNL     1      -0.075  -1.267   1.309  0.00  0.00    +0.195 C 
ATOM      3  C   UNL     1       1.245  -2.022   1.133  0.00  0.00    +0.178 C 
ATOM      4  C   UNL     1       2.030  -1.189   0.115  0.00  0.00    +0.178 C 
ATOM      5  O   UNL     1       1.352   0.087   0.041  0.00  0.00    -0.346 OA
ENDROOT
BRANCH   1  13
ATOM      6  N   UNL     1      -3.430  -1.742  -4.603  0.00  0.00    -0.341 N 
ATOM      7  H   UNL     1      -2.649  -1.506  -5.204  0.00  0.00    +0.144 HD
ATOM      8  H   UNL     1      -4.000  -2.532  -4.871  0.00  0.00    +0.144 HD
ATOM      9  C   UNL     1      -3.097  -1.774  -3.254  0.00  0.00    +0.147 A 
ATOM     10  C   UNL     1      -1.971  -1.123  -2.719  0.00  0.00    +0.147 A 
ATOM     11  N   UNL     1      -0.968  -0.374  -3.295  0.00  0.00    -0.231 NA
ATOM     12  C   UNL     1      -0.202  -0.010  -2.291  0.00  0.00    +0.203 A 
ATOM     13  N   UNL     1      -0.637  -0.519  -1.090  0.00  0.00    -0.286 N 
ATOM     14  C   UNL     1      -1.783  -1.225  -1.347  0.00  0.00    +0.167 A 
ATOM     15  N   UNL     1      -2.571  -1.875  -0.476  0.00  0.00    -0.216 NA
ATOM     16  C   UNL     1      -3.597  -2.484  -1.104  0.00  0.00    +0.225 A 
ATOM     17  N   UNL     1      -3.896  -2.475  -2.421  0.00  0.00    -0.219 NA
ENDBRANCH   1  13
BRANCH   2  18
ATOM     18  O   UNL     1      -0.061  -0.620   2.603  0.00  0.00    -0.385 OA
ATOM     19  H   UNL     1       0.636   0.061   2.599  0.00  0.00    +0.210 HD
ENDBRANCH   2  18
BRANCH   3  20
ATOM     20  O   UNL     1       1.006  -3.335   0.639  0.00  0.00    -0.386 OA
ATOM     21  H   UNL     1       1.813  -3.866   0.767  0.00  0.00    +0.210 HD
ENDBRANCH   3  20
BRANCH   4  22
ATOM     22  C   UNL     1       3.497  -0.993   0.508  0.00  0.00    +0.206 C 
BRANCH  22  23
ATOM     23  O   UNL     1       4.180  -0.219  -0.475  0.00  0.00    -0.284 OA
BRANCH  23  24
ATOM     24  P   UNL     1       5.779  -0.062  -0.352  0.00  0.00    +0.483 P 
ATOM     25  O   UNL     1       6.444   0.720  -1.436  0.00  0.00    -0.227 OA
BRANCH  24  26
ATOM     26  O   UNL     1       5.969   0.643   1.075  0.00  0.00    -0.302 OA
ATOM     27  H   UNL     1       6.108   1.602   0.939  0.00  0.00    +0.222 HD
ENDBRANCH  24  26
BRANCH  24  28
ATOM     28  O   UNL     1       6.320  -1.524  -0.112  0.00  0.00    -0.186 OA
BRANCH  28  29
ATOM     29  P   UNL     1       7.983  -1.821   0.265  0.00  0.00    +0.491 P 
ATOM     30  O   UNL     1       8.027  -2.928  -0.791  0.00  0.00    -0.226 OA
BRANCH  29  31
ATOM     31  O   UNL     1       7.534  -2.519   1.681  0.00  0.00    -0.302 OA
ATOM     32  H   UNL     1       7.518  -1.881   2.415  0.00  0.00    +0.222 HD
ENDBRANCH  29  31
BRANCH  29  33
ATOM     33  O   UNL     1       9.645  -2.117   0.642  0.00  0.00    -0.200 OA
BRANCH  33  34
ATOM     34  P   UNL     1      10.627  -0.808   0.080  0.00  0.00    +0.394 P 
ATOM     35  O   UNL     1       9.437   0.165   0.267  0.00  0.00    -0.246 OA
BRANCH  34  36
ATOM     36  O   UNL     1      11.956  -1.895  -0.129  0.00  0.00    -0.316 OA
ATOM     37  H   UNL     1      12.444  -1.967   0.714  0.00  0.00    +0.221 HD
ENDBRANCH  34  36
BRANCH  34  38
ATOM     38  S   UNL     1      11.599  -0.025   1.841  0.00  0.00    -0.058 S 
ATOM     39  H   UNL     1      12.014   1.091   1.225  0.00  0.00    +0.114 HD
ENDBRANCH  34  38
ENDBRANCH  33  34
ENDBRANCH  29  33
ENDBRANCH  28  29
ENDBRANCH  24  28
ENDBRANCH  23  24
ENDBRANCH  22  23
ENDBRANCH   4  22
TORSDOF 14
