REMARK  Name = 
REMARK  10 active torsions:
REMARK  status: ('A' for Active; 'I' for Inactive)
REMARK    1  A    between atoms: O_1  and  C_2
REMARK    2  A    between atoms: C_4  and  O_6
REMARK    3  A    between atoms: C_7  and  N_18
REMARK    4  A    between atoms: C_10  and  C_12
REMARK    5  A    between atoms: C_12  and  O_13
REMARK    6  A    between atoms: O_13  and  P_14
REMARK    7  A    between atoms: P_14  and  O_15
REMARK    8  A    between atoms: P_14  and  O_16
REMARK    9  A    between atoms: C_25  and  C_26
REMARK   10  A    between atoms: C_26  and  O_27
REMARK                            x       y       z     vdW  Elec       q    Type
REMARK                         _______ _______ _______ _____ _____    ______ ____
ROOT
ATOM      1  C   UNL     1       2.393   0.124  -0.060  0.00  0.00    +0.178 C 
ATOM      2  C   UNL     1       3.013  -1.115   0.586  0.00  0.00    +0.178 C 
ATOM      3  O   UNL     1       4.182  -0.688   1.323  0.00  0.00    -0.346 OA
ATOM      4  C   UNL     1       4.390   0.737   1.114  0.00  0.00    +0.255 C 
ATOM      5  C   UNL     1       2.959   1.248   0.788  0.00  0.00    +0.195 C 
ENDROOT
BRANCH   4   6
ATOM      6  N   UNL     1       5.451   0.883   0.105  0.00  0.00    -0.258 N 
ATOM      7  C   UNL     1       6.563   0.024  -0.024  0.00  0.00    +0.138 A 
ATOM      8  C   UNL     1       7.405   0.175  -1.061  0.00  0.00    +0.103 A 
ATOM      9  C   UNL     1       7.194   1.226  -2.052  0.00  0.00    +0.255 A 
ATOM     10  O   UNL     1       7.876   1.294  -3.067  0.00  0.00    -0.268 OA
ATOM     11  N   UNL     1       6.238   2.121  -1.731  0.00  0.00    -0.275 N 
ATOM     12  H   UNL     1       6.157   2.937  -2.324  0.00  0.00    +0.173 HD
ATOM     13  C   UNL     1       5.451   2.078  -0.619  0.00  0.00    +0.332 A 
ATOM     14  O   UNL     1       4.775   3.059  -0.335  0.00  0.00    -0.246 OA
BRANCH   7  15
ATOM     15  C   UNL     1       7.073  -1.045   0.916  0.00  0.00    +0.354 C 
ATOM     16  O   UNL     1       8.104  -1.665   0.707  0.00  0.00    -0.243 OA
BRANCH  15  17
ATOM     17  O   UNL     1       6.412  -1.245   2.069  0.00  0.00    -0.476 OA
ATOM     18  H   UNL     1       5.454  -1.067   1.992  0.00  0.00    +0.295 HD
ENDBRANCH  15  17
ENDBRANCH   7  15
ENDBRANCH   4   6
BRANCH   1  19
ATOM     19  O   UNL     1       2.806   0.263  -1.422  0.00  0.00    -0.386 OA
ATOM     20  H   UNL     1       3.750   0.046  -1.503  0.00  0.00    +0.210 HD
ENDBRANCH   1  19
BRANCH   5  21
ATOM     21  O   UNL     1       2.207   1.347   2.011  0.00  0.00    -0.385 OA
ATOM     22  H   UNL     1       1.390   1.840   1.806  0.00  0.00    +0.210 HD
ENDBRANCH   5  21
BRANCH   2  23
ATOM     23  C   UNL     1       2.041  -1.836   1.518  0.00  0.00    +0.206 C 
BRANCH  23  24
ATOM     24  O   UNL     1       0.938  -2.286   0.744  0.00  0.00    -0.284 OA
BRANCH  24  25
ATOM     25  P   UNL     1      -0.251  -3.131   1.674  0.00  0.00    +0.472 P 
ATOM     26  O   UNL     1      -1.315  -3.887   2.507  0.00  0.00    -0.228 OA
BRANCH  25  27
ATOM     27  O   UNL     1      -0.569  -3.914   0.273  0.00  0.00    -0.303 OA
ATOM     28  H   UNL     1       0.080  -4.623   0.114  0.00  0.00    +0.222 HD
ENDBRANCH  25  27
BRANCH  25  29
ATOM     29  O   UNL     1      -1.163  -1.821   1.322  0.00  0.00    -0.303 OA
ATOM     30  H   UNL     1      -1.274  -1.819   0.353  0.00  0.00    +0.222 HD
ENDBRANCH  25  29
ENDBRANCH  24  25
ENDBRANCH  23  24
ENDBRANCH   2  23
TORSDOF 10
