REMARK  Name = 
REMARK  6 active torsions:
REMARK  status: ('A' for Active; 'I' for Inactive)
REMARK    1  A    between atoms: C_1  and  C_2
REMARK    2  A    between atoms: N_4  and  CA_5
REMARK    3  A    between atoms: CA_5  and  CB_7
REMARK    4  A    between atoms: CA_5  and  C_9
REMARK    5  A    between atoms: CB_7  and  OG_8
REMARK    6  A    between atoms: C_9  and  O_10
REMARK                            x       y       z     vdW  Elec       q    Type
REMARK                         _______ _______ _______ _____ _____    ______ ____
ROOT
ATOM      1  CA  SER A   1       4.640   0.110   1.333  0.00  0.00    +0.207 C 
ENDROOT
BRANCH   1   4
ATOM      2  C   UNK A   0       0.977  -0.907   1.160  0.00  0.00    +0.109 C 
ATOM      3  C   UNK A   0       2.465  -1.074   1.293  0.00  0.00    +0.211 C 
ATOM      4  N   SER A   1       3.163   0.114   1.338  0.00  0.00    -0.301 N 
ATOM      5  H   SER A   1       2.732   0.916   0.882  0.00  0.00    +0.150 HD
ATOM      6  O   UNK A   0       3.004  -2.161   1.451  0.00  0.00    -0.276 OA
ENDBRANCH   1   4
BRANCH   1   7
ATOM      7  C   SER A   1       5.231   0.043   2.743  0.00  0.00    +0.328 C 
ATOM      8  OXT SER A   1       6.428   0.084   2.983  0.00  0.00    -0.249 OA
BRANCH   7   9
ATOM      9  O   SER A   1       4.301  -0.028   3.725  0.00  0.00    -0.479 OA
ATOM     10  H   SER A   1       3.410  -0.098   3.326  0.00  0.00    +0.295 HD
ENDBRANCH   7   9
ENDBRANCH   1   7
BRANCH   1  11
ATOM     11  CB  SER A   1       5.173   1.371   0.648  0.00  0.00    +0.189 C 
BRANCH  11  12
ATOM     12  OG  SER A   1       4.568   1.513  -0.642  0.00  0.00    -0.393 OA
ATOM     13  H   SER A   1       4.811   0.728  -1.166  0.00  0.00    +0.209 HD
ENDBRANCH  11  12
ENDBRANCH   1  11
TORSDOF 5
