REMARK  Name = 
REMARK  0 active torsions:
REMARK  status: ('A' for Active; 'I' for Inactive)
REMARK                            x       y       z     vdW  Elec       q    Type
REMARK                         _______ _______ _______ _____ _____    ______ ____
ROOT
ATOM      1  N   UNL     1      -1.090   0.033   0.001  0.00  0.00    -0.285 N 
ATOM      2  H   UNL     1      -2.102  -0.039   0.002  0.00  0.00    +0.188 HD
ATOM      3  N   UNL     1      -0.370  -1.101  -0.002  0.00  0.00    -0.182 NA
ATOM      4  C   UNL     1       0.895  -0.673  -0.002  0.00  0.00    +0.134 A 
ATOM      5  C   UNL     1       0.984   0.731   0.001  0.00  0.00    +0.040 A 
ATOM      6  C   UNL     1      -0.321   1.161   0.003  0.00  0.00    +0.105 A 
ENDROOT
TORSDOF 0
