REMARK  Name = 
REMARK  15 active torsions:
REMARK  status: ('A' for Active; 'I' for Inactive)
REMARK    1  A    between atoms: C_2  and  O_3
REMARK    2  A    between atoms: C_2  and  C_4
REMARK    3  A    between atoms: C_2  and  C_15
REMARK    4  A    between atoms: C_4  and  C_5
REMARK    5  A    between atoms: C_5  and  C_6
REMARK    6  A    between atoms: C_6  and  C_7
REMARK    7  A    between atoms: C_7  and  C_8
REMARK    8  A    between atoms: C_8  and  C_9
REMARK    9  A    between atoms: C_9  and  C_10
REMARK   10  A    between atoms: C_10  and  C_11
REMARK   11  A    between atoms: C_11  and  C_12
REMARK   12  A    between atoms: C_12  and  C_13
REMARK   13  A    between atoms: C_13  and  C_14
REMARK   14  A    between atoms: C_15  and  C_16
REMARK   15  A    between atoms: C_16  and  O_17
REMARK                            x       y       z     vdW  Elec       q    Type
REMARK                         _______ _______ _______ _____ _____    ______ ____
ROOT
ATOM      1  C   UNL     1       1.927  -1.591   1.915  0.00  0.00    +0.003 C 
ENDROOT
BRANCH   1   2
ATOM      2  C   UNL     1       2.391  -1.398   0.469  0.00  0.00    +0.032 C 
BRANCH   2   3
ATOM      3  C   UNL     1       1.881  -0.091  -0.149  0.00  0.00    +0.125 C 
BRANCH   3   4
ATOM      4  O   UNL     1       2.406   1.028   0.582  0.00  0.00    -0.391 OA
ATOM      5  H   UNL     1       1.937   1.052   1.439  0.00  0.00    +0.210 HD
ENDBRANCH   3   4
BRANCH   3   6
ATOM      6  C   UNL     1       2.360   0.034  -1.591  0.00  0.00    +0.151 C 
BRANCH   6   7
ATOM      7  C   UNL     1       1.816   1.281  -2.239  0.00  0.00    +0.307 C 
ATOM      8  O   UNL     1       1.167   1.280  -3.275  0.00  0.00    -0.251 OA
BRANCH   7   9
ATOM      9  O   UNL     1       2.156   2.416  -1.589  0.00  0.00    -0.481 OA
ATOM     10  H   UNL     1       2.596   2.206  -0.729  0.00  0.00    +0.295 HD
ENDBRANCH   7   9
ENDBRANCH   6   7
ENDBRANCH   3   6
ENDBRANCH   2   3
ENDBRANCH   1   2
BRANCH   1  11
ATOM     11  C   UNL     1       2.442  -2.910   2.491  0.00  0.00    +0.000 C 
BRANCH  11  12
ATOM     12  C   UNL     1       1.984  -3.085   3.937  0.00  0.00    +0.000 C 
BRANCH  12  13
ATOM     13  C   UNL     1       2.502  -4.393   4.529  0.00  0.00    +0.000 C 
BRANCH  13  14
ATOM     14  C   UNL     1       2.037  -4.558   5.975  0.00  0.00    -0.000 C 
BRANCH  14  15
ATOM     15  C   UNL     1       2.553  -5.866   6.571  0.00  0.00    -0.000 C 
BRANCH  15  16
ATOM     16  C   UNL     1       2.090  -6.034   8.017  0.00  0.00    -0.000 C 
BRANCH  16  17
ATOM     17  C   UNL     1       2.608  -7.345   8.607  0.00  0.00    -0.000 C 
BRANCH  17  18
ATOM     18  C   UNL     1       2.153  -7.522  10.053  0.00  0.00    -0.003 C 
ATOM     19  C   UNL     1       2.671  -8.827  10.636  0.00  0.00    +0.004 C 
ENDBRANCH  17  18
ENDBRANCH  16  17
ENDBRANCH  15  16
ENDBRANCH  14  15
ENDBRANCH  13  14
ENDBRANCH  12  13
ENDBRANCH  11  12
ENDBRANCH   1  11
TORSDOF 14
