REMARK  Name = 
REMARK  12 active torsions:
REMARK  status: ('A' for Active; 'I' for Inactive)
REMARK    1  A    between atoms: O_1  and  C_2
REMARK    2  A    between atoms: C_4  and  O_6
REMARK    3  A    between atoms: C_7  and  O_9
REMARK    4  A    between atoms: O_9  and  P_10
REMARK    5  A    between atoms: P_10  and  O_11
REMARK    6  A    between atoms: P_10  and  O_12
REMARK    7  A    between atoms: C_14  and  O_16
REMARK    8  A    between atoms: C_17  and  O_19
REMARK    9  A    between atoms: O_19  and  P_20
REMARK   10  A    between atoms: P_20  and  O_21
REMARK   11  A    between atoms: P_20  and  O_22
REMARK   12  A    between atoms: C_24  and  O_26
REMARK                            x       y       z     vdW  Elec       q    Type
REMARK                         _______ _______ _______ _____ _____    ______ ____
ROOT
ATOM      1  C   UNL     1       2.616   0.062   0.218  0.00  0.00    +0.177 C 
ATOM      2  C   UNL     1       3.058   1.027  -0.892  0.00  0.00    +0.177 C 
ATOM      3  C   UNL     1       2.485   0.609  -2.312  0.00  0.00    +0.192 C 
ATOM      4  C   UNL     1       3.024  -0.779  -2.663  0.00  0.00    +0.178 C 
ATOM      5  C   UNL     1       2.425  -1.716  -1.615  0.00  0.00    +0.192 C 
ATOM      6  C   UNL     1       2.908  -1.406  -0.176  0.00  0.00    +0.177 C 
ENDROOT
BRANCH   1   7
ATOM      7  O   UNL     1       1.244   0.320   0.512  0.00  0.00    -0.386 OA
ATOM      8  H   UNL     1       0.938  -0.361   1.140  0.00  0.00    +0.210 HD
ENDBRANCH   1   7
BRANCH   2   9
ATOM      9  O   UNL     1       4.490   1.078  -0.874  0.00  0.00    -0.386 OA
ATOM     10  H   UNL     1       4.799   1.740  -1.519  0.00  0.00    +0.210 HD
ENDBRANCH   2   9
BRANCH   4  11
ATOM     11  O   UNL     1       4.444  -0.839  -2.725  0.00  0.00    -0.386 OA
ATOM     12  H   UNL     1       4.715  -1.776  -2.746  0.00  0.00    +0.210 HD
ENDBRANCH   4  11
BRANCH   6  13
ATOM     13  O   UNL     1       4.294  -1.708  -0.062  0.00  0.00    -0.386 OA
ATOM     14  H   UNL     1       4.785  -0.937  -0.423  0.00  0.00    +0.210 HD
ENDBRANCH   6  13
BRANCH   3  15
ATOM     15  O   UNL     1       0.976   0.658  -2.427  0.00  0.00    -0.278 OA
BRANCH  15  16
ATOM     16  P   UNL     1       0.693   2.308  -1.990  0.00  0.00    +0.473 P 
ATOM     17  O   UNL     1       0.440   3.784  -1.599  0.00  0.00    -0.228 OA
BRANCH  16  18
ATOM     18  O   UNL     1      -0.775   1.807  -1.486  0.00  0.00    -0.303 OA
ATOM     19  H   UNL     1      -1.414   2.001  -2.194  0.00  0.00    +0.222 HD
ENDBRANCH  16  18
BRANCH  16  20
ATOM     20  O   UNL     1       0.230   2.503  -3.547  0.00  0.00    -0.303 OA
ATOM     21  H   UNL     1       0.740   3.209  -3.985  0.00  0.00    +0.222 HD
ENDBRANCH  16  20
ENDBRANCH  15  16
ENDBRANCH   3  15
BRANCH   5  22
ATOM     22  O   UNL     1       1.001  -1.577  -1.695  0.00  0.00    -0.278 OA
BRANCH  22  23
ATOM     23  P   UNL     1       0.486  -1.912  -3.313  0.00  0.00    +0.473 P 
ATOM     24  O   UNL     1       0.026  -2.211  -4.760  0.00  0.00    -0.228 OA
BRANCH  23  25
ATOM     25  O   UNL     1      -1.021  -1.647  -2.740  0.00  0.00    -0.303 OA
ATOM     26  H   UNL     1      -1.492  -2.460  -2.505  0.00  0.00    +0.222 HD
ENDBRANCH  23  25
BRANCH  23  27
ATOM     27  O   UNL     1       0.557  -3.481  -2.838  0.00  0.00    -0.303 OA
ATOM     28  H   UNL     1       0.298  -3.561  -1.904  0.00  0.00    +0.222 HD
ENDBRANCH  23  27
ENDBRANCH  22  23
ENDBRANCH   5  22
TORSDOF 12
