REMARK  Name = 
REMARK  7 active torsions:
REMARK  status: ('A' for Active; 'I' for Inactive)
REMARK    1  A    between atoms: N_10  and  C_11
REMARK    2  A    between atoms: C_14  and  C_16
REMARK    3  A    between atoms: C_16  and  O_17
REMARK    4  A    between atoms: O_17  and  S_18
REMARK    5  A    between atoms: S_18  and  N_19
REMARK    6  A    between atoms: C_22  and  O_24
REMARK    7  A    between atoms: C_25  and  O_27
REMARK                            x       y       z     vdW  Elec       q    Type
REMARK                         _______ _______ _______ _____ _____    ______ ____
ROOT
ATOM      1  C   UNL     1       6.480  -3.162  -0.093  0.00  0.00    +0.253 C 
ATOM      2  C   UNL     1       6.550  -4.579   0.497  0.00  0.00    +0.195 C 
ATOM      3  C   UNL     1       7.881  -4.628   1.250  0.00  0.00    +0.178 C 
ATOM      4  C   UNL     1       8.402  -3.192   1.190  0.00  0.00    +0.180 C 
ATOM      5  O   UNL     1       7.276  -2.370   0.835  0.00  0.00    -0.346 OA
ENDROOT
BRANCH   1  13
ATOM      6  N   UNL     1       8.113  -3.179  -5.939  0.00  0.00    -0.341 N 
ATOM      7  H   UNL     1       8.163  -2.167  -5.905  0.00  0.00    +0.144 HD
ATOM      8  H   UNL     1       7.767  -3.606  -6.788  0.00  0.00    +0.144 HD
ATOM      9  C   UNL     1       7.537  -3.739  -4.807  0.00  0.00    +0.147 A 
ATOM     10  C   UNL     1       7.471  -3.080  -3.566  0.00  0.00    +0.147 A 
ATOM     11  N   UNL     1       7.879  -1.829  -3.158  0.00  0.00    -0.231 NA
ATOM     12  C   UNL     1       7.541  -1.767  -1.888  0.00  0.00    +0.203 A 
ATOM     13  N   UNL     1       6.975  -2.937  -1.439  0.00  0.00    -0.286 N 
ATOM     14  C   UNL     1       6.869  -3.768  -2.523  0.00  0.00    +0.167 A 
ATOM     15  N   UNL     1       6.314  -4.987  -2.582  0.00  0.00    -0.216 NA
ATOM     16  C   UNL     1       6.432  -5.520  -3.814  0.00  0.00    +0.225 A 
ATOM     17  N   UNL     1       6.997  -4.974  -4.911  0.00  0.00    -0.219 NA
ENDBRANCH   1  13
BRANCH   2  18
ATOM     18  O   UNL     1       5.474  -4.762   1.446  0.00  0.00    -0.385 OA
ATOM     19  H   UNL     1       5.491  -4.027   2.084  0.00  0.00    +0.210 HD
ENDBRANCH   2  18
BRANCH   3  20
ATOM     20  O   UNL     1       8.794  -5.519   0.618  0.00  0.00    -0.386 OA
ATOM     21  H   UNL     1       9.587  -5.576   1.179  0.00  0.00    +0.210 HD
ENDBRANCH   3  20
BRANCH   4  22
ATOM     22  C   UNL     1       9.027  -2.719   2.499  0.00  0.00    +0.229 C 
BRANCH  22  23
ATOM     23  O   UNL     1      10.128  -3.553   2.843  0.00  0.00    -0.222 OA
BRANCH  23  24
ATOM     24  S   UNL     1      10.933  -3.164   4.200  0.00  0.00    +0.148 S 
ATOM     25  O   UNL     1      10.054  -3.409   5.316  0.00  0.00    -0.130 OA
ATOM     26  O   UNL     1      11.591  -1.900   3.980  0.00  0.00    -0.130 OA
BRANCH  24  27
ATOM     27  N   UNL     1      12.125  -4.325   4.259  0.00  0.00    -0.183 NA
ATOM     28  H   UNL     1      11.763  -5.265   4.392  0.00  0.00    +0.146 HD
ATOM     29  H   UNL     1      12.828  -4.206   3.534  0.00  0.00    +0.146 HD
ENDBRANCH  24  27
ENDBRANCH  23  24
ENDBRANCH  22  23
ENDBRANCH   4  22
TORSDOF 7
