REMARK  Name = 
REMARK  10 active torsions:
REMARK  status: ('A' for Active; 'I' for Inactive)
REMARK    1  A    between atoms: C_1  and  O_2
REMARK    2  A    between atoms: O_2  and  C_3
REMARK    3  A    between atoms: C_6  and  S_9
REMARK    4  A    between atoms: S_9  and  N_12
REMARK    5  A    between atoms: N_12  and  C_13
REMARK    6  A    between atoms: N_12  and  C_20
REMARK    7  A    between atoms: C_13  and  C_14
REMARK    8  A    between atoms: C_21  and  C_27
REMARK    9  A    between atoms: C_25  and  C_26
REMARK   10  A    between atoms: N_29  and  O_30
REMARK                            x       y       z     vdW  Elec       q    Type
REMARK                         _______ _______ _______ _____ _____    ______ ____
ROOT
ATOM      1  N   UNL     1       4.175  -5.283  -3.805  0.00  0.00    -0.198 N 
ENDROOT
BRANCH   1   2
ATOM      2  C   UNL     1       4.155  -6.429  -4.711  0.00  0.00    +0.067 A 
ATOM      3  C   UNL     1       5.398  -6.819  -5.290  0.00  0.00    -0.027 A 
ATOM      4  C   UNL     1       6.725  -6.226  -4.885  0.00  0.00    +0.046 C 
ATOM      5  C   UNL     1       5.436  -7.813  -6.287  0.00  0.00    +0.005 A 
ATOM      6  C   UNL     1       4.286  -8.481  -6.673  0.00  0.00    +0.001 A 
ATOM      7  C   UNL     1       3.078  -8.165  -6.066  0.00  0.00    +0.015 A 
ATOM      8  C   UNL     1       2.982  -7.129  -5.109  0.00  0.00    +0.061 A 
BRANCH   8   9
ATOM      9  C   UNL     1       1.598  -6.862  -4.583  0.00  0.00    +0.268 C 
ATOM     10  N   UNL     1       0.555  -7.110  -5.457  0.00  0.00    -0.193 N 
ATOM     11  H   UNL     1       0.686  -7.116  -6.456  0.00  0.00    +0.183 HD
ATOM     12  O   UNL     1       1.358  -6.417  -3.466  0.00  0.00    -0.268 OA
BRANCH  10  13
ATOM     13  O   UNL     1      -0.721  -6.668  -5.014  0.00  0.00    -0.295 OA
ATOM     14  H   UNL     1      -0.504  -6.267  -4.143  0.00  0.00    +0.241 HD
ENDBRANCH  10  13
ENDBRANCH   8   9
ENDBRANCH   1   2
BRANCH   1  15
ATOM     15  S   UNL     1       4.069  -3.713  -4.495  0.00  0.00    +0.075 S 
ATOM     16  O   UNL     1       4.378  -2.757  -3.449  0.00  0.00    -0.150 OA
ATOM     17  O   UNL     1       4.823  -3.697  -5.735  0.00  0.00    -0.150 OA
BRANCH  15  21
ATOM     18  C   UNL     1      -0.257  -2.899  -5.842  0.00  0.00    +0.120 A 
ATOM     19  C   UNL     1       0.504  -3.888  -6.461  0.00  0.00    +0.047 A 
ATOM     20  C   UNL     1       1.829  -4.116  -6.063  0.00  0.00    +0.032 A 
ATOM     21  C   UNL     1       2.370  -3.423  -4.978  0.00  0.00    +0.109 A 
ATOM     22  C   UNL     1       1.632  -2.392  -4.390  0.00  0.00    +0.032 A 
ATOM     23  C   UNL     1       0.323  -2.136  -4.825  0.00  0.00    +0.047 A 
BRANCH  18  25
ATOM     24  C   UNL     1      -2.062  -3.057  -7.381  0.00  0.00    +0.277 C 
ATOM     25  O   UNL     1      -1.560  -2.599  -6.130  0.00  0.00    -0.495 OA
ENDBRANCH  18  25
ENDBRANCH  15  21
ENDBRANCH   1  15
BRANCH   1  26
ATOM     26  C   UNL     1       3.634  -5.463  -2.431  0.00  0.00    +0.168 C 
BRANCH  26  27
ATOM     27  C   UNL     1       4.581  -5.362  -1.262  0.00  0.00    -0.010 A 
ATOM     28  C   UNL     1       4.127  -5.812  -0.016  0.00  0.00    +0.116 A 
ATOM     29  N   UNL     1       4.873  -5.853   1.111  0.00  0.00    -0.263 NA
ATOM     30  C   UNL     1       6.140  -5.409   1.004  0.00  0.00    +0.111 A 
ATOM     31  C   UNL     1       6.681  -4.903  -0.169  0.00  0.00    +0.020 A 
ATOM     32  C   UNL     1       5.884  -4.873  -1.313  0.00  0.00    +0.008 A 
ENDBRANCH  26  27
ENDBRANCH   1  26
TORSDOF 8
