REMARK  Name = 
REMARK  5 active torsions:
REMARK  status: ('A' for Active; 'I' for Inactive)
REMARK    1  A    between atoms: C_1  and  C_2
REMARK    2  A    between atoms: C_5  and  N_7
REMARK    3  A    between atoms: N_7  and  O_8
REMARK    4  A    between atoms: CA_10  and  C_12
REMARK    5  A    between atoms: C_12  and  O_13
REMARK                            x       y       z     vdW  Elec       q    Type
REMARK                         _______ _______ _______ _____ _____    ______ ____
ROOT
ATOM      1  C   UNL     1       0.978   0.002  -0.054  0.00  0.00    +0.010 C 
ATOM      2  C   UNL     1       2.498  -0.030   0.000  0.00  0.00    +0.017 C 
ATOM      3  CA  UNL     1       3.047  -1.324   0.594  0.00  0.00    +0.167 C 
ATOM      4  N   UNL     1       4.326  -0.965   1.291  0.00  0.00    -0.287 NA
ATOM      5  H   UNL     1       4.189  -1.137   2.290  0.00  0.00    +0.124 HD
ATOM      6  C   UNL     1       4.473   0.487   1.203  0.00  0.00    +0.148 C 
ATOM      7  C   UNL     1       3.081   1.031   0.918  0.00  0.00    +0.042 C 
ENDROOT
BRANCH   3   8
ATOM      8  C   UNL     1       3.354  -2.360  -0.493  0.00  0.00    +0.322 C 
ATOM      9  OXT UNL     1       2.527  -2.856  -1.241  0.00  0.00    -0.249 OA
BRANCH   8  10
ATOM     10  O   UNL     1       4.679  -2.660  -0.537  0.00  0.00    -0.480 OA
ATOM     11  H   UNL     1       5.099  -2.107   0.172  0.00  0.00    +0.295 HD
ENDBRANCH   8  10
ENDBRANCH   3   8
BRANCH   6  12
ATOM     12  N   UNL     1       4.961   0.934   2.493  0.00  0.00    -0.187 NA
ATOM     13  H   UNL     1       5.099   1.948   2.460  0.00  0.00    +0.155 HD
BRANCH  12  14
ATOM     14  O   UNL     1       6.333   0.455   2.607  0.00  0.00    -0.314 OA
ATOM     15  H   UNL     1       6.295  -0.082   3.423  0.00  0.00    +0.236 HD
ENDBRANCH  12  14
ENDBRANCH   6  12
TORSDOF 4
