REMARK  Name = 
REMARK  4 active torsions:
REMARK  status: ('A' for Active; 'I' for Inactive)
REMARK    1  A    between atoms: C_1  and  C_2
REMARK    2  A    between atoms: C_2  and  C_3
REMARK    3  A    between atoms: C_3  and  C_5
REMARK    4  A    between atoms: C_3  and  O_6
REMARK                            x       y       z     vdW  Elec       q    Type
REMARK                         _______ _______ _______ _____ _____    ______ ____
ROOT
ATOM      1  C   UNL     1       2.925  -0.857  -1.098  0.00  0.00    +0.111 C 
ATOM      2  C   UNL     1       2.513  -0.395  -2.489  0.00  0.00    +0.037 C 
ENDROOT
BRANCH   1   4
ATOM      3  C   UNL     1       0.889   0.112   0.103  0.00  0.00    +0.006 C 
ATOM      4  C   UNL     1       2.405   0.046   0.023  0.00  0.00    +0.027 C 
ENDBRANCH   1   4
BRANCH   1   5
ATOM      5  O   UNL     1       4.352  -0.863  -1.055  0.00  0.00    -0.392 OA
ATOM      6  H   UNL     1       4.618  -1.191  -0.179  0.00  0.00    +0.210 HD
ENDBRANCH   1   5
TORSDOF 2
