REMARK  Name = 
REMARK  8 active torsions:
REMARK  status: ('A' for Active; 'I' for Inactive)
REMARK    1  A    between atoms: C_1  and  O_2
REMARK    2  A    between atoms: O_2  and  C_3
REMARK    3  A    between atoms: C_9  and  N_10
REMARK    4  A    between atoms: N_10  and  C_11
REMARK    5  A    between atoms: C_13  and  S_14
REMARK    6  A    between atoms: S_14  and  C_15
REMARK    7  A    between atoms: C_21  and  O_22
REMARK    8  A    between atoms: O_22  and  C_23
REMARK                            x       y       z     vdW  Elec       q    Type
REMARK                         _______ _______ _______ _____ _____    ______ ____
ROOT
ATOM      1  C   UNL     1       2.926  -0.996  -0.842  0.00  0.00    +0.164 A 
ATOM      2  C   UNL     1       2.612  -2.360  -0.847  0.00  0.00    +0.162 A 
ATOM      3  C   UNL     1       3.368  -3.213  -1.663  0.00  0.00    +0.062 A 
ATOM      4  C   UNL     1       4.439  -2.731  -2.463  0.00  0.00    +0.044 A 
ATOM      5  C   UNL     1       4.742  -1.363  -2.441  0.00  0.00    +0.080 A 
ATOM      6  N   UNL     1       5.735  -0.828  -3.153  0.00  0.00    -0.235 NA
ATOM      7  C   UNL     1       6.457  -1.664  -3.902  0.00  0.00    +0.223 A 
ATOM      8  N   UNL     1       6.273  -2.980  -4.009  0.00  0.00    -0.220 NA
ATOM      9  C   UNL     1       5.267  -3.520  -3.293  0.00  0.00    +0.134 A 
ATOM     10  C   UNL     1       3.987  -0.529  -1.632  0.00  0.00    +0.078 A 
ENDROOT
BRANCH   1  12
ATOM     11  C   UNL     1       0.979  -0.130   0.233  0.00  0.00    +0.277 C 
ATOM     12  O   UNL     1       2.362  -0.012  -0.072  0.00  0.00    -0.491 OA
ENDBRANCH   1  12
BRANCH   2  13
ATOM     13  O   UNL     1       1.610  -2.791  -0.025  0.00  0.00    -0.491 OA
ATOM     14  C   UNL     1       1.311  -4.179   0.018  0.00  0.00    +0.277 C 
ENDBRANCH   2  13
BRANCH   9  15
ATOM     15  N   UNL     1       5.044  -4.927  -3.357  0.00  0.00    -0.299 N 
ATOM     16  H   UNL     1       4.059  -5.097  -3.527  0.00  0.00    +0.154 HD
BRANCH  15  17
ATOM     17  C   UNL     1       5.838  -5.914  -3.992  0.00  0.00    +0.033 A 
ATOM     18  C   UNL     1       5.246  -7.131  -4.357  0.00  0.00    +0.023 A 
ATOM     19  C   UNL     1       5.995  -8.142  -4.964  0.00  0.00    +0.003 A 
ATOM     20  C   UNL     1       7.356  -7.953  -5.200  0.00  0.00    +0.015 A 
ATOM     21  C   UNL     1       7.983  -6.767  -4.809  0.00  0.00    +0.009 A 
ATOM     22  C   UNL     1       7.222  -5.779  -4.171  0.00  0.00    +0.038 A 
BRANCH  21  23
ATOM     23  S   UNL     1       9.738  -6.604  -5.116  0.00  0.00    -0.129 S 
ATOM     24  C   UNL     1       9.902  -4.817  -5.394  0.00  0.00    +0.090 C 
ENDBRANCH  21  23
ENDBRANCH  15  17
ENDBRANCH   9  15
TORSDOF 5
