REMARK  Name = 
REMARK  9 active torsions:
REMARK  status: ('A' for Active; 'I' for Inactive)
REMARK    1  A    between atoms: C_1  and  C_2
REMARK    2  A    between atoms: C_2  and  C_3
REMARK    3  A    between atoms: C_3  and  C_4
REMARK    4  A    between atoms: C_4  and  C_5
REMARK    5  A    between atoms: C_5  and  C_7
REMARK    6  A    between atoms: C_5  and  C_12
REMARK    7  A    between atoms: C_7  and  N_8
REMARK    8  A    between atoms: N_8  and  O_9
REMARK    9  A    between atoms: C_12  and  O_13
REMARK                            x       y       z     vdW  Elec       q    Type
REMARK                         _______ _______ _______ _____ _____    ______ ____
ROOT
ATOM      1  C   UNL     1       5.068  -2.251   1.566  0.00  0.00    +0.117 C 
ENDROOT
BRANCH   1   2
ATOM      2  C   UNL     1       6.589  -2.261   1.529  0.00  0.00    +0.309 C 
ATOM      3  O   UNL     1       7.285  -3.150   1.067  0.00  0.00    -0.251 OA
BRANCH   2   4
ATOM      4  O   UNL     1       7.146  -1.157   2.082  0.00  0.00    -0.480 OA
ATOM      5  H   UNL     1       6.512  -0.510   2.441  0.00  0.00    +0.295 HD
ENDBRANCH   2   4
ENDBRANCH   1   2
BRANCH   1   6
ATOM      6  C   UNL     1       4.514  -1.136   0.660  0.00  0.00    +0.016 C 
BRANCH   6   7
ATOM      7  C   UNL     1       2.989  -0.999   0.727  0.00  0.00    +0.001 C 
BRANCH   7   9
ATOM      8  C   UNL     1       0.962   0.243  -0.097  0.00  0.00    +0.004 C 
ATOM      9  C   UNL     1       2.478   0.132  -0.169  0.00  0.00    -0.003 C 
ENDBRANCH   7   9
ENDBRANCH   6   7
ENDBRANCH   1   6
BRANCH   1  10
ATOM     10  C   UNL     1       4.526  -3.666   1.265  0.00  0.00    +0.154 C 
BRANCH  10  11
ATOM     11  N   UNL     1       4.798  -4.134  -0.093  0.00  0.00    -0.186 N 
ATOM     12  C   UNL     1       5.289  -5.402  -0.333  0.00  0.00    +0.352 C 
ATOM     13  O   UNL     1       5.768  -6.169   0.492  0.00  0.00    -0.277 OA
BRANCH  11  14
ATOM     14  O   UNL     1       3.830  -3.718  -1.036  0.00  0.00    -0.293 OA
ATOM     15  H   UNL     1       4.347  -3.107  -1.593  0.00  0.00    +0.242 HD
ENDBRANCH  11  14
ENDBRANCH  10  11
ENDBRANCH   1  10
TORSDOF 8
