REMARK  Name = 
REMARK  7 active torsions:
REMARK  status: ('A' for Active; 'I' for Inactive)
REMARK    1  A    between atoms: N_1  and  C_2
REMARK    2  A    between atoms: C_2  and  C_4
REMARK    3  A    between atoms: C_2  and  C_10
REMARK    4  A    between atoms: C_4  and  S_5
REMARK    5  A    between atoms: S_5  and  C_6
REMARK    6  A    between atoms: C_6  and  C_7
REMARK    7  A    between atoms: C_10  and  O_11
REMARK                            x       y       z     vdW  Elec       q    Type
REMARK                         _______ _______ _______ _____ _____    ______ ____
ROOT
ATOM      1  C   UNK     1       2.409   0.101  -0.067  0.00  0.00    +0.171 C 
ENDROOT
BRANCH   1   2
ATOM      2  N   UNK     1       0.918   0.157   0.088  0.00  0.00    -0.318 NA
ATOM      3  H   UNK     1       0.571   0.925  -0.498  0.00  0.00    +0.119 HD
ATOM      4  H   UNK     1       0.553  -0.676  -0.391  0.00  0.00    +0.119 HD
ENDBRANCH   1   2
BRANCH   1   5
ATOM      5  C   UNK     1       3.014   1.234   0.770  0.00  0.00    +0.323 C 
ATOM      6  O   UNK     1       4.109   1.740   0.597  0.00  0.00    -0.249 OA
BRANCH   5   7
ATOM      7  O   UNK     1       2.173   1.591   1.777  0.00  0.00    -0.480 OA
ATOM      8  H   UNK     1       1.350   1.052   1.655  0.00  0.00    +0.295 HD
ENDBRANCH   5   7
ENDBRANCH   1   5
BRANCH   1   9
ATOM      9  C   UNK     1       2.880   0.194  -1.525  0.00  0.00    +0.099 C 
BRANCH   9  10
ATOM     10  S   UNK     1       2.136  -1.165  -2.502  0.00  0.00    -0.149 S 
BRANCH  10  11
ATOM     11  C   UNK     1       2.910  -0.815  -4.121  0.00  0.00    +0.164 C 
BRANCH  11  12
ATOM     12  C   UNK     1       2.504  -1.807  -5.204  0.00  0.00    +0.220 C 
ATOM     13  O   UNK     1       2.900  -1.704  -6.365  0.00  0.00    -0.275 OA
ATOM     14  N   UNK     1       1.681  -2.835  -4.854  0.00  0.00    -0.329 N 
ATOM     15  H   UNK     1       1.408  -3.508  -5.555  0.00  0.00    +0.145 HD
ATOM     16  H   UNK     1       1.362  -2.941  -3.898  0.00  0.00    +0.145 HD
ENDBRANCH  11  12
ENDBRANCH  10  11
ENDBRANCH   9  10
ENDBRANCH   1   9
TORSDOF 7
