REMARK  Name = 
REMARK  4 active torsions:
REMARK  status: ('A' for Active; 'I' for Inactive)
REMARK    1  A    between atoms: C_2  and  C_8
REMARK    2  A    between atoms: C_8  and  O_9
REMARK    3  A    between atoms: C_18  and  C_20
REMARK    4  A    between atoms: C_27  and  C_28
REMARK                            x       y       z     vdW  Elec       q    Type
REMARK                         _______ _______ _______ _____ _____    ______ ____
ROOT
ATOM      1  C   UNL     1       4.037   2.174   6.969  0.00  0.00    +0.190 C 
ATOM      2  O   UNL     1       4.662   3.310   7.623  0.00  0.00    -0.344 OA
ATOM      3  C   UNL     1       3.918   4.538   7.624  0.00  0.00    +0.125 C 
ATOM      4  C   UNL     1       4.343   5.652   8.621  0.00  0.00    +0.032 C 
ATOM      5  C   UNL     1       3.657   5.618   9.999  0.00  0.00    +0.010 C 
ATOM      6  C   UNL     1       2.192   6.192  10.142  0.00  0.00    +0.009 C 
ATOM      7  C   UNL     1       2.004   7.633   9.696  0.00  0.00    +0.012 C 
ATOM      8  C   UNL     1       1.844   5.985  11.564  0.00  0.00    -0.024 C 
ATOM      9  C   UNL     1       2.165   6.830  12.557  0.00  0.00    -0.004 C 
ATOM     10  C   UNL     1       2.631   6.166  13.733  0.00  0.00    -0.005 C 
ATOM     11  C   UNL     1       1.939   6.098  14.844  0.00  0.00    -0.027 C 
ATOM     12  C   UNL     1       2.171   4.878  15.673  0.00  0.00    +0.031 C 
ATOM     13  C   UNL     1       0.973   3.934  15.427  0.00  0.00    +0.035 C 
ATOM     14  C   UNL     1       1.491   2.711  14.557  0.00  0.00    -0.066 C 
ATOM     15  C   UNL     1       1.937   1.747  15.667  0.00  0.00    +0.039 C 
ATOM     16  C   UNL     1       1.553   2.844  13.132  0.00  0.00    +0.090 C 
ATOM     17  C   UNL     1       2.252   2.271  11.629  0.00  0.00    +0.332 C 
ATOM     18  O   UNL     1       3.102   1.385  11.669  0.00  0.00    -0.246 OA
ATOM     19  O   UNL     1       1.896   2.942  10.368  0.00  0.00    -0.458 OA
ATOM     20  C   UNL     1       2.067   2.984   8.648  0.00  0.00    +0.184 C 
ATOM     21  C   UNL     1       2.430   4.284   7.814  0.00  0.00    +0.076 C 
ATOM     22  C   UNL     1       2.578   1.920   7.566  0.00  0.00    +0.111 C 
ENDROOT
BRANCH   1  23
ATOM     23  C   UNL     1       4.327   1.999   5.332  0.00  0.00    +0.143 C 
ATOM     24  N   UNL     1       3.727   0.773   4.775  0.00  0.00    -0.298 N 
ATOM     25  H   UNL     1       4.082  -0.150   5.003  0.00  0.00    +0.150 HD
ATOM     26  C   UNL     1       2.782   0.880   3.796  0.00  0.00    +0.272 C 
ATOM     27  O   UNL     1       2.216  -0.047   3.247  0.00  0.00    -0.263 OA
ATOM     28  S   UNL     1       2.513   2.581   3.464  0.00  0.00    -0.066 S 
ATOM     29  C   UNL     1       4.104   3.039   4.219  0.00  0.00    +0.106 C 
ENDBRANCH   1  23
BRANCH   1  30
ATOM     30  O   UNL     1       4.795   1.028   7.435  0.00  0.00    -0.363 OA
ATOM     31  H   UNL     1       4.592   0.934   8.379  0.00  0.00    +0.213 HD
ENDBRANCH   1  30
TORSDOF 2
