REMARK  Name = 
REMARK  5 active torsions:
REMARK  status: ('A' for Active; 'I' for Inactive)
REMARK    1  A    between atoms: O_1  and  B_2
REMARK    2  A    between atoms: B_2  and  O_3
REMARK    3  A    between atoms: B_2  and  C_4
REMARK    4  A    between atoms: C_8  and  N_9
REMARK    5  A    between atoms: C_10  and  C_12
REMARK                            x       y       z     vdW  Elec       q    Type
REMARK                         _______ _______ _______ _____ _____    ______ ____
ROOT
ATOM      1  C   UNL     1       3.290  -1.211   0.562  0.00  0.00    +0.000 A 
ATOM      2  C   UNL     1       2.634  -2.442   0.373  0.00  0.00    +0.000 A 
ATOM      3  C   UNL     1       3.277  -3.666   0.663  0.00  0.00    +0.000 A 
ATOM      4  C   UNL     1       4.608  -3.622   1.135  0.00  0.00    +0.000 A 
ATOM      5  C   UNL     1       5.262  -2.402   1.312  0.00  0.00    +0.000 A 
ATOM      6  C   UNL     1       4.610  -1.203   1.032  0.00  0.00    +0.000 A 
ENDROOT
BRANCH   3   7
ATOM      7  N   UNL     1       2.550  -4.889   0.443  0.00  0.00    +0.000 N 
ATOM      8  H   UNL     1       1.671  -4.812  -0.092  0.00  0.00    +0.000 HD
ATOM      9  C   UNL     1       2.889  -6.135   0.889  0.00  0.00    +0.000 C 
ATOM     10  O   UNL     1       3.867  -6.326   1.590  0.00  0.00    +0.000 OA
BRANCH   9  11
ATOM     11  C   UNL     1       2.040  -7.326   0.527  0.00  0.00    +0.000 C 
ATOM     12  I   UNL     1       0.035  -7.112   1.237  0.00  0.00    +0.000 I 
ENDBRANCH   9  11
ENDBRANCH   3   7
BRANCH   1  13
ATOM     13  B   UNL     1       2.560   0.156   0.255  0.00  0.00    +0.000 B 
BRANCH  13  14
ATOM     14  O   UNL     1       3.254   1.426   0.480  0.00  0.00    +0.000 OA
ATOM     15  H   UNL     1       2.991   2.005  -0.280  0.00  0.00    +0.000 HD
ENDBRANCH  13  14
BRANCH  13  16
ATOM     16  O   UNL     1       1.170   0.172  -0.201  0.00  0.00    +0.000 OA
ATOM     17  H   UNL     1       0.699   0.758   0.445  0.00  0.00    +0.000 HD
ENDBRANCH  13  16
ENDBRANCH   1  13
TORSDOF 5
