REMARK  Name = 
REMARK  3 active torsions:
REMARK  status: ('A' for Active; 'I' for Inactive)
REMARK    1  A    between atoms: N_1  and  C_2
REMARK    2  A    between atoms: C_5  and  C_8
REMARK    3  A    between atoms: C_8  and  O_9
REMARK                            x       y       z     vdW  Elec       q    Type
REMARK                         _______ _______ _______ _____ _____    ______ ____
ROOT
ATOM      1  C   UNL     1       2.544   0.044   0.022  0.00  0.00    +0.025 A 
ATOM      2  C   UNL     1       3.281  -1.142  -0.028  0.00  0.00    +0.023 A 
ATOM      3  C   UNL     1       4.669  -1.115  -0.192  0.00  0.00    +0.017 A 
ATOM      4  C   UNL     1       5.343   0.107  -0.269  0.00  0.00    +0.059 A 
ATOM      5  C   UNL     1       4.624   1.300  -0.135  0.00  0.00    +0.017 A 
ATOM      6  C   UNL     1       3.234   1.261   0.021  0.00  0.00    +0.023 A 
ENDROOT
BRANCH   1   7
ATOM      7  N   UNL     1       1.178   0.011   0.315  0.00  0.00    -0.358 N 
ATOM      8  H   UNL     1       0.711  -0.842   0.022  0.00  0.00    +0.142 HD
ATOM      9  H   UNL     1       0.669   0.843   0.036  0.00  0.00    +0.142 HD
ENDBRANCH   1   7
BRANCH   4  10
ATOM     10  C   UNL     1       6.821   0.085  -0.421  0.00  0.00    +0.337 C 
ATOM     11  O   UNL     1       7.517  -0.821   0.002  0.00  0.00    -0.245 OA
BRANCH  10  12
ATOM     12  O   UNL     1       7.314   1.133  -1.113  0.00  0.00    -0.477 OA
ATOM     13  H   UNL     1       6.646   1.686  -1.556  0.00  0.00    +0.295 HD
ENDBRANCH  10  12
ENDBRANCH   4  10
TORSDOF 3
