REMARK  Name = 
REMARK  12 active torsions:
REMARK  status: ('A' for Active; 'I' for Inactive)
REMARK    1  A    between atoms: O_1  and  C_2
REMARK    2  A    between atoms: C_4  and  C_6
REMARK    3  A    between atoms: C_6  and  O_7
REMARK    4  A    between atoms: O_7  and  P_8
REMARK    5  A    between atoms: P_8  and  O_9
REMARK    6  A    between atoms: P_8  and  O_10
REMARK    7  A    between atoms: C_13  and  N_18
REMARK    8  A    between atoms: C_15  and  O_17
REMARK    9  A    between atoms: C_27  and  S_28
REMARK   10  A    between atoms: S_28  and  P_29
REMARK   11  A    between atoms: P_29  and  O_30
REMARK   12  A    between atoms: P_29  and  O_31
REMARK                            x       y       z     vdW  Elec       q    Type
REMARK                         _______ _______ _______ _____ _____    ______ ____
ROOT
ATOM      1  C   UNL     1       2.422  -0.032   0.144  0.00  0.00    +0.178 C 
ATOM      2  C   UNL     1       2.956  -1.283   0.839  0.00  0.00    +0.195 C 
ATOM      3  C   UNL     1       4.263  -0.803   1.481  0.00  0.00    +0.253 C 
ATOM      4  O   UNL     1       4.349   0.627   1.312  0.00  0.00    -0.346 OA
ATOM      5  C   UNL     1       3.036   1.112   0.948  0.00  0.00    +0.178 C 
ENDROOT
BRANCH   3   6
ATOM      6  N   UNL     1       5.454  -1.414   0.908  0.00  0.00    -0.285 N 
ATOM      7  C   UNL     1       6.054  -2.577   1.327  0.00  0.00    +0.175 A 
ATOM      8  N   UNL     1       5.660  -3.388   2.308  0.00  0.00    -0.173 NA
ATOM      9  C   UNL     1       6.471  -4.459   2.392  0.00  0.00    +0.430 A 
ATOM     10  N   UNL     1       7.550  -4.695   1.640  0.00  0.00    -0.187 N 
ATOM     11  C   UNL     1       7.984  -3.856   0.690  0.00  0.00    +0.282 A 
ATOM     12  H   UNL     1       8.036  -5.581   1.756  0.00  0.00    +0.455 HD
ATOM     13  C   UNL     1       7.158  -2.749   0.493  0.00  0.00    +0.187 A 
ATOM     14  N   UNL     1       7.191  -1.739  -0.440  0.00  0.00    -0.227 NA
ATOM     15  C   UNL     1       6.189  -0.936  -0.146  0.00  0.00    +0.204 A 
BRANCH  11  16
ATOM     16  S   UNL     1       9.262  -4.289  -0.413  0.00  0.00    +0.066 S 
BRANCH  16  17
ATOM     17  P   UNL     1      10.952  -3.416   0.525  0.00  0.00    +0.396 P 
ATOM     18  O   UNL     1      12.186  -2.780   1.210  0.00  0.00    -0.246 OA
BRANCH  17  19
ATOM     19  O   UNL     1      10.085  -2.031   0.602  0.00  0.00    -0.316 OA
ATOM     20  H   UNL     1      10.670  -1.308   0.298  0.00  0.00    +0.221 HD
ENDBRANCH  17  19
BRANCH  17  21
ATOM     21  O   UNL     1      11.517  -3.117  -0.986  0.00  0.00    -0.316 OA
ATOM     22  H   UNL     1      11.559  -3.887  -1.580  0.00  0.00    +0.221 HD
ENDBRANCH  17  21
ENDBRANCH  16  17
ENDBRANCH  11  16
ENDBRANCH   3   6
BRANCH   1  23
ATOM     23  O   UNL     1       2.881  -0.031  -1.210  0.00  0.00    -0.386 OA
ATOM     24  H   UNL     1       3.680   0.521  -1.287  0.00  0.00    +0.210 HD
ENDBRANCH   1  23
BRANCH   2  25
ATOM     25  O   UNL     1       2.065  -1.727   1.868  0.00  0.00    -0.385 OA
ATOM     26  H   UNL     1       1.143  -1.628   1.566  0.00  0.00    +0.210 HD
ENDBRANCH   2  25
BRANCH   5  27
ATOM     27  C   UNL     1       2.210   1.458   2.195  0.00  0.00    +0.206 C 
BRANCH  27  28
ATOM     28  O   UNL     1       2.778   2.588   2.856  0.00  0.00    -0.284 OA
BRANCH  28  29
ATOM     29  P   UNL     1       1.900   3.038   4.278  0.00  0.00    +0.472 P 
ATOM     30  O   UNL     1       1.115   3.441   5.550  0.00  0.00    -0.228 OA
BRANCH  29  31
ATOM     31  O   UNL     1       2.936   4.294   4.411  0.00  0.00    -0.303 OA
ATOM     32  H   UNL     1       2.532   4.931   5.036  0.00  0.00    +0.222 HD
ENDBRANCH  29  31
BRANCH  29  33
ATOM     33  O   UNL     1       2.871   1.971   5.057  0.00  0.00    -0.303 OA
ATOM     34  H   UNL     1       3.725   2.421   5.189  0.00  0.00    +0.222 HD
ENDBRANCH  29  33
ENDBRANCH  28  29
ENDBRANCH  27  28
ENDBRANCH   5  27
TORSDOF 12
