REMARK  Name = 
REMARK  17 active torsions:
REMARK  status: ('A' for Active; 'I' for Inactive)
REMARK    1  A    between atoms: C_2  and  C_3
REMARK    2  A    between atoms: C_2  and  C_4
REMARK    3  A    between atoms: C_2  and  C_15
REMARK    4  A    between atoms: C_4  and  C_5
REMARK    5  A    between atoms: C_5  and  C_6
REMARK    6  A    between atoms: C_6  and  N_8
REMARK    7  A    between atoms: C_6  and  C_9
REMARK    8  A    between atoms: C_9  and  C_11
REMARK    9  A    between atoms: C_9  and  C_12
REMARK   10  A    between atoms: C_12  and  O_13
REMARK   11  A    between atoms: C_15  and  C_16
REMARK   12  A    between atoms: C_16  and  C_18
REMARK   13  A    between atoms: C_16  and  C_19
REMARK   14  A    between atoms: C_19  and  C_21
REMARK   15  A    between atoms: C_19  and  O_28
REMARK   16  A    between atoms: C_21  and  C_22
REMARK   17  A    between atoms: O_28  and  C_29
REMARK                            x       y       z     vdW  Elec       q    Type
REMARK                         _______ _______ _______ _____ _____    ______ ____
ROOT
ATOM      1  C   UNL     1       4.891   3.868  -3.027  0.00  0.00    -0.014 C 
ATOM      2  C   UNL     1       5.002   5.383  -3.197  0.00  0.00    +0.007 C 
ENDROOT
BRANCH   1   3
ATOM      3  C   UNL     1       4.155   3.203  -4.236  0.00  0.00    +0.009 C 
BRANCH   3   4
ATOM      4  C   UNL     1       2.756   3.718  -4.613  0.00  0.00    +0.015 C 
ATOM      5  C   UNL     1       1.776   3.482  -3.449  0.00  0.00    +0.010 C 
BRANCH   4   6
ATOM      6  C   UNL     1       2.182   3.051  -5.911  0.00  0.00    +0.125 C 
BRANCH   6   7
ATOM      7  O   UNL     1       0.905   3.659  -6.174  0.00  0.00    -0.379 OA
ATOM      8  C   UNL     1       0.102   2.982  -7.129  0.00  0.00    +0.194 C 
ENDBRANCH   6   7
BRANCH   6   9
ATOM      9  C   UNL     1       3.097   3.045  -7.173  0.00  0.00    +0.067 C 
BRANCH   9  10
ATOM     10  C   UNL     1       3.356   4.313  -7.963  0.00  0.00    -0.045 A 
ATOM     11  C   UNL     1       4.041   4.200  -9.188  0.00  0.00    +0.004 A 
ATOM     12  C   UNL     1       4.270   5.316  -9.996  0.00  0.00    +0.000 A 
ATOM     13  C   UNL     1       3.829   6.570  -9.586  0.00  0.00    +0.000 A 
ATOM     14  C   UNL     1       3.157   6.703  -8.375  0.00  0.00    +0.000 A 
ATOM     15  C   UNL     1       2.917   5.584  -7.575  0.00  0.00    +0.004 A 
ENDBRANCH   9  10
ENDBRANCH   6   9
ENDBRANCH   4   6
ENDBRANCH   3   4
ENDBRANCH   1   3
BRANCH   1  16
ATOM     16  C   UNL     1       6.274   3.192  -2.984  0.00  0.00    +0.005 C 
BRANCH  16  17
ATOM     17  C   UNL     1       7.257   3.445  -1.831  0.00  0.00    +0.019 C 
BRANCH  17  18
ATOM     18  C   UNL     1       8.406   2.384  -1.877  0.00  0.00    +0.064 C 
BRANCH  18  19
ATOM     19  N   UNL     1       9.436   2.640  -0.867  0.00  0.00    -0.326 NA
ATOM     20  H   UNL     1      10.019   3.432  -1.168  0.00  0.00    +0.118 HD
ATOM     21  H   UNL     1       9.021   2.921   0.020  0.00  0.00    +0.118 HD
ENDBRANCH  18  19
BRANCH  18  22
ATOM     22  C   UNL     1       9.004   2.166  -3.301  0.00  0.00    +0.111 C 
ATOM     23  C   UNL     1       9.936   0.964  -3.406  0.00  0.00    +0.021 C 
BRANCH  22  24
ATOM     24  C   UNL     1       9.701   3.411  -3.834  0.00  0.00    +0.309 C 
ATOM     25  O   UNL     1      10.398   4.158  -3.162  0.00  0.00    -0.251 OA
BRANCH  24  26
ATOM     26  O   UNL     1       9.492   3.621  -5.151  0.00  0.00    -0.480 OA
ATOM     27  H   UNL     1       8.925   2.957  -5.587  0.00  0.00    +0.295 HD
ENDBRANCH  24  26
ENDBRANCH  22  24
ENDBRANCH  18  22
ENDBRANCH  17  18
ENDBRANCH  16  17
ENDBRANCH   1  16
TORSDOF 13
