REMARK  Name = 
REMARK  6 active torsions:
REMARK  status: ('A' for Active; 'I' for Inactive)
REMARK    1  A    between atoms: N_1  and  CA_2
REMARK    2  A    between atoms: CA_2  and  C_4
REMARK    3  A    between atoms: CA_2  and  C_15
REMARK    4  A    between atoms: C_4  and  C_5
REMARK    5  A    between atoms: C_11  and  O_12
REMARK    6  A    between atoms: C_15  and  O_16
REMARK                            x       y       z     vdW  Elec       q    Type
REMARK                         _______ _______ _______ _____ _____    ______ ____
ROOT
ATOM      1  C   UNL     1       2.582   1.596  -1.831  0.00  0.00    -0.020 A 
ATOM      2  C   UNL     1       2.521   2.893  -2.442  0.00  0.00    +0.006 A 
ATOM      3  C   UNL     1       2.835   4.200  -2.010  0.00  0.00    +0.055 A 
ATOM      4  C   UNL     1       2.627   5.269  -2.884  0.00  0.00    +0.118 A 
ATOM      5  C   UNL     1       2.133   5.071  -4.166  0.00  0.00    +0.047 A 
ATOM      6  C   UNL     1       1.833   3.786  -4.622  0.00  0.00    +0.030 A 
ATOM      7  C   UNL     1       2.032   2.720  -3.738  0.00  0.00    +0.047 A 
ATOM      8  N   UNL     1       1.829   1.372  -3.918  0.00  0.00    -0.360 N 
ATOM      9  H   UNL     1       1.497   0.953  -4.777  0.00  0.00    +0.165 HD
ATOM     10  C   UNL     1       2.150   0.688  -2.777  0.00  0.00    +0.087 A 
ENDROOT
BRANCH   4  11
ATOM     11  O   UNL     1       2.901   6.553  -2.505  0.00  0.00    -0.507 OA
ATOM     12  H   UNL     1       3.274   6.543  -1.609  0.00  0.00    +0.292 HD
ENDBRANCH   4  11
BRANCH   1  13
ATOM     13  C   UNL     1       3.041   1.271  -0.441  0.00  0.00    +0.067 C 
BRANCH  13  14
ATOM     14  CA  UNL     1       1.905   1.243   0.593  0.00  0.00    +0.165 C 
BRANCH  14  15
ATOM     15  N   UNL     1       1.180   2.554   0.726  0.00  0.00    -0.318 NA
ATOM     16  H1  UNL     1       1.856   3.305   0.554  0.00  0.00    +0.119 HD
ATOM     17  H2  UNL     1       0.558   2.623  -0.090  0.00  0.00    +0.119 HD
ENDBRANCH  14  15
BRANCH  14  18
ATOM     18  C   UNL     1       2.493   0.882   1.967  0.00  0.00    +0.322 C 
ATOM     19  OXT UNL     1       3.232  -0.062   2.195  0.00  0.00    -0.249 OA
BRANCH  18  20
ATOM     20  O   UNL     1       2.082   1.757   2.923  0.00  0.00    -0.480 OA
ATOM     21  H   UNL     1       1.465   2.381   2.462  0.00  0.00    +0.295 HD
ENDBRANCH  18  20
ENDBRANCH  14  18
ENDBRANCH  13  14
ENDBRANCH   1  13
TORSDOF 6
