REMARK  Name = 
REMARK  11 active torsions:
REMARK  status: ('A' for Active; 'I' for Inactive)
REMARK    1  A    between atoms: N_1  and  C_2
REMARK    2  A    between atoms: C_3  and  S_48
REMARK    3  A    between atoms: C_5  and  N_6
REMARK    4  A    between atoms: N_6  and  C_7
REMARK    5  A    between atoms: C_10  and  N_11
REMARK    6  A    between atoms: N_18  and  C_19
REMARK    7  A    between atoms: C_24  and  S_25
REMARK    8  A    between atoms: S_25  and  O_26
REMARK    9  A    between atoms: C_30  and  S_32
REMARK   10  A    between atoms: S_32  and  O_33
REMARK   11  A    between atoms: S_48  and  O_49
REMARK                            x       y       z     vdW  Elec       q    Type
REMARK                         _______ _______ _______ _____ _____    ______ ____
ROOT
ATOM      1  C   UNL     1       7.381   1.207  -0.025  0.00  0.00    +0.033 A 
ATOM      2  C   UNL     1       8.718   1.277  -0.422  0.00  0.00    +0.054 A 
ATOM      3  C   UNL     1       9.421   2.509  -0.372  0.00  0.00    +0.140 A 
ATOM      4  C   UNL     1       8.817   3.698   0.082  0.00  0.00    +0.061 A 
ATOM      5  C   UNL     1       7.501   3.574   0.540  0.00  0.00    +0.027 A 
ATOM      6  C   UNL     1       6.811   2.362   0.508  0.00  0.00    +0.025 A 
ENDROOT
BRANCH   4   7
ATOM      7  N   UNL     1       9.472   4.943   0.156  0.00  0.00    -0.282 N 
ATOM      8  H   UNL     1      10.213   5.119  -0.522  0.00  0.00    +0.155 HD
ATOM      9  C   UNL     1       9.088   6.126   0.803  0.00  0.00    +0.225 A 
ATOM     10  N   UNL     1       9.513   7.273   0.287  0.00  0.00    -0.181 NA
ATOM     11  C   UNL     1       9.096   8.414   0.849  0.00  0.00    +0.225 A 
ATOM     12  N   UNL     1       9.383   9.661   0.258  0.00  0.00    -0.282 N 
ATOM     13  H   UNL     1       8.863  10.381   0.763  0.00  0.00    +0.155 HD
ATOM     14  N   UNL     1       8.333   8.451   1.928  0.00  0.00    -0.184 NA
ATOM     15  C   UNL     1       7.999   7.249   2.377  0.00  0.00    +0.229 A 
ATOM     16 CL   UNL     1       6.930   7.207   3.712  0.00  0.00    -0.041 Cl
ATOM     17  N   UNL     1       8.316   6.070   1.873  0.00  0.00    -0.184 NA
BRANCH  12  18
ATOM     18  C   UNL     1       9.642   9.923  -1.106  0.00  0.00    +0.061 A 
ATOM     19  C   UNL     1       9.176  11.061  -1.791  0.00  0.00    +0.138 A 
ATOM     20  C   UNL     1       9.245  11.152  -3.194  0.00  0.00    +0.031 A 
ATOM     21  C   UNL     1       9.877  10.157  -3.930  0.00  0.00    +0.002 A 
ATOM     22  C   UNL     1      10.476   9.099  -3.263  0.00  0.00    +0.002 A 
ATOM     23  C   UNL     1      10.362   8.993  -1.876  0.00  0.00    +0.025 A 
BRANCH  19  24
ATOM     24  S   UNL     1       8.547  12.493  -0.961  0.00  0.00    +0.111 S 
ATOM     25  O   UNL     1       9.420  13.604  -1.278  0.00  0.00    -0.142 OA
ATOM     26  O   UNL     1       8.228  12.136   0.403  0.00  0.00    -0.142 OA
BRANCH  24  27
ATOM     27  O   UNL     1       7.121  12.778  -1.661  0.00  0.00    -0.250 OA
ATOM     28  H   UNL     1       6.457  12.886  -0.948  0.00  0.00    +0.245 HD
ENDBRANCH  24  27
ENDBRANCH  19  24
ENDBRANCH  12  18
ENDBRANCH   4   7
BRANCH   3  29
ATOM     29  S   UNL     1      11.075   2.483  -1.010  0.00  0.00    +0.111 S 
ATOM     30  O   UNL     1      11.853   1.579  -0.194  0.00  0.00    -0.142 OA
ATOM     31  O   UNL     1      11.488   3.847  -1.272  0.00  0.00    -0.142 OA
BRANCH  29  32
ATOM     32  O   UNL     1      10.897   1.820  -2.472  0.00  0.00    -0.250 OA
ATOM     33  H   UNL     1      10.747   2.539  -3.121  0.00  0.00    +0.245 HD
ENDBRANCH  29  32
ENDBRANCH   3  29
BRANCH   1  34
ATOM     34  N   UNL     1       6.610   0.048  -0.249  0.00  0.00    -0.314 N 
ATOM     35  H   UNL     1       6.997  -0.810   0.166  0.00  0.00    +0.152 HD
BRANCH  34  49
ATOM     36  C   UNL     1       2.407   0.094  -1.011  0.00  0.00    +0.064 A 
ATOM     37  C   UNL     1       2.997  -1.035  -0.380  0.00  0.00    +0.057 A 
ATOM     38  C   UNL     1       2.133  -2.159   0.062  0.00  0.00    +0.196 C 
ATOM     39  C   UNL     1       2.728  -3.358   0.667  0.00  0.00    +0.033 A 
ATOM     40  C   UNL     1       4.090  -3.405   0.937  0.00  0.00    +0.033 A 
ATOM     41  C   UNL     1       4.959  -2.263   0.583  0.00  0.00    +0.196 C 
ATOM     42  O   UNL     1       6.154  -2.306   0.859  0.00  0.00    -0.287 OA
ATOM     43  C   UNL     1       4.634  -4.549   1.538  0.00  0.00    +0.012 A 
ATOM     44  C   UNL     1       3.814  -5.638   1.848  0.00  0.00    +0.001 A 
ATOM     45  C   UNL     1       2.451  -5.591   1.563  0.00  0.00    +0.001 A 
ATOM     46  C   UNL     1       1.905  -4.450   0.977  0.00  0.00    +0.012 A 
ATOM     47  O   UNL     1       0.913  -2.096  -0.059  0.00  0.00    -0.287 OA
ATOM     48  C   UNL     1       4.386  -1.083  -0.121  0.00  0.00    +0.056 A 
ATOM     49  C   UNL     1       5.216  -0.010  -0.520  0.00  0.00    +0.045 A 
ATOM     50  C   UNL     1       4.624   1.066  -1.204  0.00  0.00    +0.055 A 
ATOM     51  C   UNL     1       3.248   1.136  -1.405  0.00  0.00    +0.140 A 
BRANCH  36  52
ATOM     52  N   UNL     1       1.021   0.154  -1.327  0.00  0.00    -0.356 N 
ATOM     53  H   UNL     1       0.528  -0.671  -0.939  0.00  0.00    +0.142 HD
ATOM     54  H   UNL     1       0.579   0.989  -0.923  0.00  0.00    +0.142 HD
ENDBRANCH  36  52
BRANCH  51  55
ATOM     55  S   UNL     1       2.565   2.594  -2.150  0.00  0.00    +0.111 S 
ATOM     56  O   UNL     1       3.649   3.429  -2.614  0.00  0.00    -0.142 OA
ATOM     57  O   UNL     1       1.562   3.089  -1.227  0.00  0.00    -0.142 OA
BRANCH  55  58
ATOM     58  O   UNL     1       1.784   2.018  -3.441  0.00  0.00    -0.250 OA
ATOM     59  H   UNL     1       1.137   1.343  -3.132  0.00  0.00    +0.245 HD
ENDBRANCH  55  58
ENDBRANCH  51  55
ENDBRANCH  34  49
ENDBRANCH   1  34
TORSDOF 11
