REMARK  Name = 
REMARK  11 active torsions:
REMARK  status: ('A' for Active; 'I' for Inactive)
REMARK    1  A    between atoms: N_1  and  C_2
REMARK    2  A    between atoms: C_2  and  C_4
REMARK    3  A    between atoms: C_2  and  C_6
REMARK    4  A    between atoms: C_4  and  S_5
REMARK    5  A    between atoms: N_8  and  S_9
REMARK    6  A    between atoms: S_9  and  O_12
REMARK    7  A    between atoms: O_12  and  C_13
REMARK    8  A    between atoms: C_13  and  C_14
REMARK    9  A    between atoms: C_17  and  N_25
REMARK   10  A    between atoms: C_19  and  O_21
REMARK   11  A    between atoms: C_22  and  O_24
REMARK                            x       y       z     vdW  Elec       q    Type
REMARK                         _______ _______ _______ _____ _____    ______ ____
ROOT
ATOM      1  C   UNL     1       8.724  -3.300   3.318  0.00  0.00    +0.180 C 
ATOM      2  C   UNL     1       9.228  -4.601   3.945  0.00  0.00    +0.178 C 
ATOM      3  C   UNL     1      10.488  -4.210   4.724  0.00  0.00    +0.195 C 
ATOM      4  C   UNL     1      10.567  -2.683   4.588  0.00  0.00    +0.253 C 
ATOM      5  O   UNL     1       9.254  -2.252   4.160  0.00  0.00    -0.346 OA
ENDROOT
BRANCH   4   6
ATOM      6  N   UNL     1      10.954  -1.938   5.772  0.00  0.00    -0.286 N 
ATOM      7  C   UNL     1      11.918  -2.282   6.685  0.00  0.00    +0.167 A 
ATOM      8  N   UNL     1      12.587  -3.445   6.787  0.00  0.00    -0.216 NA
ATOM      9  C   UNL     1      13.457  -3.405   7.824  0.00  0.00    +0.225 A 
ATOM     10  N   UNL     1      13.721  -2.382   8.665  0.00  0.00    -0.219 NA
ATOM     11  C   UNL     1      13.054  -1.219   8.490  0.00  0.00    +0.147 A 
ATOM     12  N   UNL     1      13.365  -0.151   9.319  0.00  0.00    -0.341 N 
ATOM     13  H   UNL     1      12.648   0.565   9.362  0.00  0.00    +0.144 HD
ATOM     14  H   UNL     1      13.818  -0.431  10.178  0.00  0.00    +0.144 HD
ATOM     15  C   UNL     1      12.079  -1.155   7.480  0.00  0.00    +0.147 A 
ATOM     16  N   UNL     1      11.220  -0.151   7.086  0.00  0.00    -0.231 NA
ATOM     17  C   UNL     1      10.573  -0.648   6.054  0.00  0.00    +0.203 A 
ENDBRANCH   4   6
BRANCH   2  18
ATOM     18  O   UNL     1       8.243  -5.094   4.873  0.00  0.00    -0.386 OA
ATOM     19  H   UNL     1       8.022  -4.383   5.500  0.00  0.00    +0.210 HD
ENDBRANCH   2  18
BRANCH   3  20
ATOM     20  O   UNL     1      11.645  -4.827   4.154  0.00  0.00    -0.385 OA
ATOM     21  H   UNL     1      12.362  -4.730   4.813  0.00  0.00    +0.210 HD
ENDBRANCH   3  20
BRANCH   1  22
ATOM     22  C   UNL     1       9.176  -3.080   1.867  0.00  0.00    +0.229 C 
BRANCH  22  23
ATOM     23  O   UNL     1       8.611  -4.048   0.997  0.00  0.00    -0.220 OA
BRANCH  23  24
ATOM     24  S   UNL     1       9.017  -3.947  -0.576  0.00  0.00    +0.169 S 
ATOM     25  O   UNL     1       8.303  -2.818  -1.136  0.00  0.00    -0.126 OA
ATOM     26  O   UNL     1      10.454  -4.042  -0.691  0.00  0.00    -0.126 OA
BRANCH  24  28
ATOM     27  C   UNL     1       8.557  -6.591  -0.825  0.00  0.00    +0.251 C 
ATOM     28  N   UNL     1       8.356  -5.282  -1.274  0.00  0.00    -0.164 N 
ATOM     29  H   UNL     1       7.889  -5.150  -2.169  0.00  0.00    +0.179 HD
ATOM     30  O   UNL     1       9.202  -6.856   0.181  0.00  0.00    -0.272 OA
BRANCH  27  31
ATOM     31  C   UNL     1       7.835  -7.680  -1.641  0.00  0.00    +0.149 C 
BRANCH  31  32
ATOM     32  N   UNL     1       7.168  -7.117  -2.854  0.00  0.00    -0.319 NA
ATOM     33  H   UNL     1       6.956  -7.899  -3.483  0.00  0.00    +0.119 HD
ATOM     34  H   UNL     1       6.241  -6.780  -2.573  0.00  0.00    +0.119 HD
ENDBRANCH  31  32
BRANCH  31  35
ATOM     35  C   UNL     1       6.856  -8.427  -0.717  0.00  0.00    +0.093 C 
BRANCH  35  36
ATOM     36  S   UNL     1       5.482  -7.373  -0.125  0.00  0.00    -0.176 S 
ATOM     37  H   UNL     1       6.221  -6.589   0.682  0.00  0.00    +0.102 HD
ENDBRANCH  35  36
ENDBRANCH  31  35
ENDBRANCH  27  31
ENDBRANCH  24  28
ENDBRANCH  23  24
ENDBRANCH  22  23
ENDBRANCH   1  22
TORSDOF 11
