REMARK  Name = 
REMARK  4 active torsions:
REMARK  status: ('A' for Active; 'I' for Inactive)
REMARK    1  A    between atoms: O_1  and  C_2
REMARK    2  A    between atoms: C_2  and  C_3
REMARK    3  A    between atoms: C_12  and  O_14
REMARK    4  A    between atoms: C_15  and  O_17
REMARK                            x       y       z     vdW  Elec       q    Type
REMARK                         _______ _______ _______ _____ _____    ______ ____
ROOT
ATOM      1  C   UNL     1       2.968   1.060  -0.900  0.00  0.00    +0.178 C 
ATOM      2  C   UNL     1       3.608   2.050   0.089  0.00  0.00    +0.177 C 
ATOM      3  C   UNL     1       2.579   2.929   0.813  0.00  0.00    +0.185 C 
ATOM      4  C   UNL     1       1.591   3.547  -0.163  0.00  0.00    +0.258 C 
ATOM      5  F   UNL     1       2.218   4.555  -0.841  0.00  0.00    -0.237 F 
ATOM      6  C   UNL     1       1.045   2.529  -1.158  0.00  0.00    +0.334 C 
ATOM      7  F   UNL     1       0.111   1.748  -0.556  0.00  0.00    -0.211 F 
ATOM      8  O   UNL     1       1.999   1.670  -1.764  0.00  0.00    -0.337 OA
ENDROOT
BRANCH   2   9
ATOM      9  O   UNL     1       4.512   2.872  -0.670  0.00  0.00    -0.386 OA
ATOM     10  H   UNL     1       4.782   3.632  -0.125  0.00  0.00    +0.210 HD
ENDBRANCH   2   9
BRANCH   3  11
ATOM     11  O   UNL     1       1.916   2.238   1.872  0.00  0.00    -0.386 OA
ATOM     12  H   UNL     1       1.507   1.423   1.500  0.00  0.00    +0.210 HD
ENDBRANCH   3  11
BRANCH   1  13
ATOM     13  C   UNL     1       2.457  -0.242  -0.259  0.00  0.00    +0.190 C 
BRANCH  13  14
ATOM     14  O   UNL     1       1.459  -0.023   0.732  0.00  0.00    -0.392 OA
ATOM     15  H   UNL     1       0.971  -0.865   0.824  0.00  0.00    +0.210 HD
ENDBRANCH  13  14
ENDBRANCH   1  13
TORSDOF 4
