REMARK  Name = 
REMARK  31 active torsions:
REMARK  status: ('A' for Active; 'I' for Inactive)
REMARK    1  A    between atoms: C_1  and  C_2
REMARK    2  A    between atoms: C_2  and  C_3
REMARK    3  A    between atoms: C_3  and  C_4
REMARK    4  A    between atoms: C_4  and  C_5
REMARK    5  A    between atoms: C_5  and  C_6
REMARK    6  A    between atoms: C_6  and  C_7
REMARK    7  A    between atoms: C_7  and  C_8
REMARK    8  A    between atoms: C_8  and  C_9
REMARK    9  A    between atoms: C_9  and  C_10
REMARK   10  A    between atoms: C_10  and  C_11
REMARK   11  A    between atoms: C_11  and  C_12
REMARK   12  A    between atoms: C_12  and  C_13
REMARK   13  A    between atoms: C_13  and  C_14
REMARK   14  A    between atoms: C_14  and  C_15
REMARK   15  A    between atoms: C_15  and  C_16
REMARK   16  A    between atoms: C_16  and  O_17
REMARK   17  A    between atoms: O_17  and  C_18
REMARK   18  A    between atoms: C_18  and  C_19
REMARK   19  A    between atoms: C_19  and  C_21
REMARK   20  A    between atoms: C_19  and  O_33
REMARK   21  A    between atoms: C_21  and  O_22
REMARK   22  A    between atoms: O_22  and  P_23
REMARK   23  A    between atoms: P_23  and  O_26
REMARK   24  A    between atoms: O_26  and  C_27
REMARK   25  A    between atoms: C_27  and  C_28
REMARK   26  A    between atoms: C_28  and  N_29
REMARK   27  A    between atoms: N_29  and  C_30
REMARK   28  A    between atoms: N_29  and  C_31
REMARK   29  A    between atoms: N_29  and  C_32
REMARK   30  A    between atoms: O_33  and  C_34
REMARK   31  A    between atoms: C_34  and  C_35
REMARK                            x       y       z     vdW  Elec       q    Type
REMARK                         _______ _______ _______ _____ _____    ______ ____
ROOT
ATOM      1  C   UNL     1      20.258  13.954   1.821  0.00  0.00    +0.206 C 
ENDROOT
BRANCH   1   2
ATOM      2  C   UNL     1      19.996  13.774   0.311  0.00  0.00    +0.228 C 
BRANCH   2   3
ATOM      3  C   UNL     1      21.221  13.493  -0.602  0.00  0.00    +0.214 C 
BRANCH   3   4
ATOM      4  O   UNL     1      22.209  12.593  -0.125  0.00  0.00    -0.324 OA
BRANCH   4   5
ATOM      5  P   UNL     1      22.304  11.105  -0.763  0.00  0.00    +0.213 P 
ATOM      6  O   UNL     1      21.491  10.986  -2.025  0.00  0.00    -0.517 OA
ATOM      7  O   UNL     1      22.182  10.102   0.352  0.00  0.00    -0.437 OA
BRANCH   5   8
ATOM      8  O   UNL     1      23.866  11.031  -1.290  0.00  0.00    -0.322 OA
BRANCH   8   9
ATOM      9  C   UNL     1      24.246   9.669  -1.487  0.00  0.00    +0.218 C 
BRANCH   9  10
ATOM     10  C   UNL     1      25.416   9.400  -2.441  0.00  0.00    +0.161 C 
BRANCH  10  11
ATOM     11  N   UNL     1      25.193   9.685  -3.951  0.00  0.00    +0.239 N 
ATOM     12  C   UNL     1      26.362   9.092  -4.733  0.00  0.00    +0.192 C 
ATOM     13  C   UNL     1      25.136  11.186  -4.185  0.00  0.00    +0.192 C 
ATOM     14  C   UNL     1      23.900   9.058  -4.461  0.00  0.00    +0.192 C 
ENDBRANCH  10  11
ENDBRANCH   9  10
ENDBRANCH   8   9
ENDBRANCH   5   8
ENDBRANCH   4   5
ENDBRANCH   3   4
ENDBRANCH   2   3
BRANCH   2  15
ATOM     15  O   UNL     1      19.232  14.904  -0.236  0.00  0.00    -0.457 OA
BRANCH  15  16
ATOM     16  C   UNL     1      19.799  16.139  -0.229  0.00  0.00    +0.304 C 
ATOM     17  O   UNL     1      20.919  16.413   0.183  0.00  0.00    -0.251 OA
ATOM     18  C   UNL     1      18.877  17.168  -0.812  0.00  0.00    +0.136 C 
ENDBRANCH  15  16
ENDBRANCH   2  15
ENDBRANCH   1   2
BRANCH   1  19
ATOM     19  O   UNL     1      19.046  14.393   2.474  0.00  0.00    -0.376 OA
BRANCH  19  20
ATOM     20  C   UNL     1      19.171  14.613   3.881  0.00  0.00    +0.160 C 
BRANCH  20  21
ATOM     21  C   UNL     1      20.091  15.784   4.241  0.00  0.00    +0.028 C 
BRANCH  21  22
ATOM     22  C   UNL     1      19.746  17.079   3.505  0.00  0.00    +0.002 C 
BRANCH  22  23
ATOM     23  C   UNL     1      18.439  17.700   3.986  0.00  0.00    +0.000 C 
BRANCH  23  24
ATOM     24  C   UNL     1      18.123  18.961   3.191  0.00  0.00    +0.000 C 
BRANCH  24  25
ATOM     25  C   UNL     1      16.828  19.596   3.682  0.00  0.00    +0.000 C 
BRANCH  25  26
ATOM     26  C   UNL     1      16.517  20.847   2.882  0.00  0.00    -0.000 C 
BRANCH  26  27
ATOM     27  C   UNL     1      15.237  21.506   3.378  0.00  0.00    -0.000 C 
BRANCH  27  28
ATOM     28  C   UNL     1      14.939  22.767   2.577  0.00  0.00    -0.000 C 
BRANCH  28  29
ATOM     29  C   UNL     1      13.661  23.427   3.074  0.00  0.00    -0.000 C 
BRANCH  29  30
ATOM     30  C   UNL     1      13.363  24.689   2.274  0.00  0.00    -0.000 C 
BRANCH  30  31
ATOM     31  C   UNL     1      12.083  25.348   2.773  0.00  0.00    -0.000 C 
BRANCH  31  32
ATOM     32  C   UNL     1      11.776  26.611   1.975  0.00  0.00    -0.000 C 
BRANCH  32  33
ATOM     33  C   UNL     1      10.492  27.266   2.476  0.00  0.00    -0.000 C 
BRANCH  33  35
ATOM     34  C   UNL     1       8.896  29.182   2.181  0.00  0.00    +0.004 C 
ATOM     35  C   UNL     1      10.175  28.530   1.684  0.00  0.00    -0.003 C 
ENDBRANCH  33  35
ENDBRANCH  32  33
ENDBRANCH  31  32
ENDBRANCH  30  31
ENDBRANCH  29  30
ENDBRANCH  28  29
ENDBRANCH  27  28
ENDBRANCH  26  27
ENDBRANCH  25  26
ENDBRANCH  24  25
ENDBRANCH  23  24
ENDBRANCH  22  23
ENDBRANCH  21  22
ENDBRANCH  20  21
ENDBRANCH  19  20
ENDBRANCH   1  19
TORSDOF 26
