REMARK  Name = 
REMARK  7 active torsions:
REMARK  status: ('A' for Active; 'I' for Inactive)
REMARK    1  A    between atoms: C_1  and  O_2
REMARK    2  A    between atoms: O_2  and  C_3
REMARK    3  A    between atoms: C_6  and  C_8
REMARK    4  A    between atoms: C_8  and  O_9
REMARK    5  A    between atoms: C_10  and  O_12
REMARK    6  A    between atoms: C_13  and  O_15
REMARK    7  A    between atoms: C_16  and  O_18
REMARK                            x       y       z     vdW  Elec       q    Type
REMARK                         _______ _______ _______ _____ _____    ______ ____
ROOT
ATOM      1  C   UNL     1       2.896   1.065  -0.886  0.00  0.00    +0.281 C 
ATOM      2  C   UNL     1       3.676   1.995   0.071  0.00  0.00    +0.201 C 
ATOM      3  C   UNL     1       2.690   2.799   0.930  0.00  0.00    +0.179 C 
ATOM      4  C   UNL     1       1.694   3.538   0.019  0.00  0.00    +0.177 C 
ATOM      5  C   UNL     1       0.982   2.519  -0.889  0.00  0.00    +0.178 C 
ATOM      6  O   UNL     1       1.919   1.749  -1.668  0.00  0.00    -0.341 OA
ENDROOT
BRANCH   1   8
ATOM      7  C   UNL     1       1.914  -1.097  -0.874  0.00  0.00    +0.197 C 
ATOM      8  O   UNL     1       2.309   0.021  -0.090  0.00  0.00    -0.352 OA
ENDBRANCH   1   8
BRANCH   2   9
ATOM      9  O   UNL     1       4.549   1.204   0.900  0.00  0.00    -0.384 OA
ATOM     10  H   UNL     1       3.986   0.508   1.288  0.00  0.00    +0.210 HD
ENDBRANCH   2   9
BRANCH   3  11
ATOM     11  O   UNL     1       3.400   3.719   1.774  0.00  0.00    -0.386 OA
ATOM     12  H   UNL     1       2.785   4.412   2.061  0.00  0.00    +0.210 HD
ENDBRANCH   3  11
BRANCH   4  13
ATOM     13  O   UNL     1       2.411   4.510  -0.753  0.00  0.00    -0.386 OA
ATOM     14  H   UNL     1       1.781   5.156  -1.112  0.00  0.00    +0.210 HD
ENDBRANCH   4  13
BRANCH   5  15
ATOM     15  C   UNL     1       0.040   3.216  -1.876  0.00  0.00    +0.190 C 
BRANCH  15  16
ATOM     16  O   UNL     1      -0.730   2.250  -2.589  0.00  0.00    -0.392 OA
ATOM     17  H   UNL     1      -0.076   1.639  -2.989  0.00  0.00    +0.210 HD
ENDBRANCH  15  16
ENDBRANCH   5  15
TORSDOF 6
