REMARK  Name = 
REMARK  5 active torsions:
REMARK  status: ('A' for Active; 'I' for Inactive)
REMARK    1  A    between atoms: O_1  and  C_2
REMARK    2  A    between atoms: C_2  and  C_4
REMARK    3  A    between atoms: C_9  and  N_10
REMARK    4  A    between atoms: N_10  and  C_11
REMARK    5  A    between atoms: C_13  and  C_17
REMARK                            x       y       z     vdW  Elec       q    Type
REMARK                         _______ _______ _______ _____ _____    ______ ____
ROOT
ATOM      1  N   UNL     1       1.993  -2.609  -0.038  0.00  0.00    -0.314 N 
ATOM      2  H   UNL     1       2.239  -3.600   0.039  0.00  0.00    +0.152 HD
ENDROOT
BRANCH   1   4
ATOM      3  C   UNL     1       2.559  -2.435  -2.454  0.00  0.00    +0.080 A 
ATOM      4  C   UNL     1       2.728  -2.019  -1.115  0.00  0.00    +0.045 A 
ATOM      5  C   UNL     1       3.674  -1.007  -0.857  0.00  0.00    +0.024 A 
ATOM      6  C   UNL     1       4.352  -0.354  -1.886  0.00  0.00    +0.002 A 
ATOM      7  C   UNL     1       4.115  -0.714  -3.205  0.00  0.00    +0.001 A 
ATOM      8  C   UNL     1       3.240  -1.763  -3.487  0.00  0.00    +0.017 A 
BRANCH   3   9
ATOM      9  C   UNL     1       1.713  -3.587  -2.876  0.00  0.00    +0.339 C 
ATOM     10  O   UNL     1       1.915  -4.233  -3.892  0.00  0.00    -0.245 OA
BRANCH   9  11
ATOM     11  O   UNL     1       0.674  -3.837  -2.048  0.00  0.00    -0.477 OA
ATOM     12  H   UNL     1       0.596  -3.184  -1.319  0.00  0.00    +0.295 HD
ENDBRANCH   9  11
ENDBRANCH   3   9
ENDBRANCH   1   4
BRANCH   1  13
ATOM     13  C   UNL     1       1.843  -2.022   1.250  0.00  0.00    +0.032 A 
ATOM     14  C   UNL     1       2.083  -2.776   2.403  0.00  0.00    +0.023 A 
ATOM     15  C   UNL     1       2.093  -2.165   3.661  0.00  0.00    +0.002 A 
ATOM     16  C   UNL     1       1.832  -0.800   3.782  0.00  0.00    +0.012 A 
ATOM     17  C   UNL     1       1.507  -0.039   2.652  0.00  0.00    +0.057 A 
ATOM     18  C   UNL     1       1.502  -0.666   1.395  0.00  0.00    +0.035 A 
BRANCH  17  19
ATOM     19  C   UNL     1       1.195   1.431   2.795  0.00  0.00    +0.417 C 
ATOM     20  F   UNL     1       2.252   2.143   3.275  0.00  0.00    -0.166 F 
ATOM     21  F   UNL     1       0.166   1.663   3.655  0.00  0.00    -0.166 F 
ATOM     22  F   UNL     1       0.845   2.031   1.623  0.00  0.00    -0.166 F 
ENDBRANCH  17  19
ENDBRANCH   1  13
TORSDOF 5
