REMARK  Name = 
REMARK  8 active torsions:
REMARK  status: ('A' for Active; 'I' for Inactive)
REMARK    1  A    between atoms: O_1  and  C_2
REMARK    2  A    between atoms: C_2  and  C_3
REMARK    3  A    between atoms: C_6  and  O_8
REMARK    4  A    between atoms: C_9  and  O_11
REMARK    5  A    between atoms: C_12  and  O_14
REMARK    6  A    between atoms: C_15  and  O_17
REMARK    7  A    between atoms: O_17  and  S_18
REMARK    8  A    between atoms: S_18  and  O_19
REMARK                            x       y       z     vdW  Elec       q    Type
REMARK                         _______ _______ _______ _____ _____    ______ ____
ROOT
ATOM      1  C   UNL     1       2.944  -1.053   1.144  0.00  0.00    +0.180 C 
ATOM      2  C   UNL     1       4.425  -1.214   0.733  0.00  0.00    +0.214 C 
ATOM      3  C   UNL     1       4.529  -1.849  -0.657  0.00  0.00    +0.182 C 
ATOM      4  C   UNL     1       3.700  -3.129  -0.750  0.00  0.00    +0.201 C 
ATOM      5  C   UNL     1       2.261  -2.843  -0.282  0.00  0.00    +0.279 C 
ATOM      6  O   UNL     1       2.241  -2.307   1.032  0.00  0.00    -0.341 OA
ENDROOT
BRANCH   3   7
ATOM      7  O   UNL     1       5.898  -2.154  -0.955  0.00  0.00    -0.386 OA
ATOM      8  H   UNL     1       5.871  -2.703  -1.765  0.00  0.00    +0.210 HD
ENDBRANCH   3   7
BRANCH   4   9
ATOM      9  O   UNL     1       3.790  -3.586  -2.113  0.00  0.00    -0.384 OA
ATOM     10  H   UNL     1       2.897  -3.571  -2.499  0.00  0.00    +0.210 HD
ENDBRANCH   4   9
BRANCH   5  11
ATOM     11  O   UNL     1       1.541  -4.065  -0.265  0.00  0.00    -0.365 OA
ATOM     12  H   UNL     1       0.678  -3.844   0.124  0.00  0.00    +0.213 HD
ENDBRANCH   5  11
BRANCH   1  13
ATOM     13  C   UNL     1       2.790  -0.577   2.600  0.00  0.00    +0.190 C 
BRANCH  13  14
ATOM     14  O   UNL     1       3.556   0.582   2.878  0.00  0.00    -0.392 OA
ATOM     15  H   UNL     1       3.515   0.744   3.836  0.00  0.00    +0.210 HD
ENDBRANCH  13  14
ENDBRANCH   1  13
BRANCH   2  16
ATOM     16  O   UNL     1       5.220  -0.033   0.841  0.00  0.00    -0.207 OA
BRANCH  16  17
ATOM     17  S   UNL     1       4.948   1.280  -0.067  0.00  0.00    +0.208 S 
ATOM     18  O   UNL     1       3.609   1.775   0.165  0.00  0.00    -0.118 OA
ATOM     19  O   UNL     1       5.413   1.012  -1.408  0.00  0.00    -0.118 OA
BRANCH  17  20
ATOM     20  O   UNL     1       5.995   2.331   0.559  0.00  0.00    -0.231 OA
ATOM     21  H   UNL     1       6.889   1.938   0.462  0.00  0.00    +0.247 HD
ENDBRANCH  17  20
ENDBRANCH  16  17
ENDBRANCH   2  16
TORSDOF 8
