REMARK  Name = 
REMARK  6 active torsions:
REMARK  status: ('A' for Active; 'I' for Inactive)
REMARK    1  A    between atoms: O5*_1  and  C5*_2
REMARK    2  A    between atoms: C5*_2  and  C4*_3
REMARK    3  A    between atoms: C1*_6  and  N9_14
REMARK    4  A    between atoms: C2*_8  and  O2*_10
REMARK    5  A    between atoms: C3*_11  and  O3*_13
REMARK    6  A    between atoms: C6_18  and  O6_19
REMARK                            x       y       z     vdW  Elec       q    Type
REMARK                         _______ _______ _______ _____ _____    ______ ____
ROOT
ATOM      1  C4*   I A   1       2.928   1.580  -0.306  0.00  0.00    +0.177 C 
ATOM      2  C3*   I A   1       4.392   1.732   0.096  0.00  0.00    +0.178 C 
ATOM      3  C2*   I A   1       4.588   3.217   0.359  0.00  0.00    +0.193 C 
ATOM      4  C1*   I A   1       3.217   3.857   0.072  0.00  0.00    +0.240 C 
ATOM      5  O4*   I A   1       2.253   2.790   0.090  0.00  0.00    -0.348 OA
ENDROOT
BRANCH   4   6
ATOM      6  N9    I A   1       2.858   4.802   1.110  0.00  0.00    -0.270 N 
ATOM      7  C4    I A   1       3.580   6.012   1.189  0.00  0.00    +0.152 A 
ATOM      8  C5    I A   1       2.761   6.985   1.726  0.00  0.00    +0.131 A 
ATOM      9  C6    I A   1       3.349   8.193   1.986  0.00  0.00    +0.239 A 
ATOM     10  N1    I A   1       4.627   8.462   1.692  0.00  0.00    -0.200 NA
ATOM     11  C2    I A   1       5.318   7.445   1.142  0.00  0.00    +0.227 A 
ATOM     12  N7    I A   1       1.439   6.540   1.962  0.00  0.00    -0.321 N 
ATOM     13  H7    I A   1       0.765   7.174   1.542  0.00  0.00    +0.148 HD
ATOM     14  N3    I A   1       4.860   6.206   0.857  0.00  0.00    -0.219 NA
ATOM     15  C8    I A   1       1.475   5.238   1.251  0.00  0.00    +0.214 C 
BRANCH   9  16
ATOM     16  O6    I A   1       2.640   9.191   2.593  0.00  0.00    -0.491 OA
ATOM     17  H6    I A   1       1.854   8.750   2.959  0.00  0.00    +0.294 HD
ENDBRANCH   9  16
ENDBRANCH   4   6
BRANCH   2  18
ATOM     18  O3*   I A   1       4.620   0.982   1.307  0.00  0.00    -0.386 OA
ATOM     19  H3*   I A   1       4.037   1.349   1.997  0.00  0.00    +0.210 HD
ENDBRANCH   2  18
BRANCH   3  20
ATOM     20  O2*   I A   1       5.626   3.776  -0.451  0.00  0.00    -0.385 OA
ATOM     21  H2*   I A   1       5.648   4.724  -0.202  0.00  0.00    +0.210 HD
ENDBRANCH   3  20
BRANCH   1  22
ATOM     22  C5*   I A   1       2.750   1.331  -1.808  0.00  0.00    +0.190 C 
BRANCH  22  23
ATOM     23  O5*   I A   1       3.359   2.358  -2.582  0.00  0.00    -0.392 OA
ATOM     24  H5*   I A   1       3.360   2.058  -3.508  0.00  0.00    +0.210 HD
ENDBRANCH  22  23
ENDBRANCH   1  22
TORSDOF 6
