REMARK  Name = 
REMARK  6 active torsions:
REMARK  status: ('A' for Active; 'I' for Inactive)
REMARK    1  A    between atoms: CA_2  and  CB_3
REMARK    2  A    between atoms: CA_2  and  N_10
REMARK    3  A    between atoms: CA_2  and  C_15
REMARK    4  A    between atoms: CB_3  and  CG_4
REMARK    5  A    between atoms: N_13  and  O_14
REMARK    6  A    between atoms: C_15  and  O_16
REMARK                            x       y       z     vdW  Elec       q    Type
REMARK                         _______ _______ _______ _____ _____    ______ ____
ROOT
ATOM      1  CA  PHE A   1       2.070  -0.107   0.035  0.00  0.00    +0.187 C 
ENDROOT
BRANCH   1   2
ATOM      2  N   PHE A   1       2.480  -1.488  -0.251  0.00  0.00    -0.284 N 
ATOM      3  H   PHE A   1       1.763  -2.135  -0.548  0.00  0.00    +0.151 HD
ATOM      4  C   UNK A   0       3.776  -1.904  -0.253  0.00  0.00    +0.323 C 
ATOM      5  N   UNK A   0       3.937  -3.223  -0.578  0.00  0.00    -0.181 N 
ATOM      6  H   UNK A   0       3.296  -3.645  -1.240  0.00  0.00    +0.184 HD
ATOM      7  O   UNK A   0       4.716  -1.150  -0.014  0.00  0.00    -0.251 OA
BRANCH   5   8
ATOM      8  O   UNK A   0       5.291  -3.606  -0.773  0.00  0.00    -0.294 OA
ATOM      9  H   UNK A   0       5.785  -2.787  -0.553  0.00  0.00    +0.241 HD
ENDBRANCH   5   8
ENDBRANCH   1   2
BRANCH   1  10
ATOM     10  C   PHE A   1       2.524   0.849  -1.080  0.00  0.00    +0.326 C 
ATOM     11  OXT PHE A   1       1.736   1.438  -1.810  0.00  0.00    -0.249 OA
BRANCH  10  12
ATOM     12  O   PHE A   1       3.863   0.974  -1.224  0.00  0.00    -0.479 OA
ATOM     13  H   PHE A   1       4.381   0.382  -0.628  0.00  0.00    +0.295 HD
ENDBRANCH  10  12
ENDBRANCH   1  10
BRANCH   1  14
ATOM     14  CB  PHE A   1       2.457   0.393   1.441  0.00  0.00    +0.069 C 
BRANCH  14  15
ATOM     15  CG  PHE A   1       2.013   1.803   1.775  0.00  0.00    -0.045 A 
ATOM     16  CD2 PHE A   1       2.854   2.624   2.543  0.00  0.00    +0.004 A 
ATOM     17  CE2 PHE A   1       2.498   3.944   2.826  0.00  0.00    +0.000 A 
ATOM     18  CZ  PHE A   1       1.295   4.459   2.351  0.00  0.00    +0.000 A 
ATOM     19  CE1 PHE A   1       0.435   3.646   1.620  0.00  0.00    +0.000 A 
ATOM     20  CD1 PHE A   1       0.782   2.321   1.348  0.00  0.00    +0.004 A 
ENDBRANCH  14  15
ENDBRANCH   1  14
TORSDOF 6
