REMARK  Name = 
REMARK  7 active torsions:
REMARK  status: ('A' for Active; 'I' for Inactive)
REMARK    1  A    between atoms: C_2  and  N_20
REMARK    2  A    between atoms: C_8  and  O_10
REMARK    3  A    between atoms: O_10  and  C_11
REMARK    4  A    between atoms: C_11  and  C_13
REMARK    5  A    between atoms: C_16  and  O_17
REMARK    6  A    between atoms: C_21  and  C_23
REMARK    7  A    between atoms: C_26  and  O_27
REMARK                            x       y       z     vdW  Elec       q    Type
REMARK                         _______ _______ _______ _____ _____    ______ ____
ROOT
ATOM      1  C   UNL     1       2.303  -0.012  -0.062  0.00  0.00    +0.128 C 
ATOM      2  C   UNL     1       2.612   1.194  -0.982  0.00  0.00    +0.198 C 
ATOM      3  C   UNL     1       4.088   1.614  -0.940  0.00  0.00    +0.048 C 
ATOM      4  C   UNL     1       5.119   0.701  -1.609  0.00  0.00    +0.019 C 
ATOM      5  C   UNL     1       4.738  -0.740  -1.931  0.00  0.00    +0.081 C 
ATOM      6  N   UNL     1       4.232  -1.507  -0.790  0.00  0.00    -0.314 NA
ATOM      7  H   UNL     1       4.409  -2.494  -0.992  0.00  0.00    +0.122 HD
ATOM      8  C   UNL     1       2.772  -1.363  -0.645  0.00  0.00    +0.106 C 
ENDROOT
BRANCH   1   9
ATOM      9  N   UNL     1       2.822   0.135   1.302  0.00  0.00    -0.304 N 
ATOM     10  H   UNL     1       3.638  -0.425   1.524  0.00  0.00    +0.149 HD
ATOM     11  C   UNL     1       2.153   0.824   2.287  0.00  0.00    +0.244 C 
ATOM     12  O   UNL     1       1.130   1.468   2.090  0.00  0.00    -0.270 OA
BRANCH  11  13
ATOM     13  C   UNL     1       2.690   0.650   3.664  0.00  0.00    +0.037 A 
ATOM     14  C   UNL     1       1.776   0.508   4.716  0.00  0.00    +0.016 A 
ATOM     15  C   UNL     1       2.231   0.190   5.997  0.00  0.00    +0.046 A 
ATOM     16  C   UNL     1       3.594   0.030   6.222  0.00  0.00    +0.117 A 
ATOM     17  C   UNL     1       4.518   0.235   5.200  0.00  0.00    +0.046 A 
ATOM     18  C   UNL     1       4.065   0.550   3.916  0.00  0.00    +0.016 A 
BRANCH  16  19
ATOM     19  O   UNL     1       3.990  -0.348   7.471  0.00  0.00    -0.507 OA
ATOM     20  H   UNL     1       4.936  -0.565   7.447  0.00  0.00    +0.292 HD
ENDBRANCH  16  19
ENDBRANCH  11  13
ENDBRANCH   1   9
BRANCH   2  21
ATOM     21  O   UNL     1       2.214   0.852  -2.333  0.00  0.00    -0.456 OA
BRANCH  21  22
ATOM     22  C   UNL     1       1.957   1.863  -3.192  0.00  0.00    +0.340 C 
ATOM     23  O   UNL     1       1.971   3.052  -2.924  0.00  0.00    -0.245 OA
BRANCH  22  24
ATOM     24  C   UNL     1       1.688   1.333  -4.560  0.00  0.00    +0.059 A 
ATOM     25  C   UNL     1       1.730  -0.036  -4.868  0.00  0.00    +0.018 A 
ATOM     26  C   UNL     1       1.503  -0.470  -6.178  0.00  0.00    +0.046 A 
ATOM     27  C   UNL     1       1.221   0.456  -7.175  0.00  0.00    +0.117 A 
ATOM     28  C   UNL     1       1.172   1.816  -6.890  0.00  0.00    +0.046 A 
ATOM     29  C   UNL     1       1.407   2.253  -5.582  0.00  0.00    +0.018 A 
BRANCH  27  30
ATOM     30  O   UNL     1       0.993  -0.015  -8.434  0.00  0.00    -0.507 OA
ATOM     31  H   UNL     1       0.696   0.720  -8.995  0.00  0.00    +0.292 HD
ENDBRANCH  27  30
ENDBRANCH  22  24
ENDBRANCH  21  22
ENDBRANCH   2  21
TORSDOF 7
