REMARK  Name = 
REMARK  9 active torsions:
REMARK  status: ('A' for Active; 'I' for Inactive)
REMARK    1  A    between atoms: C_1  and  C_2
REMARK    2  A    between atoms: C_2  and  O_3
REMARK    3  A    between atoms: C_2  and  C_4
REMARK    4  A    between atoms: C_2  and  C_15
REMARK    5  A    between atoms: C_4  and  S_5
REMARK    6  A    between atoms: S_5  and  C_8
REMARK    7  A    between atoms: N_17  and  C_18
REMARK    8  A    between atoms: C_20  and  C_26
REMARK    9  A    between atoms: C_21  and  C_24
REMARK                            x       y       z     vdW  Elec       q    Type
REMARK                         _______ _______ _______ _____ _____    ______ ____
ROOT
ATOM      1  C   UNL     1       3.137  -1.382  -0.236  0.00  0.00    +0.250 C 
ATOM      2  N   UNL     1       3.093  -2.226   0.869  0.00  0.00    -0.283 N 
ATOM      3  H   UNL     1       3.170  -1.807   1.784  0.00  0.00    +0.155 HD
ATOM      4  O   UNL     1       3.403  -1.751  -1.378  0.00  0.00    -0.272 OA
ENDROOT
BRANCH   2   5
ATOM      5  C   UNL     1       3.368  -3.608   0.843  0.00  0.00    +0.034 A 
ATOM      6  C   UNL     1       3.744  -4.233   2.035  0.00  0.00    +0.024 A 
ATOM      7  C   UNL     1       4.000  -5.606   2.058  0.00  0.00    +0.021 A 
ATOM      8  C   UNL     1       3.864  -6.374   0.891  0.00  0.00    +0.064 A 
ATOM      9  C   UNL     1       3.482  -5.758  -0.309  0.00  0.00    +0.074 A 
ATOM     10  C   UNL     1       3.246  -4.374  -0.316  0.00  0.00    +0.037 A 
BRANCH   9  11
ATOM     11  C   UNL     1       3.292  -6.541  -1.583  0.00  0.00    +0.419 C 
ATOM     12  F   UNL     1       2.309  -7.473  -1.465  0.00  0.00    -0.166 F 
ATOM     13  F   UNL     1       4.413  -7.205  -1.966  0.00  0.00    -0.166 F 
ATOM     14  F   UNL     1       2.935  -5.769  -2.648  0.00  0.00    -0.166 F 
ENDBRANCH   9  11
BRANCH   8  15
ATOM     15  C   UNL     1       4.091  -7.787   0.967  0.00  0.00    +0.100 C 
ATOM     16  N   UNL     1       4.262  -8.933   1.044  0.00  0.00    -0.191 NA
ENDBRANCH   8  15
ENDBRANCH   2   5
BRANCH   1  18
ATOM     17  C   UNL     1       3.070   0.961  -1.162  0.00  0.00    +0.053 C 
ATOM     18  C   UNL     1       2.682   0.085   0.039  0.00  0.00    +0.158 C 
BRANCH  18  19
ATOM     19  O   UNL     1       1.237   0.112   0.103  0.00  0.00    -0.378 OA
ATOM     20  H   UNL     1       0.909  -0.799   0.218  0.00  0.00    +0.211 HD
ENDBRANCH  18  19
BRANCH  18  21
ATOM     21  C   UNL     1       3.155   0.692   1.357  0.00  0.00    +0.215 C 
BRANCH  21  22
ATOM     22  S   UNL     1       4.917   0.669   1.573  0.00  0.00    +0.000 S 
ATOM     23  O   UNL     1       5.493   1.814   0.900  0.00  0.00    -0.169 OA
ATOM     24  O   UNL     1       5.389  -0.676   1.319  0.00  0.00    -0.169 OA
BRANCH  22  25
ATOM     25  C   UNL     1       5.139   0.935   3.319  0.00  0.00    +0.088 A 
ATOM     26  C   UNL     1       4.730   2.145   3.888  0.00  0.00    +0.030 A 
ATOM     27  C   UNL     1       4.945   2.358   5.250  0.00  0.00    +0.040 A 
ATOM     28  C   UNL     1       5.566   1.378   6.018  0.00  0.00    +0.124 A 
ATOM     29  F   UNL     1       5.785   1.597   7.319  0.00  0.00    -0.205 F 
ATOM     30  C   UNL     1       5.974   0.172   5.453  0.00  0.00    +0.040 A 
ATOM     31  C   UNL     1       5.760  -0.056   4.095  0.00  0.00    +0.030 A 
ENDBRANCH  22  25
ENDBRANCH  21  22
ENDBRANCH  18  21
ENDBRANCH   1  18
TORSDOF 8
