REMARK  Name = 
REMARK  16 active torsions:
REMARK  status: ('A' for Active; 'I' for Inactive)
REMARK    1  A    between atoms: O_1  and  C_2
REMARK    2  A    between atoms: C_2  and  C_3
REMARK    3  A    between atoms: C_3  and  O_5
REMARK    4  A    between atoms: C_3  and  C_6
REMARK    5  A    between atoms: C_6  and  O_8
REMARK    6  A    between atoms: C_6  and  C_9
REMARK    7  A    between atoms: C_9  and  O_11
REMARK    8  A    between atoms: C_9  and  C_12
REMARK    9  A    between atoms: C_12  and  N_13
REMARK   10  A    between atoms: N_16  and  C_17
REMARK   11  A    between atoms: C_17  and  C_18
REMARK   12  A    between atoms: C_18  and  C_19
REMARK   13  A    between atoms: C_19  and  O_20
REMARK   14  A    between atoms: O_20  and  P_21
REMARK   15  A    between atoms: P_21  and  O_22
REMARK   16  A    between atoms: P_21  and  O_23
REMARK                            x       y       z     vdW  Elec       q    Type
REMARK                         _______ _______ _______ _____ _____    ______ ____
ROOT
ATOM      1  N   UNL     1       7.036  -4.156   0.066  0.00  0.00    -0.275 N 
ATOM      2  C   UNL     1       8.318  -4.564  -0.183  0.00  0.00    +0.149 A 
ATOM      3  N   UNL     1       9.403  -3.789  -0.425  0.00  0.00    -0.292 N 
ATOM      4  H   UNL     1       9.289  -2.785  -0.517  0.00  0.00    +0.172 HD
ATOM      5  C   UNL     1      10.636  -4.333  -0.685  0.00  0.00    +0.328 A 
ATOM      6  N   UNL     1      10.698  -5.707  -0.662  0.00  0.00    -0.273 N 
ATOM      7  H   UNL     1      11.592  -6.117  -0.888  0.00  0.00    +0.173 HD
ATOM      8  C   UNL     1       9.634  -6.571  -0.497  0.00  0.00    +0.280 A 
ATOM      9  O   UNL     1       9.740  -7.787  -0.605  0.00  0.00    -0.265 OA
ATOM     10  O   UNL     1      11.614  -3.641  -0.938  0.00  0.00    -0.247 OA
ATOM     11  C   UNL     1       8.366  -5.896  -0.196  0.00  0.00    +0.152 A 
ATOM     12  N   UNL     1       7.117  -6.399   0.064  0.00  0.00    -0.286 N 
ATOM     13  C   UNL     1       6.227  -5.309   0.227  0.00  0.00    +0.331 A 
ATOM     14  O   UNL     1       5.030  -5.361   0.447  0.00  0.00    -0.246 OA
ENDROOT
BRANCH  12  15
ATOM     15  C   UNL     1       6.682  -7.766  -0.000  0.00  0.00    +0.129 C 
BRANCH  15  16
ATOM     16  C   UNL     1       6.165  -8.092  -1.394  0.00  0.00    +0.050 C 
BRANCH  16  17
ATOM     17  C   UNL     1       5.541  -9.467  -1.428  0.00  0.00    +0.174 C 
BRANCH  17  18
ATOM     18  O   UNL     1       5.100  -9.734  -2.753  0.00  0.00    -0.287 OA
BRANCH  18  19
ATOM     19  P   UNL     1       4.421 -11.323  -2.828  0.00  0.00    +0.472 P 
ATOM     20  O   UNL     1       3.813 -12.746  -2.895  0.00  0.00    -0.228 OA
BRANCH  19  21
ATOM     21  O   UNL     1       3.035 -10.508  -3.121  0.00  0.00    -0.303 OA
ATOM     22  H   UNL     1       3.152 -10.073  -3.985  0.00  0.00    +0.222 HD
ENDBRANCH  19  21
BRANCH  19  23
ATOM     23  O   UNL     1       4.927 -11.293  -4.386  0.00  0.00    -0.303 OA
ATOM     24  H   UNL     1       5.899 -11.312  -4.430  0.00  0.00    +0.222 HD
ENDBRANCH  19  23
ENDBRANCH  18  19
ENDBRANCH  17  18
ENDBRANCH  16  17
ENDBRANCH  15  16
ENDBRANCH  12  15
BRANCH   1  25
ATOM     25  C   UNL     1       6.548  -2.810   0.236  0.00  0.00    +0.162 C 
BRANCH  25  26
ATOM     26  C   UNL     1       6.528  -1.954  -1.043  0.00  0.00    +0.165 C 
BRANCH  26  27
ATOM     27  O   UNL     1       7.875  -1.803  -1.552  0.00  0.00    -0.387 OA
ATOM     28  H   UNL     1       7.788  -1.776  -2.524  0.00  0.00    +0.210 HD
ENDBRANCH  26  27
BRANCH  26  29
ATOM     29  C   UNL     1       6.011  -0.526  -0.757  0.00  0.00    +0.175 C 
BRANCH  29  30
ATOM     30  O   UNL     1       6.046   0.236  -1.977  0.00  0.00    -0.387 OA
ATOM     31  H   UNL     1       6.976   0.255  -2.265  0.00  0.00    +0.210 HD
ENDBRANCH  29  30
BRANCH  29  32
ATOM     32  C   UNL     1       4.602  -0.489  -0.143  0.00  0.00    +0.171 C 
BRANCH  32  33
ATOM     33  O   UNL     1       3.671  -1.179  -0.984  0.00  0.00    -0.387 OA
ATOM     34  H   UNL     1       2.788  -0.902  -0.666  0.00  0.00    +0.210 HD
ENDBRANCH  32  33
BRANCH  32  35
ATOM     35  C   UNL     1       4.109   0.938   0.100  0.00  0.00    +0.189 C 
BRANCH  35  36
ATOM     36  O   UNL     1       2.838   0.853   0.752  0.00  0.00    -0.392 OA
ATOM     37  H   UNL     1       2.563   1.765   0.953  0.00  0.00    +0.210 HD
ENDBRANCH  35  36
ENDBRANCH  32  35
ENDBRANCH  29  32
ENDBRANCH  26  29
ENDBRANCH  25  26
ENDBRANCH   1  25
TORSDOF 16
