REMARK  Name = 
REMARK  5 active torsions:
REMARK  status: ('A' for Active; 'I' for Inactive)
REMARK    1  A    between atoms: N_1  and  CA_2
REMARK    2  A    between atoms: CA_2  and  C_4
REMARK    3  A    between atoms: CA_2  and  C_7
REMARK    4  A    between atoms: C_4  and  SE_5
REMARK    5  A    between atoms: C_7  and  O_8
REMARK                            x       y       z     vdW  Elec       q    Type
REMARK                         _______ _______ _______ _____ _____    ______ ____
ROOT
ATOM      1  CA  UNL     1       2.463  -0.076   0.063  0.00  0.00    +0.000 C 
ENDROOT
BRANCH   1   2
ATOM      2  N   UNL     1       0.999  -0.131   0.043  0.00  0.00    +0.000 NA
ATOM      3  H1  UNL     1       0.615  -0.085   1.015  0.00  0.00    +0.000 HD
ATOM      4  H2  UNL     1       0.612   0.667  -0.508  0.00  0.00    +0.000 HD
ENDBRANCH   1   2
BRANCH   1   5
ATOM      5  C   UNL     1       3.005  -1.347   0.676  0.00  0.00    +0.000 C 
ATOM      6  OXT UNL     1       3.719  -2.080   0.009  0.00  0.00    +0.000 OA
BRANCH   5   7
ATOM      7  O   UNL     1       2.715  -1.696   1.949  0.00  0.00    +0.000 OA
ATOM      8  H   UNL     1       2.151  -1.153   2.517  0.00  0.00    +0.000 HD
ENDBRANCH   5   7
ENDBRANCH   1   5
BRANCH   1   9
ATOM      9  C   UNL     1       2.981   1.154   0.831  0.00  0.00    +0.000 C 
BRANCH   9  10
ATOM     10 SE   UNL     1       2.412   2.820  -0.014  0.00  0.00    +0.000 Se
ATOM     11  H   UNL     1       3.012   3.640   1.139  0.00  0.00    +0.000 HD
ENDBRANCH   9  10
ENDBRANCH   1   9
TORSDOF 5
