REMARK  Name = 
REMARK  10 active torsions:
REMARK  status: ('A' for Active; 'I' for Inactive)
REMARK    1  A    between atoms: O_1  and  C_2
REMARK    2  A    between atoms: C_2  and  C_3
REMARK    3  A    between atoms: C_6  and  O_8
REMARK    4  A    between atoms: C_9  and  O_11
REMARK    5  A    between atoms: O_11  and  S_12
REMARK    6  A    between atoms: S_12  and  O_13
REMARK    7  A    between atoms: C_16  and  O_18
REMARK    8  A    between atoms: O_18  and  S_19
REMARK    9  A    between atoms: S_19  and  O_20
REMARK   10  A    between atoms: C_23  and  O_25
REMARK                            x       y       z     vdW  Elec       q    Type
REMARK                         _______ _______ _______ _____ _____    ______ ____
ROOT
ATOM      1  C   UNL     1       2.673  -1.711   0.322  0.00  0.00    +0.178 C 
ATOM      2  C   UNL     1       3.804  -0.895  -0.316  0.00  0.00    +0.179 C 
ATOM      3  C   UNL     1       3.578  -0.876  -1.840  0.00  0.00    +0.219 C 
ATOM      4  C   UNL     1       3.651  -2.327  -2.354  0.00  0.00    +0.241 C 
ATOM      5  C   UNL     1       2.644  -3.195  -1.552  0.00  0.00    +0.282 C 
ATOM      6  O   UNL     1       2.802  -3.070  -0.139  0.00  0.00    -0.341 OA
ENDROOT
BRANCH   2   7
ATOM      7  O   UNL     1       3.950   0.420   0.205  0.00  0.00    -0.386 OA
ATOM      8  H   UNL     1       3.092   0.888   0.210  0.00  0.00    +0.210 HD
ENDBRANCH   2   7
BRANCH   5   9
ATOM      9  O   UNL     1       2.848  -4.561  -1.884  0.00  0.00    -0.365 OA
ATOM     10  H   UNL     1       2.079  -5.030  -1.520  0.00  0.00    +0.213 HD
ENDBRANCH   5   9
BRANCH   1  11
ATOM     11  C   UNL     1       2.694  -1.656   1.853  0.00  0.00    +0.190 C 
BRANCH  11  12
ATOM     12  O   UNL     1       1.437  -2.128   2.348  0.00  0.00    -0.392 OA
ATOM     13  H   UNL     1       1.381  -1.864   3.282  0.00  0.00    +0.210 HD
ENDBRANCH  11  12
ENDBRANCH   1  11
BRANCH   3  14
ATOM     14  O   UNL     1       2.271  -0.414  -2.209  0.00  0.00    -0.207 OA
BRANCH  14  15
ATOM     15  S   UNL     1       1.871   1.145  -2.087  0.00  0.00    +0.208 S 
ATOM     16  O   UNL     1       2.815   1.947  -2.818  0.00  0.00    -0.118 OA
ATOM     17  O   UNL     1       1.565   1.386  -0.696  0.00  0.00    -0.118 OA
BRANCH  15  18
ATOM     18  O   UNL     1       0.458   1.188  -2.863  0.00  0.00    -0.231 OA
ATOM     19  H   UNL     1      -0.255   1.167  -2.194  0.00  0.00    +0.247 HD
ENDBRANCH  15  18
ENDBRANCH  14  15
ENDBRANCH   3  14
BRANCH   4  20
ATOM     20  O   UNL     1       3.301  -2.394  -3.743  0.00  0.00    -0.205 OA
BRANCH  20  21
ATOM     21  S   UNL     1       4.302  -1.734  -4.833  0.00  0.00    +0.208 S 
ATOM     22  O   UNL     1       5.592  -2.371  -4.729  0.00  0.00    -0.118 OA
ATOM     23  O   UNL     1       4.147  -0.301  -4.771  0.00  0.00    -0.118 OA
BRANCH  21  24
ATOM     24  O   UNL     1       3.628  -2.159  -6.229  0.00  0.00    -0.231 OA
ATOM     25  H   UNL     1       3.040  -1.422  -6.498  0.00  0.00    +0.247 HD
ENDBRANCH  21  24
ENDBRANCH  20  21
ENDBRANCH   4  20
TORSDOF 10
