REMARK  Name = 
REMARK  12 active torsions:
REMARK  status: ('A' for Active; 'I' for Inactive)
REMARK    1  A    between atoms: O_1  and  N_2
REMARK    2  A    between atoms: C_3  and  C_5
REMARK    3  A    between atoms: C_5  and  O_7
REMARK    4  A    between atoms: C_5  and  C_8
REMARK    5  A    between atoms: C_8  and  O_10
REMARK    6  A    between atoms: C_8  and  C_11
REMARK    7  A    between atoms: C_11  and  O_13
REMARK    8  A    between atoms: C_11  and  C_14
REMARK    9  A    between atoms: C_14  and  O_15
REMARK   10  A    between atoms: O_15  and  P_16
REMARK   11  A    between atoms: P_16  and  O_17
REMARK   12  A    between atoms: P_16  and  O_18
REMARK                            x       y       z     vdW  Elec       q    Type
REMARK                         _______ _______ _______ _____ _____    ______ ____
ROOT
ATOM      1  C   UNL     1       5.164   0.648  -2.573  0.00  0.00    +0.183 C 
ENDROOT
BRANCH   1   2
ATOM      2  O   UNL     1       4.684   2.007  -2.717  0.00  0.00    -0.386 OA
ATOM      3  H   UNL     1       4.993   2.501  -1.933  0.00  0.00    +0.210 HD
ENDBRANCH   1   2
BRANCH   1   4
ATOM      4  C   UNL     1       4.531  -0.228  -3.670  0.00  0.00    +0.233 C 
BRANCH   4   7
ATOM      5  N   UNL     1       2.406   0.948  -3.373  0.00  0.00    -0.195 N 
ATOM      6  H   UNL     1       2.969   1.782  -3.186  0.00  0.00    +0.182 HD
ATOM      7  C   UNL     1       2.991  -0.271  -3.586  0.00  0.00    +0.267 C 
ATOM      8  O   UNL     1       2.390  -1.331  -3.766  0.00  0.00    -0.271 OA
BRANCH   5   9
ATOM      9  O   UNL     1       1.010   1.023  -3.256  0.00  0.00    -0.295 OA
ATOM     10  H   UNL     1       0.801   1.864  -3.701  0.00  0.00    +0.241 HD
ENDBRANCH   5   9
ENDBRANCH   4   7
BRANCH   4  11
ATOM     11  O   UNL     1       5.059  -1.559  -3.585  0.00  0.00    -0.380 OA
ATOM     12  H   UNL     1       4.331  -2.151  -3.878  0.00  0.00    +0.211 HD
ENDBRANCH   4  11
ENDBRANCH   1   4
BRANCH   1  13
ATOM     13  C   UNL     1       6.716   0.607  -2.632  0.00  0.00    +0.172 C 
BRANCH  13  14
ATOM     14  O   UNL     1       7.205   1.109  -3.878  0.00  0.00    -0.387 OA
ATOM     15  H   UNL     1       7.065   0.411  -4.541  0.00  0.00    +0.210 HD
ENDBRANCH  13  14
BRANCH  13  16
ATOM     16  C   UNL     1       7.360   1.432  -1.518  0.00  0.00    +0.206 C 
BRANCH  16  17
ATOM     17  O   UNL     1       6.857   0.996  -0.266  0.00  0.00    -0.284 OA
BRANCH  17  18
ATOM     18  P   UNL     1       7.390   1.727   1.041  0.00  0.00    +0.472 P 
ATOM     19  O   UNL     1       8.852   1.640   1.306  0.00  0.00    -0.228 OA
BRANCH  18  20
ATOM     20  O   UNL     1       6.463   1.143   2.200  0.00  0.00    -0.303 OA
ATOM     21  H   UNL     1       6.677   0.218   2.402  0.00  0.00    +0.222 HD
ENDBRANCH  18  20
BRANCH  18  22
ATOM     22  O   UNL     1       6.860   3.226   0.869  0.00  0.00    -0.303 OA
ATOM     23  H   UNL     1       7.594   3.830   0.653  0.00  0.00    +0.222 HD
ENDBRANCH  18  22
ENDBRANCH  17  18
ENDBRANCH  16  17
ENDBRANCH  13  16
ENDBRANCH   1  13
TORSDOF 12
