REMARK  Name = 
REMARK  5 active torsions:
REMARK  status: ('A' for Active; 'I' for Inactive)
REMARK    1  A    between atoms: N_1  and  CA_2
REMARK    2  A    between atoms: CA_2  and  CB_4
REMARK    3  A    between atoms: CA_2  and  C_11
REMARK    4  A    between atoms: CB_4  and  CG_5
REMARK    5  A    between atoms: C_11  and  O_12
REMARK                            x       y       z     vdW  Elec       q    Type
REMARK                         _______ _______ _______ _____ _____    ______ ____
ROOT
ATOM      1  CA  PHE A   1       2.543  -0.052   0.057  0.00  0.00    +0.165 C 
ENDROOT
BRANCH   1   2
ATOM      2  N   PHE A   1       3.120  -1.406  -0.228  0.00  0.00    -0.318 NA
ATOM      3  H1  PHE A   1       2.645  -1.791  -1.048  0.00  0.00    +0.119 HD
ATOM      4  H2  PHE A   1       4.082  -1.270  -0.560  0.00  0.00    +0.119 HD
ENDBRANCH   1   2
BRANCH   1   5
ATOM      5  C   PHE A   1       3.083   0.386   1.435  0.00  0.00    +0.322 C 
ATOM      6  OXT PHE A   1       3.135   1.531   1.856  0.00  0.00    -0.249 OA
BRANCH   5   7
ATOM      7  O   PHE A   1       3.493  -0.692   2.158  0.00  0.00    -0.480 OA
ATOM      8  H   PHE A   1       3.377  -1.474   1.561  0.00  0.00    +0.295 HD
ENDBRANCH   5   7
ENDBRANCH   1   5
BRANCH   1   9
ATOM      9  CB  PHE A   1       2.894   1.024  -0.987  0.00  0.00    +0.065 C 
BRANCH   9  10
ATOM     10  CG  PHE A   1       2.428   0.860  -2.419  0.00  0.00    -0.045 A 
ATOM     11  CD2 PHE A   1       2.891   1.801  -3.356  0.00  0.00    +0.004 A 
ATOM     12  CE2 PHE A   1       2.538   1.716  -4.703  0.00  0.00    +0.000 A 
ATOM     13  CZ  PHE A   1       1.718   0.681  -5.139  0.00  0.00    +0.000 A 
ATOM     14  CE1 PHE A   1       1.222  -0.241  -4.221  0.00  0.00    +0.000 A 
ATOM     15  CD1 PHE A   1       1.557  -0.141  -2.866  0.00  0.00    +0.004 A 
ENDBRANCH   9  10
ENDBRANCH   1   9
TORSDOF 5
