REMARK  Name = 
REMARK  5 active torsions:
REMARK  status: ('A' for Active; 'I' for Inactive)
REMARK    1  A    between atoms: O_1  and  C_2
REMARK    2  A    between atoms: C_2  and  C_3
REMARK    3  A    between atoms: C_5  and  O_7
REMARK    4  A    between atoms: C_8  and  O_10
REMARK    5  A    between atoms: C_11  and  O_13
REMARK                            x       y       z     vdW  Elec       q    Type
REMARK                         _______ _______ _______ _____ _____    ______ ____
ROOT
ATOM      1  C   UNL     1       2.731  -0.051   1.562  0.00  0.00    +0.167 C 
ATOM      2  N   UNL     1       2.401   1.053   2.439  0.00  0.00    -0.219 N 
ATOM      3  C   UNL     1       1.884   0.985   3.699  0.00  0.00    +0.183 A 
ATOM      4  N   UNL     1       1.727   2.218   4.135  0.00  0.00    -0.111 NA
ATOM      5  N   UNL     1       2.143   3.040   3.111  0.00  0.00    -0.023 NA
ATOM      6  C   UNL     1       1.604  -0.311   4.367  0.00  0.00    +0.214 C 
ATOM      7  C   UNL     1       2.380  -1.465   3.686  0.00  0.00    +0.181 C 
ATOM      8  N   UNL     1       2.553   2.331   2.067  0.00  0.00    -0.043 NA
ATOM      9  C   UNL     1       2.226  -1.394   2.147  0.00  0.00    +0.173 C 
ENDROOT
BRANCH   6  10
ATOM     10  O   UNL     1       0.194  -0.540   4.293  0.00  0.00    -0.381 OA
ATOM     11  H   UNL     1      -0.013  -0.806   3.376  0.00  0.00    +0.210 HD
ENDBRANCH   6  10
BRANCH   7  12
ATOM     12  O   UNL     1       3.762  -1.424   4.043  0.00  0.00    -0.386 OA
ATOM     13  H   UNL     1       4.119  -2.325   3.944  0.00  0.00    +0.210 HD
ENDBRANCH   7  12
BRANCH   9  14
ATOM     14  O   UNL     1       0.833  -1.569   1.827  0.00  0.00    -0.387 OA
ATOM     15  H   UNL     1       0.775  -1.749   0.868  0.00  0.00    +0.210 HD
ENDBRANCH   9  14
BRANCH   1  16
ATOM     16  C   UNL     1       4.228  -0.075   1.239  0.00  0.00    +0.185 C 
BRANCH  16  17
ATOM     17  O   UNL     1       4.487  -1.084   0.263  0.00  0.00    -0.393 OA
ATOM     18  H   UNL     1       5.377  -0.913  -0.096  0.00  0.00    +0.209 HD
ENDBRANCH  16  17
ENDBRANCH   1  16
TORSDOF 5
