REMARK  Name = 
REMARK  31 active torsions:
REMARK  status: ('A' for Active; 'I' for Inactive)
REMARK    1  A    between atoms: C_1  and  C_2
REMARK    2  A    between atoms: C_2  and  C_3
REMARK    3  A    between atoms: C_3  and  S_5
REMARK    4  A    between atoms: S_5  and  C_6
REMARK    5  A    between atoms: C_6  and  C_7
REMARK    6  A    between atoms: C_7  and  N_8
REMARK    7  A    between atoms: C_9  and  C_11
REMARK    8  A    between atoms: C_11  and  C_12
REMARK    9  A    between atoms: C_12  and  N_13
REMARK   10  A    between atoms: C_14  and  C_16
REMARK   11  A    between atoms: C_16  and  O_18
REMARK   12  A    between atoms: C_16  and  C_19
REMARK   13  A    between atoms: C_19  and  C_20
REMARK   14  A    between atoms: C_19  and  C_21
REMARK   15  A    between atoms: C_19  and  C_22
REMARK   16  A    between atoms: C_22  and  O_23
REMARK   17  A    between atoms: O_23  and  P_24
REMARK   18  A    between atoms: P_24  and  O_25
REMARK   19  A    between atoms: P_24  and  O_27
REMARK   20  A    between atoms: O_27  and  P_28
REMARK   21  A    between atoms: P_28  and  O_29
REMARK   22  A    between atoms: P_28  and  O_31
REMARK   23  A    between atoms: O_31  and  C_32
REMARK   24  A    between atoms: C_32  and  C_33
REMARK   25  A    between atoms: C_36  and  N_48
REMARK   26  A    between atoms: C_38  and  O_40
REMARK   27  A    between atoms: C_41  and  O_43
REMARK   28  A    between atoms: O_43  and  P_44
REMARK   29  A    between atoms: P_44  and  O_45
REMARK   30  A    between atoms: P_44  and  O_46
REMARK   31  A    between atoms: C_53  and  N_54
REMARK                            x       y       z     vdW  Elec       q    Type
REMARK                         _______ _______ _______ _____ _____    ______ ____
ROOT
ATOM      1  P   UNL     1      11.739  18.363  -3.454  0.00  0.00    +0.483 P 
ATOM      2  O   UNL     1      12.791  17.436  -3.981  0.00  0.00    -0.227 OA
ENDROOT
BRANCH   1   3
ATOM      3  O   UNL     1      10.903  17.520  -2.361  0.00  0.00    -0.302 OA
ATOM      4  H   UNL     1      10.847  16.593  -2.664  0.00  0.00    +0.222 HD
ENDBRANCH   1   3
BRANCH   1   5
ATOM      5  O   UNL     1      10.573  18.782  -4.511  0.00  0.00    -0.186 OA
BRANCH   5   6
ATOM      6  P   UNL     1      10.450  20.350  -5.231  0.00  0.00    +0.483 P 
ATOM      7  O   UNL     1      11.663  20.093  -6.117  0.00  0.00    -0.227 OA
BRANCH   6   8
ATOM      8  O   UNL     1      10.327  21.918  -5.951  0.00  0.00    -0.302 OA
ATOM      9  H   UNL     1      10.721  21.814  -6.840  0.00  0.00    +0.222 HD
ENDBRANCH   6   8
BRANCH   6  10
ATOM     10  O   UNL     1       9.069  19.906  -6.018  0.00  0.00    -0.286 OA
BRANCH  10  11
ATOM     11  C   UNL     1       9.034  19.934  -7.448  0.00  0.00    +0.181 C 
BRANCH  11  12
ATOM     12  C   UNL     1       7.668  19.529  -8.021  0.00  0.00    +0.024 C 
ATOM     13  C   UNL     1       7.360  18.087  -7.598  0.00  0.00    +0.016 C 
ATOM     14  C   UNL     1       6.581  20.451  -7.412  0.00  0.00    +0.016 C 
BRANCH  12  15
ATOM     15  C   UNL     1       7.660  19.686  -9.578  0.00  0.00    +0.208 C 
BRANCH  15  18
ATOM     16  N   UNL     1       8.389  18.110 -11.352  0.00  0.00    -0.313 N 
ATOM     17  H   UNL     1       7.394  17.926 -11.444  0.00  0.00    +0.149 HD
ATOM     18  C   UNL     1       8.795  18.919 -10.307  0.00  0.00    +0.242 C 
ATOM     19  O   UNL     1       9.981  19.066 -10.025  0.00  0.00    -0.273 OA
BRANCH  16  20
ATOM     20  C   UNL     1       9.365  17.248 -11.998  0.00  0.00    +0.113 C 
BRANCH  20  21
ATOM     21  C   UNL     1       8.774  16.355 -13.075  0.00  0.00    +0.114 C 
BRANCH  21  24
ATOM     22  N   UNL     1      10.555  16.163 -14.717  0.00  0.00    -0.314 N 
ATOM     23  H   UNL     1      10.159  16.997 -15.134  0.00  0.00    +0.149 HD
ATOM     24  C   UNL     1       9.882  15.532 -13.696  0.00  0.00    +0.215 C 
ATOM     25  O   UNL     1      10.184  14.421 -13.273  0.00  0.00    -0.276 OA
BRANCH  22  26
ATOM     26  C   UNL     1      11.674  15.539 -15.406  0.00  0.00    +0.115 C 
BRANCH  26  27
ATOM     27  C   UNL     1      11.260  14.623 -16.561  0.00  0.00    +0.096 C 
BRANCH  27  28
ATOM     28  S   UNL     1      10.388  15.565 -17.861  0.00  0.00    -0.087 S 
BRANCH  28  29
ATOM     29  C   UNL     1      10.139  14.273 -19.041  0.00  0.00    +0.189 C 
ATOM     30  O   UNL     1      10.551  13.137 -18.854  0.00  0.00    -0.285 OA
BRANCH  29  32
ATOM     31  C   UNL     1       9.149  13.600 -21.266  0.00  0.00    +0.012 C 
ATOM     32  C   UNL     1       9.392  14.730 -20.279  0.00  0.00    +0.083 C 
ENDBRANCH  29  32
ENDBRANCH  28  29
ENDBRANCH  27  28
ENDBRANCH  26  27
ENDBRANCH  22  26
ENDBRANCH  21  24
ENDBRANCH  20  21
ENDBRANCH  16  20
ENDBRANCH  15  18
BRANCH  15  33
ATOM     33  O   UNL     1       6.378  19.333 -10.108  0.00  0.00    -0.382 OA
ATOM     34  H   UNL     1       6.309  19.764 -10.979  0.00  0.00    +0.210 HD
ENDBRANCH  15  33
ENDBRANCH  12  15
ENDBRANCH  11  12
ENDBRANCH  10  11
ENDBRANCH   6  10
ENDBRANCH   5   6
ENDBRANCH   1   5
BRANCH   1  35
ATOM     35  O   UNL     1      12.425  19.524  -2.536  0.00  0.00    -0.284 OA
BRANCH  35  36
ATOM     36  C   UNL     1      12.072  19.953  -1.210  0.00  0.00    +0.206 C 
BRANCH  36  37
ATOM     37  C   UNL     1      13.132  19.879  -0.001  0.00  0.00    +0.181 C 
ATOM     38  C   UNL     1      13.221  18.544   0.767  0.00  0.00    +0.196 C 
ATOM     39  C   UNL     1      14.653  18.070   0.552  0.00  0.00    +0.219 C 
ATOM     40  C   UNL     1      15.270  19.066  -0.423  0.00  0.00    +0.349 C 
ATOM     41  O   UNL     1      14.503  20.267  -0.333  0.00  0.00    -0.328 OA
BRANCH  40  42
ATOM     42  N   UNL     1      16.692  19.223  -0.114  0.00  0.00    -0.191 N 
ATOM     43  C   UNL     1      17.360  20.450   0.153  0.00  0.00    +0.314 C 
ATOM     44  N   UNL     1      18.619  20.331   0.466  0.00  0.00    -0.235 NA
ATOM     45  C   UNL     1      18.905  18.874   0.241  0.00  0.00    +0.251 C 
ATOM     46  C   UNL     1      19.544  18.126   1.420  0.00  0.00    +0.159 C 
ATOM     47  N   UNL     1      19.659  16.729   1.095  0.00  0.00    -0.265 NA
ATOM     48  H   UNL     1      20.044  16.206   1.877  0.00  0.00    +0.127 HD
ATOM     49  C   UNL     1      18.570  16.053   0.444  0.00  0.00    +0.312 C 
ATOM     50  N   UNL     1      17.450  16.945   0.156  0.00  0.00    -0.225 N 
ATOM     51  H   UNL     1      16.519  16.532   0.090  0.00  0.00    +0.292 HD
ATOM     52  C   UNL     1      17.576  18.252   0.060  0.00  0.00    +0.277 C 
BRANCH  46  53
ATOM     53  N   UNL     1      20.908  18.507   1.707  0.00  0.00    -0.313 NA
ATOM     54  H   UNL     1      20.980  18.896   2.646  0.00  0.00    +0.120 HD
ATOM     55  H   UNL     1      21.209  19.260   1.086  0.00  0.00    +0.120 HD
ENDBRANCH  46  53
ENDBRANCH  40  42
BRANCH  39  56
ATOM     56  O   UNL     1      14.795  16.728   0.060  0.00  0.00    -0.382 OA
ATOM     57  H   UNL     1      14.263  16.639  -0.758  0.00  0.00    +0.210 HD
ENDBRANCH  39  56
BRANCH  38  58
ATOM     58  O   UNL     1      13.160  18.765   2.185  0.00  0.00    -0.278 OA
BRANCH  58  59
ATOM     59  P   UNL     1      11.803  18.618   3.013  0.00  0.00    +0.473 P 
ATOM     60  O   UNL     1      11.046  19.860   3.294  0.00  0.00    -0.228 OA
BRANCH  59  61
ATOM     61  O   UNL     1      10.988  17.453   2.297  0.00  0.00    -0.303 OA
ATOM     62  H   UNL     1      10.256  17.142   2.861  0.00  0.00    +0.222 HD
ENDBRANCH  59  61
BRANCH  59  63
ATOM     63  O   UNL     1      12.296  17.848   4.335  0.00  0.00    -0.303 OA
ATOM     64  H   UNL     1      12.557  18.455   5.054  0.00  0.00    +0.222 HD
ENDBRANCH  59  63
ENDBRANCH  58  59
ENDBRANCH  38  58
ENDBRANCH  36  37
ENDBRANCH  35  36
ENDBRANCH   1  35
TORSDOF 28
