REMARK  Name = 
REMARK  3 active torsions:
REMARK  status: ('A' for Active; 'I' for Inactive)
REMARK    1  A    between atoms: O_1  and  C_2
REMARK    2  A    between atoms: C_2  and  C_3
REMARK    3  A    between atoms: C_3  and  C_4
REMARK                            x       y       z     vdW  Elec       q    Type
REMARK                         _______ _______ _______ _____ _____    ______ ____
ROOT
ATOM      1  C   UNL     1       4.405  -1.236   0.780  0.00  0.00    -0.045 A 
ATOM      2  C   UNL     1       5.091  -1.940   1.778  0.00  0.00    +0.004 A 
ATOM      3  C   UNL     1       6.483  -2.043   1.743  0.00  0.00    +0.000 A 
ATOM      4  C   UNL     1       7.200  -1.446   0.708  0.00  0.00    +0.000 A 
ATOM      5  C   UNL     1       6.527  -0.750  -0.294  0.00  0.00    +0.000 A 
ATOM      6  C   UNL     1       5.135  -0.647  -0.260  0.00  0.00    +0.004 A 
ENDROOT
BRANCH   1   7
ATOM      7  C   UNL     1       2.903  -1.130   0.817  0.00  0.00    +0.063 C 
BRANCH   7   8
ATOM      8  C   UNL     1       2.221  -2.311   0.134  0.00  0.00    +0.160 C 
BRANCH   8   9
ATOM      9  O   UNL     1       0.809  -2.159   0.231  0.00  0.00    -0.395 OA
ATOM     10  H   UNL     1       0.410  -2.935  -0.198  0.00  0.00    +0.209 HD
ENDBRANCH   8   9
ENDBRANCH   7   8
ENDBRANCH   1   7
TORSDOF 3
