REMARK  Name = 
REMARK  9 active torsions:
REMARK  status: ('A' for Active; 'I' for Inactive)
REMARK    1  A    between atoms: N_1  and  CA_2
REMARK    2  A    between atoms: CA_2  and  C_4
REMARK    3  A    between atoms: CA_2  and  C_12
REMARK    4  A    between atoms: C_4  and  C_5
REMARK    5  A    between atoms: C_5  and  C_6
REMARK    6  A    between atoms: C_6  and  C_7
REMARK    7  A    between atoms: C_7  and  C_9
REMARK    8  A    between atoms: C_9  and  O_10
REMARK    9  A    between atoms: C_12  and  O_13
REMARK                            x       y       z     vdW  Elec       q    Type
REMARK                         _______ _______ _______ _____ _____    ______ ____
ROOT
ATOM      1  C   UNL     1       2.893   0.802  -1.093  0.00  0.00    +0.030 C 
ENDROOT
BRANCH   1   2
ATOM      2  CA  UNL     1       2.388   0.080   0.165  0.00  0.00    +0.161 C 
BRANCH   2   3
ATOM      3  N   UNL     1       0.896   0.077   0.253  0.00  0.00    -0.318 NA
ATOM      4  H1  UNL     1       0.541   0.932  -0.188  0.00  0.00    +0.119 HD
ATOM      5  H2  UNL     1       0.547  -0.677  -0.349  0.00  0.00    +0.119 HD
ENDBRANCH   2   3
BRANCH   2   6
ATOM      6  C   UNL     1       2.946   0.754   1.432  0.00  0.00    +0.322 C 
ATOM      7  OXT UNL     1       4.119   1.024   1.629  0.00  0.00    -0.249 OA
BRANCH   6   8
ATOM      8  O   UNL     1       1.956   1.004   2.329  0.00  0.00    -0.480 OA
ATOM      9  H   UNL     1       1.128   0.656   1.911  0.00  0.00    +0.295 HD
ENDBRANCH   6   8
ENDBRANCH   2   6
ENDBRANCH   1   2
BRANCH   1  10
ATOM     10  C   UNL     1       2.410   0.136  -2.385  0.00  0.00    +0.007 C 
BRANCH  10  11
ATOM     11  C   UNL     1       2.942   0.842  -3.642  0.00  0.00    +0.042 C 
BRANCH  11  12
ATOM     12  C   UNL     1       2.491   0.251  -4.957  0.00  0.00    +0.029 C 
ATOM     13  C   UNL     1       1.726  -0.850  -5.088  0.00  0.00    +0.019 C 
BRANCH  12  14
ATOM     14  C   UNL     1       2.823   0.939  -6.243  0.00  0.00    +0.332 C 
ATOM     15  O   UNL     1       2.193   0.779  -7.278  0.00  0.00    -0.246 OA
BRANCH  14  16
ATOM     16  O   UNL     1       3.885   1.763  -6.181  0.00  0.00    -0.477 OA
ATOM     17  H   UNL     1       4.402   1.748  -5.359  0.00  0.00    +0.295 HD
ENDBRANCH  14  16
ENDBRANCH  12  14
ENDBRANCH  11  12
ENDBRANCH  10  11
ENDBRANCH   1  10
TORSDOF 9
