REMARK  Name = 
REMARK  6 active torsions:
REMARK  status: ('A' for Active; 'I' for Inactive)
REMARK    1  A    between atoms: C_1  and  C_2
REMARK    2  A    between atoms: C_6  and  C_7
REMARK    3  A    between atoms: C_7  and  CA_8
REMARK    4  A    between atoms: CA_8  and  N_10
REMARK    5  A    between atoms: CA_8  and  C_11
REMARK    6  A    between atoms: C_11  and  O_12
REMARK                            x       y       z     vdW  Elec       q    Type
REMARK                         _______ _______ _______ _____ _____    ______ ____
ROOT
ATOM      1  C   UNL     1       3.784  -3.647   1.053  0.00  0.00    +0.065 C 
ENDROOT
BRANCH   1   5
ATOM      2  C   UNL     1       1.954  -0.491   4.525  0.00  0.00    +0.044 C 
ATOM      3  C   UNL     1       2.685  -0.706   3.232  0.00  0.00    -0.050 A 
ATOM      4  C   UNL     1       2.904  -2.007   2.765  0.00  0.00    +0.007 A 
ATOM      5  C   UNL     1       3.571  -2.237   1.552  0.00  0.00    -0.045 A 
ATOM      6  C   UNL     1       4.031  -1.142   0.812  0.00  0.00    +0.004 A 
ATOM      7  C   UNL     1       3.836   0.156   1.282  0.00  0.00    +0.001 A 
ATOM      8  C   UNL     1       3.165   0.374   2.486  0.00  0.00    +0.003 A 
ENDBRANCH   1   5
BRANCH   1   9
ATOM      9  CA  UNL     1       2.638  -4.181   0.178  0.00  0.00    +0.165 C 
BRANCH   9  10
ATOM     10  N   UNL     1       1.343  -4.304   0.922  0.00  0.00    -0.318 NA
ATOM     11  H1  UNL     1       1.121  -3.372   1.290  0.00  0.00    +0.119 HD
ATOM     12  H2  UNL     1       0.605  -4.468   0.227  0.00  0.00    +0.119 HD
ENDBRANCH   9  10
BRANCH   9  13
ATOM     13  C   UNL     1       3.037  -5.585  -0.298  0.00  0.00    +0.322 C 
ATOM     14  OXT UNL     1       3.812  -5.827  -1.208  0.00  0.00    -0.249 OA
BRANCH  13  15
ATOM     15  O   UNL     1       2.442  -6.546   0.460  0.00  0.00    -0.480 OA
ATOM     16  H   UNL     1       1.858  -6.066   1.099  0.00  0.00    +0.295 HD
ENDBRANCH  13  15
ENDBRANCH   9  13
ENDBRANCH   1   9
TORSDOF 5
