REMARK  Name = 
REMARK  2 active torsions:
REMARK  status: ('A' for Active; 'I' for Inactive)
REMARK    1  A    between atoms: O_1  and  C_2
REMARK    2  A    between atoms: C_2  and  CA_4
REMARK                            x       y       z     vdW  Elec       q    Type
REMARK                         _______ _______ _______ _____ _____    ______ ____
ROOT
ATOM      1  CA  UNL     1       3.172   0.009   1.427  0.00  0.00    +0.192 C 
ATOM      2  N   UNL     1       4.188   1.059   1.412  0.00  0.00    -0.285 N 
ATOM      3  H   UNL     1       3.879   2.029   1.391  0.00  0.00    +0.151 HD
ATOM      4  C   UNL     1       5.312   0.897   0.658  0.00  0.00    +0.307 C 
ATOM      5  O   UNL     1       5.966   1.864   0.296  0.00  0.00    -0.252 OA
ATOM      6  N   UNL     1       5.637  -0.382   0.324  0.00  0.00    -0.240 N 
ATOM      7  H   UNL     1       6.424  -0.494  -0.300  0.00  0.00    +0.159 HD
ATOM      8  C   UNL     1       4.927  -1.513   0.626  0.00  0.00    +0.223 C 
ATOM      9  O   UNL     1       5.229  -2.604   0.152  0.00  0.00    -0.275 OA
ATOM     10  C   UNL     1       3.817  -1.347   1.622  0.00  0.00    +0.130 C 
ENDROOT
BRANCH   1  11
ATOM     11  C   UNL     1       2.186   0.244   2.566  0.00  0.00    +0.326 C 
ATOM     12  OXT UNL     1       1.081  -0.272   2.629  0.00  0.00    -0.249 OA
BRANCH  11  13
ATOM     13  O   UNL     1       2.697   1.003   3.566  0.00  0.00    -0.479 OA
ATOM     14  H   UNL     1       3.631   1.241   3.389  0.00  0.00    +0.295 HD
ENDBRANCH  11  13
ENDBRANCH   1  11
TORSDOF 2
