REMARK  Name = 
REMARK  1 active torsions:
REMARK  status: ('A' for Active; 'I' for Inactive)
REMARK    1  A    between atoms: N_1  and  C_2
REMARK                            x       y       z     vdW  Elec       q    Type
REMARK                         _______ _______ _______ _____ _____    ______ ____
ROOT
ATOM      1  C   UNL     1       2.278   0.045   0.129  0.00  0.00    +0.025 A 
ATOM      2  C   UNL     1       2.957  -1.170   0.206  0.00  0.00    +0.036 A 
ATOM      3  C   UNL     1       4.372  -1.218   0.298  0.00  0.00    +0.042 A 
ATOM      4  C   UNL     1       5.113  -0.035   0.296  0.00  0.00    +0.078 A 
ATOM      5  N   UNL     1       6.447  -0.019   0.389  0.00  0.00    -0.215 NA
ATOM      6  C   UNL     1       7.068  -1.193   0.502  0.00  0.00    +0.215 A 
ATOM      7  N   UNL     1       6.470  -2.385   0.483  0.00  0.00    -0.199 NA
ATOM      8  N   UNL     1       8.446  -1.172   0.581  0.00  0.00    -0.327 N 
ATOM      9  H   UNL     1       8.824  -2.034   0.216  0.00  0.00    +0.145 HD
ATOM     10  H   UNL     1       8.794  -0.308   0.189  0.00  0.00    +0.145 HD
ATOM     11  C   UNL     1       4.427   1.165   0.169  0.00  0.00    +0.030 A 
ATOM     12  C   UNL     1       5.135  -2.385   0.383  0.00  0.00    +0.129 A 
ATOM     13  N   UNL     1       4.539  -3.654   0.388  0.00  0.00    -0.343 N 
ATOM     14  H   UNL     1       3.943  -3.784  -0.421  0.00  0.00    +0.144 HD
ATOM     15  H   UNL     1       5.294  -4.335   0.411  0.00  0.00    +0.144 HD
ATOM     16  C   UNL     1       3.032   1.212   0.059  0.00  0.00    +0.025 A 
ENDROOT
BRANCH   1  17
ATOM     17  N   UNL     1       0.903   0.072  -0.115  0.00  0.00    -0.358 N 
ATOM     18  H   UNL     1       0.400  -0.727   0.258  0.00  0.00    +0.142 HD
ATOM     19  H   UNL     1       0.456   0.951   0.131  0.00  0.00    +0.142 HD
ENDBRANCH   1  17
TORSDOF 1
