REMARK  Name = 
REMARK  2 active torsions:
REMARK  status: ('A' for Active; 'I' for Inactive)
REMARK    1  A    between atoms: N_1  and  C_2
REMARK    2  A    between atoms: C_2  and  C_4
REMARK                            x       y       z     vdW  Elec       q    Type
REMARK                         _______ _______ _______ _____ _____    ______ ____
ROOT
ATOM      1  C   UNL     1       2.345  -0.091   0.121  0.00  0.00    +0.080 C 
ATOM      2  C   UNL     1       3.025   1.058   0.209  0.00  0.00    +0.038 C 
ENDROOT
BRANCH   1   3
ATOM      3  C   UNL     1       3.145  -1.349  -0.160  0.00  0.00    +0.255 C 
ATOM      4  O   UNL     1       4.319  -1.364  -0.500  0.00  0.00    -0.269 OA
ATOM      5  N   UNL     1       2.428  -2.496   0.023  0.00  0.00    -0.324 N 
ATOM      6  H   UNL     1       2.948  -3.361  -0.005  0.00  0.00    +0.145 HD
ATOM      7  H   UNL     1       1.579  -2.456   0.571  0.00  0.00    +0.145 HD
ENDBRANCH   1   3
BRANCH   1   8
ATOM      8  N   UNL     1       0.965  -0.191   0.252  0.00  0.00    -0.354 N 
ATOM      9  H   UNL     1       0.592  -0.859  -0.421  0.00  0.00    +0.142 HD
ATOM     10  H   UNL     1       0.511   0.714   0.146  0.00  0.00    +0.142 HD
ENDBRANCH   1   8
TORSDOF 2
