REMARK  Name = 
REMARK  11 active torsions:
REMARK  status: ('A' for Active; 'I' for Inactive)
REMARK    1  A    between atoms: N_8  and  C_9
REMARK    2  A    between atoms: C_12  and  C_14
REMARK    3  A    between atoms: C_14  and  O_15
REMARK    4  A    between atoms: O_15  and  P_16
REMARK    5  A    between atoms: P_16  and  O_17
REMARK    6  A    between atoms: P_16  and  O_19
REMARK    7  A    between atoms: O_19  and  P_20
REMARK    8  A    between atoms: P_20  and  N_21
REMARK    9  A    between atoms: P_20  and  O_22
REMARK   10  A    between atoms: C_24  and  O_26
REMARK   11  A    between atoms: C_27  and  O_29
REMARK                            x       y       z     vdW  Elec       q    Type
REMARK                         _______ _______ _______ _____ _____    ______ ____
ROOT
ATOM      1  C   UNL     1       8.174  -6.218  -5.341  0.00  0.00    +0.253 C 
ATOM      2  C   UNL     1       7.956  -7.739  -5.450  0.00  0.00    +0.195 C 
ATOM      3  C   UNL     1       8.616  -8.324  -4.187  0.00  0.00    +0.178 C 
ATOM      4  C   UNL     1       9.190  -7.093  -3.486  0.00  0.00    +0.178 C 
ATOM      5  O   UNL     1       8.381  -5.989  -3.930  0.00  0.00    -0.346 OA
ENDROOT
BRANCH   1  17
ATOM      6  N   UNL     1      12.045  -8.957  -7.790  0.00  0.00    -0.329 N 
ATOM      7  H   UNL     1      13.014  -9.231  -7.699  0.00  0.00    +0.145 HD
ATOM      8  H   UNL     1      11.404  -9.627  -7.370  0.00  0.00    +0.145 HD
ATOM      9  C   UNL     1      11.723  -7.682  -7.463  0.00  0.00    +0.195 A 
ATOM     10  N   UNL     1      12.672  -6.716  -7.726  0.00  0.00    -0.293 N 
ATOM     11  H   UNL     1      13.538  -6.966  -8.172  0.00  0.00    +0.172 HD
ATOM     12  C   UNL     1      12.507  -5.362  -7.472  0.00  0.00    +0.280 A 
ATOM     13  O   UNL     1      13.385  -4.542  -7.726  0.00  0.00    -0.265 OA
ATOM     14  C   UNL     1      11.222  -5.071  -6.873  0.00  0.00    +0.172 A 
ATOM     15  N   UNL     1      10.694  -3.884  -6.436  0.00  0.00    -0.229 NA
ATOM     16  C   UNL     1       9.529  -4.219  -5.923  0.00  0.00    +0.203 A 
ATOM     17  N   UNL     1       9.285  -5.576  -6.013  0.00  0.00    -0.285 N 
ATOM     18  C   UNL     1      10.364  -6.123  -6.641  0.00  0.00    +0.171 A 
ATOM     19  N   UNL     1      10.565  -7.428  -6.920  0.00  0.00    -0.196 NA
ENDBRANCH   1  17
BRANCH   2  20
ATOM     20  O   UNL     1       6.535  -8.021  -5.417  0.00  0.00    -0.385 OA
ATOM     21  H   UNL     1       6.190  -7.768  -4.542  0.00  0.00    +0.210 HD
ENDBRANCH   2  20
BRANCH   3  22
ATOM     22  O   UNL     1       9.629  -9.273  -4.516  0.00  0.00    -0.386 OA
ATOM     23  H   UNL     1      10.016  -9.591  -3.682  0.00  0.00    +0.210 HD
ENDBRANCH   3  22
BRANCH   4  24
ATOM     24  C   UNL     1       9.161  -7.096  -1.969  0.00  0.00    +0.206 C 
BRANCH  24  25
ATOM     25  O   UNL     1       9.831  -8.213  -1.421  0.00  0.00    -0.284 OA
BRANCH  25  26
ATOM     26  P   UNL     1       9.857  -8.323   0.183  0.00  0.00    +0.483 P 
ATOM     27  O   UNL     1      10.560  -9.523   0.709  0.00  0.00    -0.227 OA
BRANCH  26  28
ATOM     28  O   UNL     1      10.538  -6.953   0.647  0.00  0.00    -0.302 OA
ATOM     29  H   UNL     1      11.512  -7.032   0.658  0.00  0.00    +0.222 HD
ENDBRANCH  26  28
BRANCH  26  30
ATOM     30  O   UNL     1       8.310  -8.213   0.647  0.00  0.00    -0.196 OA
BRANCH  30  31
ATOM     31  P   UNL     1       7.597  -9.693   0.102  0.00  0.00    +0.411 P 
ATOM     32  O   UNL     1       6.960 -11.017  -0.385  0.00  0.00    -0.240 OA
BRANCH  31  33
ATOM     33  N   UNL     1       6.538  -9.534   1.399  0.00  0.00    -0.236 NA
ATOM     34  H   UNL     1       6.327 -10.467   1.744  0.00  0.00    +0.130 HD
ATOM     35  H   UNL     1       6.981  -9.032   2.161  0.00  0.00    +0.130 HD
ENDBRANCH  31  33
BRANCH  31  36
ATOM     36  O   UNL     1       6.697  -8.767  -0.908  0.00  0.00    -0.312 OA
ATOM     37  H   UNL     1       5.834  -8.661  -0.460  0.00  0.00    +0.221 HD
ENDBRANCH  31  36
ENDBRANCH  30  31
ENDBRANCH  26  30
ENDBRANCH  25  26
ENDBRANCH  24  25
ENDBRANCH   4  24
TORSDOF 11
