REMARK  Name = 
REMARK  16 active torsions:
REMARK  status: ('A' for Active; 'I' for Inactive)
REMARK    1  A    between atoms: C_1  and  C_2
REMARK    2  A    between atoms: C_2  and  C_3
REMARK    3  A    between atoms: C_2  and  C_4
REMARK    4  A    between atoms: C_5  and  C_30
REMARK    5  A    between atoms: C_9  and  C_11
REMARK    6  A    between atoms: C_13  and  N_14
REMARK    7  A    between atoms: C_15  and  C_17
REMARK    8  A    between atoms: C_19  and  N_20
REMARK    9  A    between atoms: N_24  and  C_25
REMARK   10  A    between atoms: N_27  and  C_28
REMARK   11  A    between atoms: N_32  and  C_33
REMARK   12  A    between atoms: C_33  and  C_34
REMARK   13  A    between atoms: C_34  and  C_35
REMARK   14  A    between atoms: C_35  and  N_36
REMARK   15  A    between atoms: N_36  and  C_37
REMARK   16  A    between atoms: N_36  and  C_38
REMARK                            x       y       z     vdW  Elec       q    Type
REMARK                         _______ _______ _______ _____ _____    ______ ____
ROOT
ATOM      1  C   UNL     1       3.015  -1.061   0.774  0.00  0.00    +0.026 A 
ATOM      2  S   UNL     1       2.532  -2.476  -0.116  0.00  0.00    -0.056 S 
ATOM      3  C   UNL     1       3.147  -3.468   1.104  0.00  0.00    +0.166 A 
ATOM      4  N   UNL     1       2.829  -4.783   0.922  0.00  0.00    -0.259 N 
ATOM      5  H   UNL     1       2.242  -4.990   0.133  0.00  0.00    +0.157 HD
ATOM      6  C   UNL     1       3.227  -5.774   1.783  0.00  0.00    +0.266 C 
ATOM      7  O   UNL     1       3.970  -5.596   2.742  0.00  0.00    -0.268 OA
ATOM      8  N   UNL     1       3.805  -2.872   2.058  0.00  0.00    -0.220 NA
ATOM      9  C   UNL     1       3.761  -1.468   1.891  0.00  0.00    +0.138 A 
ENDROOT
BRANCH   6  10
ATOM     10  C   UNL     1       2.690  -7.098   1.455  0.00  0.00    +0.106 A 
ATOM     11  N   UNL     1       3.052  -8.262   2.114  0.00  0.00    -0.344 N 
ATOM     12  C   UNL     1       4.014  -8.359   3.195  0.00  0.00    +0.149 C 
ATOM     13  C   UNL     1       2.366  -9.335   1.603  0.00  0.00    +0.109 A 
ATOM     14  C   UNL     1       1.540  -8.885   0.602  0.00  0.00    +0.052 A 
ATOM     15  C   UNL     1       1.747  -7.487   0.503  0.00  0.00    +0.055 A 
BRANCH  14  16
ATOM     16  N   UNL     1       0.698  -9.730  -0.100  0.00  0.00    -0.279 N 
ATOM     17  H   UNL     1       0.734 -10.697   0.180  0.00  0.00    +0.155 HD
ATOM     18  C   UNL     1      -0.178  -9.357  -1.111  0.00  0.00    +0.265 C 
ATOM     19  O   UNL     1      -0.282  -8.209  -1.528  0.00  0.00    -0.268 OA
BRANCH  18  20
ATOM     20  C   UNL     1      -0.975 -10.463  -1.652  0.00  0.00    +0.106 A 
ATOM     21  N   UNL     1      -1.931 -10.340  -2.652  0.00  0.00    -0.344 N 
ATOM     22  C   UNL     1      -2.305  -9.118  -3.338  0.00  0.00    +0.149 C 
ATOM     23  C   UNL     1      -2.499 -11.561  -2.924  0.00  0.00    +0.109 A 
ATOM     24  C   UNL     1      -1.918 -12.498  -2.106  0.00  0.00    +0.052 A 
ATOM     25  C   UNL     1      -0.966 -11.815  -1.316  0.00  0.00    +0.055 A 
BRANCH  24  26
ATOM     26  N   UNL     1      -2.258 -13.831  -2.119  0.00  0.00    -0.287 N 
ATOM     27  H   UNL     1      -2.978 -14.146  -2.756  0.00  0.00    +0.155 HD
ATOM     28  C   UNL     1      -1.712 -14.789  -1.313  0.00  0.00    +0.330 C 
ATOM     29  O   UNL     1      -2.053 -15.967  -1.342  0.00  0.00    -0.279 OA
ENDBRANCH  24  26
ENDBRANCH  18  20
ENDBRANCH  14  16
ENDBRANCH   6  10
BRANCH   9  30
ATOM     30  C   UNL     1       4.443  -0.638   2.916  0.00  0.00    +0.263 C 
ATOM     31  N   UNL     1       5.003  -1.406   3.925  0.00  0.00    -0.310 N 
ATOM     32  H   UNL     1       4.860  -2.411   3.842  0.00  0.00    +0.149 HD
ATOM     33  O   UNL     1       4.519   0.583   2.867  0.00  0.00    -0.269 OA
BRANCH  31  34
ATOM     34  C   UNL     1       5.788  -0.914   5.045  0.00  0.00    +0.106 C 
BRANCH  34  35
ATOM     35  C   UNL     1       4.960  -0.578   6.286  0.00  0.00    +0.034 C 
BRANCH  35  36
ATOM     36  C   UNL     1       4.182  -1.761   6.886  0.00  0.00    +0.085 C 
BRANCH  36  37
ATOM     37  N   UNL     1       4.993  -2.897   7.365  0.00  0.00    -0.308 NA
ATOM     38  C   UNL     1       4.104  -3.993   7.774  0.00  0.00    +0.104 C 
ATOM     39  C   UNL     1       5.859  -2.535   8.489  0.00  0.00    +0.104 C 
ENDBRANCH  36  37
ENDBRANCH  35  36
ENDBRANCH  34  35
ENDBRANCH  31  34
ENDBRANCH   9  30
BRANCH   1  41
ATOM     40  C   UNL     1       1.476   0.894   1.174  0.00  0.00    +0.013 C 
ATOM     41  C   UNL     1       2.483   0.248   0.227  0.00  0.00    +0.022 C 
ATOM     42  C   UNL     1       3.528   1.234  -0.275  0.00  0.00    +0.013 C 
ENDBRANCH   1  41
TORSDOF 10
