REMARK  Name = 
REMARK  5 active torsions:
REMARK  status: ('A' for Active; 'I' for Inactive)
REMARK    1  A    between atoms: C_1  and  C_2
REMARK    2  A    between atoms: C_2  and  C_3
REMARK    3  A    between atoms: C_2  and  C_4
REMARK    4  A    between atoms: C_7  and  C_8
REMARK    5  A    between atoms: C_10  and  O_11
REMARK                            x       y       z     vdW  Elec       q    Type
REMARK                         _______ _______ _______ _____ _____    ______ ____
ROOT
ATOM      1  C   UNL     1       2.829   0.940  -1.221  0.00  0.00    -0.003 A 
ATOM      2  C   UNL     1       3.153   0.527  -2.518  0.00  0.00    +0.121 A 
ATOM      3  C   UNL     1       3.361   1.456  -3.545  0.00  0.00    +0.049 A 
ATOM      4  C   UNL     1       3.232   2.827  -3.299  0.00  0.00    -0.047 A 
ATOM      5  C   UNL     1       3.367   3.808  -4.425  0.00  0.00    +0.044 C 
ATOM      6  C   UNL     1       2.952   3.256  -2.001  0.00  0.00    +0.004 A 
ATOM      7  C   UNL     1       2.754   2.325  -0.978  0.00  0.00    +0.008 A 
ENDROOT
BRANCH   1   9
ATOM      8  C   UNL     1       0.939  -0.310  -0.193  0.00  0.00    +0.012 C 
ATOM      9  C   UNL     1       2.435   0.003  -0.087  0.00  0.00    +0.016 C 
ATOM     10  C   UNL     1       3.247  -1.287   0.046  0.00  0.00    +0.012 C 
ENDBRANCH   1   9
BRANCH   2  11
ATOM     11  O   UNL     1       3.234  -0.804  -2.810  0.00  0.00    -0.506 OA
ATOM     12  H   UNL     1       3.545  -0.908  -3.722  0.00  0.00    +0.292 HD
ENDBRANCH   2  11
TORSDOF 2
