REMARK  Name = 
REMARK  6 active torsions:
REMARK  status: ('A' for Active; 'I' for Inactive)
REMARK    1  A    between atoms: C_1  and  S_2
REMARK    2  A    between atoms: S_2  and  C_3
REMARK    3  A    between atoms: C_3  and  C_4
REMARK    4  A    between atoms: C_4  and  C_5
REMARK    5  A    between atoms: C_5  and  C_7
REMARK    6  A    between atoms: C_7  and  O_8
REMARK                            x       y       z     vdW  Elec       q    Type
REMARK                         _______ _______ _______ _____ _____    ______ ____
ROOT
ATOM      1  C   UNL     1       5.341  -0.072   3.127  0.00  0.00    +0.240 C 
ATOM      2  O   UNL     1       4.627  -0.111   4.126  0.00  0.00    -0.285 OA
ENDROOT
BRANCH   1   3
ATOM      3  C   UNL     1       6.855  -0.080   3.339  0.00  0.00    +0.373 C 
ATOM      4  O   UNL     1       7.656  -0.045   2.427  0.00  0.00    -0.242 OA
BRANCH   3   5
ATOM      5  O   UNL     1       7.153  -0.131   4.650  0.00  0.00    -0.475 OA
ATOM      6  H   UNL     1       6.320  -0.151   5.176  0.00  0.00    +0.295 HD
ENDBRANCH   3   5
ENDBRANCH   1   3
BRANCH   1   7
ATOM      7  C   UNL     1       4.874  -0.017   1.696  0.00  0.00    +0.097 C 
BRANCH   7   8
ATOM      8  C   UNL     1       3.354  -0.013   1.603  0.00  0.00    +0.077 C 
BRANCH   8  10
ATOM      9  C   UNL     1       1.068   0.049   0.051  0.00  0.00    +0.084 C 
ATOM     10  S   UNL     1       2.866   0.054  -0.152  0.00  0.00    -0.164 S 
ENDBRANCH   8  10
ENDBRANCH   7   8
ENDBRANCH   1   7
TORSDOF 5
