REMARK  Name = 
REMARK  5 active torsions:
REMARK  status: ('A' for Active; 'I' for Inactive)
REMARK    1  A    between atoms: O_1  and  C_2
REMARK    2  A    between atoms: C_2  and  C_4
REMARK    3  A    between atoms: C_4  and  N_5
REMARK    4  A    between atoms: N_8  and  C_9
REMARK    5  A    between atoms: C_9  and  C_10
REMARK                            x       y       z     vdW  Elec       q    Type
REMARK                         _______ _______ _______ _____ _____    ______ ____
ROOT
ATOM      1  N   UNL     1       4.651   0.972  -0.715  0.00  0.00    -0.282 N 
ATOM      2  C   UNL     1       5.535   2.066  -0.486  0.00  0.00    +0.061 A 
ATOM      3  C   UNL     1       5.105   3.403  -0.479  0.00  0.00    +0.046 A 
ATOM      4  C   UNL     1       6.038   4.445  -0.442  0.00  0.00    +0.043 A 
ATOM      5  C   UNL     1       7.400   4.176  -0.357  0.00  0.00    +0.021 A 
ATOM      6  C   UNL     1       7.832   2.853  -0.276  0.00  0.00    +0.017 A 
ATOM      7 CL   UNL     1       5.498   6.075  -0.552  0.00  0.00    -0.083 Cl
ATOM      8  C   UNL     1       6.899   1.806  -0.339  0.00  0.00    +0.063 A 
ATOM      9  C   UNL     1       7.359   0.405  -0.250  0.00  0.00    +0.265 A 
ATOM     10  O   UNL     1       8.543   0.186  -0.012  0.00  0.00    -0.267 OA
ATOM     11  N   UNL     1       6.411  -0.580  -0.487  0.00  0.00    -0.256 N 
ATOM     12  C   UNL     1       5.146  -0.306  -0.975  0.00  0.00    +0.333 A 
ATOM     13  O   UNL     1       4.482  -1.142  -1.586  0.00  0.00    -0.246 OA
ENDROOT
BRANCH   1  14
ATOM     14  C   UNL     1       3.201   1.169  -0.858  0.00  0.00    +0.247 C 
BRANCH  14  15
ATOM     15  C   UNL     1       2.470   1.150   0.482  0.00  0.00    +0.325 C 
ATOM     16  O   UNL     1       1.264   1.349   0.593  0.00  0.00    -0.249 OA
BRANCH  15  17
ATOM     17  O   UNL     1       3.257   0.924   1.564  0.00  0.00    -0.479 OA
ATOM     18  H   UNL     1       4.193   0.771   1.328  0.00  0.00    +0.295 HD
ENDBRANCH  15  17
ENDBRANCH  14  15
ENDBRANCH   1  14
BRANCH  11  19
ATOM     19  C   UNL     1       6.869  -1.963  -0.569  0.00  0.00    +0.168 C 
BRANCH  19  20
ATOM     20  C   UNL     1       6.206  -2.939   0.387  0.00  0.00    +0.008 A 
ATOM     21  C   UNL     1       5.604  -4.111  -0.105  0.00  0.00    +0.009 A 
ATOM     22  C   UNL     1       5.168  -5.114   0.770  0.00  0.00    +0.016 A 
ATOM     23  C   UNL     1       5.333  -4.957   2.145  0.00  0.00    +0.021 A 
ATOM     24 BR   UNL     1       4.853  -6.365   3.314  0.00  0.00    -0.050 Br
ATOM     25  C   UNL     1       5.878  -3.782   2.657  0.00  0.00    +0.054 A 
ATOM     26  C   UNL     1       6.304  -2.786   1.776  0.00  0.00    +0.129 A 
ATOM     27  F   UNL     1       6.853  -1.675   2.286  0.00  0.00    -0.205 F 
ENDBRANCH  19  20
ENDBRANCH  11  19
TORSDOF 5
