REMARK  Name = 
REMARK  8 active torsions:
REMARK  status: ('A' for Active; 'I' for Inactive)
REMARK    1  A    between atoms: C_1  and  N_2
REMARK    2  A    between atoms: N_2  and  C_3
REMARK    3  A    between atoms: N_2  and  C_4
REMARK    4  A    between atoms: C_4  and  C_5
REMARK    5  A    between atoms: C_5  and  C_6
REMARK    6  A    between atoms: C_6  and  N_7
REMARK    7  A    between atoms: C_8  and  C_10
REMARK    8  A    between atoms: C_15  and  N_16
REMARK                            x       y       z     vdW  Elec       q    Type
REMARK                         _______ _______ _______ _____ _____    ______ ____
ROOT
ATOM      1  C   UNL     1       8.609   3.916  -1.131  0.00  0.00    +0.063 A 
ATOM      2  C   UNL     1       9.358   2.720  -1.144  0.00  0.00    +0.086 A 
ATOM      3  C   UNL     1      10.771   2.816  -1.125  0.00  0.00    +0.022 A 
ATOM      4  C   UNL     1      11.534   1.612  -1.158  0.00  0.00    +0.043 A 
ATOM      5  C   UNL     1      10.871   0.353  -1.129  0.00  0.00    +0.022 A 
ATOM      6  C   UNL     1      11.526  -0.908  -1.092  0.00  0.00    +0.012 A 
ATOM      7  C   UNL     1      10.812  -2.105  -1.103  0.00  0.00    +0.001 A 
ATOM      8  C   UNL     1       9.428  -2.068  -1.138  0.00  0.00    +0.002 A 
ATOM      9  C   UNL     1       8.775  -0.834  -1.160  0.00  0.00    +0.028 A 
ATOM     10  C   UNL     1       9.468   0.372  -1.156  0.00  0.00    +0.073 A 
ATOM     11  C   UNL     1      11.371   4.101  -1.086  0.00  0.00    +0.012 A 
ATOM     12  C   UNL     1      10.618   5.268  -1.097  0.00  0.00    +0.001 A 
ATOM     13  N   UNL     1       8.754   1.507  -1.177  0.00  0.00    -0.246 NA
ATOM     14  C   UNL     1       9.240   5.174  -1.119  0.00  0.00    +0.015 A 
ENDROOT
BRANCH   1  17
ATOM     15  N   UNL     1       6.428   2.775  -1.042  0.00  0.00    -0.311 N 
ATOM     16  H   UNL     1       6.968   1.911  -1.091  0.00  0.00    +0.149 HD
ATOM     17  C   UNL     1       7.110   3.964  -1.110  0.00  0.00    +0.246 C 
ATOM     18  O   UNL     1       6.529   5.046  -1.148  0.00  0.00    -0.270 OA
BRANCH  15  19
ATOM     19  C   UNL     1       4.983   2.700  -1.045  0.00  0.00    +0.106 C 
BRANCH  19  20
ATOM     20  C   UNL     1       4.400   2.703  -2.456  0.00  0.00    +0.034 C 
BRANCH  20  21
ATOM     21  C   UNL     1       4.777   1.460  -3.275  0.00  0.00    +0.085 C 
BRANCH  21  23
ATOM     22  C   UNL     1       2.946   0.034  -2.526  0.00  0.00    +0.104 C 
ATOM     23  N   UNL     1       4.398   0.179  -2.650  0.00  0.00    -0.308 NA
ATOM     24  C   UNL     1       4.945  -0.937  -3.425  0.00  0.00    +0.104 C 
ENDBRANCH  21  23
ENDBRANCH  20  21
ENDBRANCH  19  20
ENDBRANCH  15  19
ENDBRANCH   1  17
BRANCH   4  25
ATOM     25  N   UNL     1      12.950   1.659  -1.006  0.00  0.00    -0.357 N 
ATOM     26  H   UNL     1      13.430   0.837  -1.352  0.00  0.00    +0.142 HD
ATOM     27  H   UNL     1      13.379   2.496  -1.381  0.00  0.00    +0.142 HD
ENDBRANCH   4  25
TORSDOF 6
