REMARK  Name = 
REMARK  1 active torsions:
REMARK  status: ('A' for Active; 'I' for Inactive)
REMARK    1  A    between atoms: C_2  and  C_4
REMARK                            x       y       z     vdW  Elec       q    Type
REMARK                         _______ _______ _______ _____ _____    ______ ____
ROOT
ATOM      1  C   UNL     1       3.373   0.445  -1.330  0.00  0.00    +0.261 C 
ATOM      2  O   UNL     1       4.677  -0.148  -1.338  0.00  0.00    -0.479 OA
ATOM      3  C   UNL     1       4.683  -1.498  -1.559  0.00  0.00    +0.127 A 
ATOM      4  C   UNL     1       3.617  -2.193  -2.147  0.00  0.00    +0.029 A 
ATOM      5  C   UNL     1       3.739  -3.584  -2.311  0.00  0.00    +0.048 A 
ATOM      6  C   UNL     1       4.906  -4.237  -1.924  0.00  0.00    +0.124 A 
ATOM      7  C   UNL     1       5.967  -3.537  -1.365  0.00  0.00    +0.042 A 
ATOM      8  F   UNL     1       5.007  -5.561  -2.095  0.00  0.00    -0.205 F 
ATOM      9  C   UNL     1       2.367  -1.446  -2.561  0.00  0.00    +0.145 C 
ATOM     10  C   UNL     1       1.797  -1.901  -3.923  0.00  0.00    +0.249 C 
ATOM     11  O   UNL     1       2.351  -1.829  -5.010  0.00  0.00    -0.273 OA
ATOM     12  N   UNL     1       0.558  -2.432  -3.720  0.00  0.00    -0.238 N 
ATOM     13  H   UNL     1      -0.011  -2.852  -4.434  0.00  0.00    +0.159 HD
ATOM     14  C   UNL     1       0.241  -2.432  -2.406  0.00  0.00    +0.307 C 
ATOM     15  O   UNL     1      -0.752  -2.923  -1.903  0.00  0.00    -0.252 OA
ATOM     16  N   UNL     1       1.250  -1.810  -1.711  0.00  0.00    -0.281 N 
ATOM     17  H   UNL     1       1.246  -1.809  -0.699  0.00  0.00    +0.152 HD
ATOM     18  C   UNL     1       5.855  -2.162  -1.184  0.00  0.00    +0.049 A 
ATOM     19  C   UNL     1       2.597   0.065  -2.582  0.00  0.00    +0.094 C 
ENDROOT
BRANCH   1  23
ATOM     20  N   UNL     1       4.664   2.487  -1.784  0.00  0.00    -0.326 N 
ATOM     21  H   UNL     1       5.464   1.883  -1.934  0.00  0.00    +0.145 HD
ATOM     22  H   UNL     1       4.835   3.472  -1.630  0.00  0.00    +0.145 HD
ATOM     23  C   UNL     1       3.528   1.964  -1.235  0.00  0.00    +0.251 C 
ATOM     24  O   UNL     1       2.669   2.693  -0.750  0.00  0.00    -0.272 OA
ENDBRANCH   1  23
TORSDOF 1
