REMARK  Name = 
REMARK  8 active torsions:
REMARK  status: ('A' for Active; 'I' for Inactive)
REMARK    1  A    between atoms: C_2  and  C_3
REMARK    2  A    between atoms: C_3  and  O_4
REMARK    3  A    between atoms: O_4  and  C_5
REMARK    4  A    between atoms: C_22  and  N_23
REMARK    5  A    between atoms: C_24  and  C_26
REMARK    6  A    between atoms: C_26  and  O_27
REMARK    7  A    between atoms: C_29  and  C_30
REMARK    8  A    between atoms: C_30  and  O_31
REMARK                            x       y       z     vdW  Elec       q    Type
REMARK                         _______ _______ _______ _____ _____    ______ ____
ROOT
ATOM      1  C   UNL     1       2.039   0.377   0.106  0.00  0.00    +0.192 C 
ATOM      2  C   UNL     1       2.645   1.601   0.780  0.00  0.00    +0.027 A 
ATOM      3  S   UNL     1       2.151   3.203   0.500  0.00  0.00    -0.075 S 
ATOM      4  C   UNL     1       3.386   3.848   1.499  0.00  0.00    +0.087 A 
ATOM      5  C   UNL     1       4.132   2.870   2.140  0.00  0.00    +0.091 A 
ATOM      6  C   UNL     1       3.714   1.564   1.661  0.00  0.00    -0.017 A 
ATOM      7  C   UNL     1       4.294   0.239   2.069  0.00  0.00    +0.065 C 
ATOM      8  C   UNL     1       3.901  -0.835   1.053  0.00  0.00    +0.165 C 
ATOM      9  O   UNL     1       2.487  -0.804   0.827  0.00  0.00    -0.368 OA
ENDROOT
BRANCH   4  10
ATOM     10  N   UNL     1       3.345   5.230   1.526  0.00  0.00    -0.270 N 
ATOM     11  H   UNL     1       2.465   5.673   1.266  0.00  0.00    +0.156 HD
ATOM     12  C   UNL     1       4.463   6.009   1.319  0.00  0.00    +0.326 C 
ATOM     13  O   UNL     1       5.625   5.635   1.211  0.00  0.00    -0.263 OA
BRANCH  12  14
ATOM     14  C   UNL     1       4.136   7.507   1.129  0.00  0.00    +0.393 C 
ATOM     15  O   UNL     1       3.009   7.937   1.288  0.00  0.00    -0.240 OA
BRANCH  14  16
ATOM     16  O   UNL     1       5.204   8.224   0.745  0.00  0.00    -0.474 OA
ATOM     17  H   UNL     1       6.004   7.658   0.665  0.00  0.00    +0.296 HD
ENDBRANCH  14  16
ENDBRANCH  12  14
ENDBRANCH   4  10
BRANCH   5  18
ATOM     18  C   UNL     1       5.082   3.027   3.248  0.00  0.00    +0.339 C 
ATOM     19  O   UNL     1       5.139   2.225   4.175  0.00  0.00    -0.245 OA
BRANCH  18  20
ATOM     20  O   UNL     1       5.929   4.074   3.192  0.00  0.00    -0.477 OA
ATOM     21  H   UNL     1       5.933   4.521   2.318  0.00  0.00    +0.295 HD
ENDBRANCH  18  20
ENDBRANCH   5  18
BRANCH   1  22
ATOM     22  C   UNL     1       0.500   0.321   0.086  0.00  0.00    +0.267 C 
BRANCH  22  23
ATOM     23  O   UNL     1       0.066  -0.862  -0.645  0.00  0.00    -0.472 OA
BRANCH  23  24
ATOM     24  C   UNL     1      -1.261  -1.097  -0.678  0.00  0.00    +0.243 C 
ATOM     25  C   UNL     1      -1.675  -2.267  -1.457  0.00  0.00    +0.065 A 
ATOM     26  C   UNL     1      -0.947  -3.216  -2.153  0.00  0.00    +0.015 A 
ATOM     27  C   UNL     1      -1.659  -4.203  -2.853  0.00  0.00    +0.001 A 
ATOM     28  C   UNL     1      -3.069  -4.227  -2.848  0.00  0.00    +0.002 A 
ATOM     29  C   UNL     1      -3.790  -3.272  -2.130  0.00  0.00    +0.030 A 
ATOM     30  C   UNL     1      -3.057  -2.321  -1.448  0.00  0.00    +0.125 A 
ATOM     31  S   UNL     1      -3.645  -0.999  -0.474  0.00  0.00    +0.103 S 
ATOM     32  O   UNL     1      -4.363  -0.112  -1.362  0.00  0.00    -0.146 OA
ATOM     33  O   UNL     1      -4.242  -1.577   0.709  0.00  0.00    -0.146 OA
ATOM     34  N   UNL     1      -2.171  -0.366  -0.119  0.00  0.00    -0.091 NA
ENDBRANCH  23  24
ENDBRANCH  22  23
ENDBRANCH   1  22
TORSDOF 8
