REMARK  Name = 
REMARK  7 active torsions:
REMARK  status: ('A' for Active; 'I' for Inactive)
REMARK    1  A    between atoms: C_2  and  C_4
REMARK    2  A    between atoms: C_7  and  O_8
REMARK    3  A    between atoms: C_9  and  C_10
REMARK    4  A    between atoms: C_10  and  N_11
REMARK    5  A    between atoms: C_14  and  N_16
REMARK    6  A    between atoms: N_16  and  S_17
REMARK    7  A    between atoms: S_17  and  C_20
REMARK                            x       y       z     vdW  Elec       q    Type
REMARK                         _______ _______ _______ _____ _____    ______ ____
ROOT
ATOM      1  N   UNL     1       2.357  -4.909  -0.285  0.00  0.00    -0.296 N 
ATOM      2  C   UNL     1       1.482  -3.951   0.183  0.00  0.00    +0.235 C 
ATOM      3  O   UNL     1       1.415  -2.801  -0.224  0.00  0.00    -0.274 OA
ATOM      4  C   UNL     1       0.626  -4.574   1.271  0.00  0.00    +0.164 C 
ATOM      5  C   UNL     1       0.817  -6.070   0.982  0.00  0.00    +0.049 C 
ATOM      6  C   UNL     1       2.225  -6.158   0.413  0.00  0.00    +0.110 C 
ENDROOT
BRANCH   4   7
ATOM      7  N   UNL     1      -0.812  -4.236   1.243  0.00  0.00    -0.178 NA
ATOM      8  H   UNL     1      -1.385  -4.817   1.856  0.00  0.00    +0.149 HD
BRANCH   7   9
ATOM      9  S   UNL     1      -1.219  -2.619   1.549  0.00  0.00    +0.065 S 
ATOM     10  O   UNL     1      -0.195  -2.052   2.397  0.00  0.00    -0.153 OA
ATOM     11  O   UNL     1      -2.603  -2.652   1.985  0.00  0.00    -0.153 OA
BRANCH   9  12
ATOM     12  C   UNL     1      -1.221  -1.670   0.052  0.00  0.00    +0.145 A 
ATOM     13  S   UNL     1      -2.366  -2.124  -1.133  0.00  0.00    -0.067 S 
ATOM     14  C   UNL     1      -1.844  -0.899  -2.217  0.00  0.00    +0.039 A 
ATOM     15  C   UNL     1      -2.339  -0.586  -3.492  0.00  0.00    +0.019 A 
ATOM     16  C   UNL     1      -1.714   0.449  -4.181  0.00  0.00    +0.021 A 
ATOM     17  C   UNL     1      -0.653   1.105  -3.584  0.00  0.00    +0.111 A 
ATOM     18  N   UNL     1      -0.167   0.841  -2.355  0.00  0.00    -0.254 NA
ATOM     19  C   UNL     1      -0.783  -0.168  -1.682  0.00  0.00    +0.080 A 
ATOM     20  C   UNL     1      -0.454  -0.601  -0.369  0.00  0.00    +0.064 A 
ENDBRANCH   9  12
ENDBRANCH   7   9
ENDBRANCH   4   7
BRANCH   1  21
ATOM     21  C   UNL     1       3.237  -4.701  -1.423  0.00  0.00    +0.146 C 
BRANCH  21  24
ATOM     22  C   UNL     1       6.332  -3.246   0.299  0.00  0.00    +0.065 A 
ATOM     23  C   UNL     1       5.090  -3.874   0.140  0.00  0.00    +0.024 A 
ATOM     24  C   UNL     1       4.652  -4.253  -1.134  0.00  0.00    +0.012 A 
ATOM     25  C   UNL     1       5.525  -4.059  -2.218  0.00  0.00    +0.122 A 
ATOM     26  C   UNL     1       6.791  -3.495  -2.057  0.00  0.00    +0.046 A 
ATOM     27  C   UNL     1       7.190  -3.071  -0.793  0.00  0.00    +0.019 A 
BRANCH  22  31
ATOM     28  N   UNL     1       7.213  -1.369   1.614  0.00  0.00    -0.247 N 
ATOM     29  H   UNL     1       7.029  -0.819   0.777  0.00  0.00    +0.288 HD
ATOM     30  H   UNL     1       7.009  -0.823   2.445  0.00  0.00    +0.288 HD
ATOM     31  C   UNL     1       6.658  -2.619   1.602  0.00  0.00    +0.308 C 
ATOM     32  N   UNL     1       6.360  -3.224   2.702  0.00  0.00    -0.099 NA
ATOM     33  H   UNL     1       6.659  -2.651   3.496  0.00  0.00    +0.363 HD
ENDBRANCH  22  31
BRANCH  25  34
ATOM     34  O   UNL     1       5.090  -4.397  -3.471  0.00  0.00    -0.506 OA
ATOM     35  H   UNL     1       5.744  -4.094  -4.124  0.00  0.00    +0.292 HD
ENDBRANCH  25  34
ENDBRANCH  21  24
ENDBRANCH   1  21
TORSDOF 7
