REMARK  Name = 
REMARK  8 active torsions:
REMARK  status: ('A' for Active; 'I' for Inactive)
REMARK    1  A    between atoms: C_1  and  C_2
REMARK    2  A    between atoms: C_2  and  C_3
REMARK    3  A    between atoms: C_2  and  C_4
REMARK    4  A    between atoms: C_4  and  C_5
REMARK    5  A    between atoms: C_5  and  C_7
REMARK    6  A    between atoms: C_5  and  C_10
REMARK    7  A    between atoms: C_7  and  O_8
REMARK    8  A    between atoms: N_12  and  O_13
REMARK                            x       y       z     vdW  Elec       q    Type
REMARK                         _______ _______ _______ _____ _____    ______ ____
ROOT
ATOM      1  C   UNL     1       4.685   1.245   0.946  0.00  0.00    +0.185 C 
ENDROOT
BRANCH   1   2
ATOM      2  C   UNL     1       5.137   2.359   1.867  0.00  0.00    +0.249 C 
ATOM      3  N   UNL     1       6.338   2.127   2.497  0.00  0.00    -0.197 N 
ATOM      4  H   UNL     1       7.049   1.519   2.093  0.00  0.00    +0.182 HD
ATOM      5  O   UNL     1       4.493   3.392   2.046  0.00  0.00    -0.273 OA
BRANCH   3   6
ATOM      6  O   UNL     1       6.818   3.195   3.293  0.00  0.00    -0.295 OA
ATOM      7  H   UNL     1       6.103   3.863   3.216  0.00  0.00    +0.241 HD
ENDBRANCH   3   6
ENDBRANCH   1   2
BRANCH   1   8
ATOM      8  C   UNL     1       5.454   1.330  -0.351  0.00  0.00    +0.317 C 
ATOM      9  O   UNL     1       6.568   0.835  -0.465  0.00  0.00    -0.250 OA
BRANCH   8  10
ATOM     10  O   UNL     1       4.899   2.047  -1.346  0.00  0.00    -0.480 OA
ATOM     11  H   UNL     1       4.053   2.492  -1.149  0.00  0.00    +0.295 HD
ENDBRANCH   8  10
ENDBRANCH   1   8
BRANCH   1  12
ATOM     12  C   UNL     1       3.152   1.227   0.814  0.00  0.00    +0.027 C 
BRANCH  12  14
ATOM     13  C   UNL     1       2.911  -1.307   0.610  0.00  0.00    +0.007 C 
ATOM     14  C   UNL     1       2.576   0.053  -0.004  0.00  0.00    -0.016 C 
ATOM     15  C   UNL     1       1.057   0.208  -0.122  0.00  0.00    +0.007 C 
ENDBRANCH  12  14
ENDBRANCH   1  12
TORSDOF 6
