REMARK  Name = 
REMARK  1 active torsions:
REMARK  status: ('A' for Active; 'I' for Inactive)
REMARK    1  A    between atoms: C_2  and  C_6
REMARK                            x       y       z     vdW  Elec       q    Type
REMARK                         _______ _______ _______ _____ _____    ______ ____
ROOT
ATOM      1  C   UNL     1       3.143   0.871  -1.096  0.00  0.00    +0.063 A 
ATOM      2  C   UNL     1       3.844   0.173  -2.120  0.00  0.00    +0.018 A 
ATOM      3  C   UNL     1       4.406   0.836  -3.220  0.00  0.00    +0.028 A 
ATOM      4  C   UNL     1       4.246   2.197  -3.278  0.00  0.00    +0.064 A 
ATOM      5  N   UNL     1       4.438   3.070  -4.363  0.00  0.00    -0.339 N 
ATOM      6  H   UNL     1       5.238   3.000  -4.972  0.00  0.00    +0.167 HD
ATOM      7  C   UNL     1       3.944   4.325  -3.978  0.00  0.00    +0.120 A 
ATOM      8  C   UNL     1       3.898   5.429  -4.757  0.00  0.00    +0.062 C 
ATOM      9  C   UNL     1       3.245   6.673  -4.205  0.00  0.00    +0.189 C 
ATOM     10  O   UNL     1       2.934   6.819  -3.026  0.00  0.00    -0.287 OA
ATOM     11  C   UNL     1       2.955   7.750  -5.189  0.00  0.00    +0.051 C 
ATOM     12  C   UNL     1       3.327   7.627  -6.470  0.00  0.00    +0.004 C 
ATOM     13  C   UNL     1       4.047   6.475  -6.954  0.00  0.00    +0.001 C 
ATOM     14  C   UNL     1       4.326   5.438  -6.149  0.00  0.00    +0.015 C 
ATOM     15  N   UNL     1       3.421   4.221  -2.689  0.00  0.00    -0.339 N 
ATOM     16  H   UNL     1       3.136   5.048  -2.179  0.00  0.00    +0.167 HD
ATOM     17  C   UNL     1       3.583   2.911  -2.254  0.00  0.00    +0.065 A 
ATOM     18  C   UNL     1       3.047   2.275  -1.159  0.00  0.00    +0.043 A 
ENDROOT
BRANCH   1  22
ATOM     19  N   UNL     1       2.953  -0.997   0.436  0.00  0.00    -0.250 N 
ATOM     20  H   UNL     1       3.852  -1.330   0.105  0.00  0.00    +0.288 HD
ATOM     21  H   UNL     1       2.484  -1.556   1.135  0.00  0.00    +0.288 HD
ATOM     22  C   UNL     1       2.445   0.125  -0.028  0.00  0.00    +0.266 C 
ATOM     23  N   UNL     1       1.296   0.571   0.436  0.00  0.00    -0.288 N 
ATOM     24  H   UNL     1       0.777   0.097   1.162  0.00  0.00    +0.301 HD
ATOM     25  H   UNL     1       0.877   1.412   0.049  0.00  0.00    +0.301 HD
ENDBRANCH   1  22
TORSDOF 1
