REMARK  Name = 
REMARK  4 active torsions:
REMARK  status: ('A' for Active; 'I' for Inactive)
REMARK    1  A    between atoms: C_1  and  C_2
REMARK    2  A    between atoms: C_2  and  O_4
REMARK    3  A    between atoms: C_2  and  C_5
REMARK    4  A    between atoms: C_5  and  O_6
REMARK                            x       y       z     vdW  Elec       q    Type
REMARK                         _______ _______ _______ _____ _____    ______ ____
ROOT
ATOM      1  C   UNL     1       0.976  -0.120   0.046  0.00  0.00    +0.040 C 
ATOM      2  C   UNL     1       2.496  -0.074   0.105  0.00  0.00    +0.137 C 
ENDROOT
BRANCH   2   3
ATOM      3  O   UNL     1       2.952   1.002  -0.723  0.00  0.00    -0.390 OA
ATOM      4  H   UNL     1       2.657   0.811  -1.631  0.00  0.00    +0.210 HD
ENDBRANCH   2   3
BRANCH   2   5
ATOM      5  C   UNL     1       3.018   0.168   1.524  0.00  0.00    +0.186 C 
BRANCH   5   6
ATOM      6  O   UNL     1       2.537   1.415   2.024  0.00  0.00    -0.392 OA
ATOM      7  H   UNL     1       2.681   2.048   1.294  0.00  0.00    +0.210 HD
ENDBRANCH   5   6
ENDBRANCH   2   5
TORSDOF 3
