REMARK  Name = 
REMARK  5 active torsions:
REMARK  status: ('A' for Active; 'I' for Inactive)
REMARK    1  A    between atoms: C_7  and  O_8
REMARK    2  A    between atoms: N_9  and  C1*_10
REMARK    3  A    between atoms: C3*_13  and  O3*_15
REMARK    4  A    between atoms: C4*_16  and  C5*_18
REMARK    5  A    between atoms: C5*_18  and  O5*_19
REMARK                            x       y       z     vdW  Elec       q    Type
REMARK                         _______ _______ _______ _____ _____    ______ ____
ROOT
ATOM      1  N   UNL     1       1.617  -0.204  -1.965  0.00  0.00    -0.329 N 
ATOM      2  H   UNL     1       1.046   0.618  -1.824  0.00  0.00    +0.145 HD
ATOM      3  H   UNL     1       1.102  -1.074  -1.875  0.00  0.00    +0.145 HD
ATOM      4  C   UNL     1       2.834  -0.247  -1.368  0.00  0.00    +0.195 A 
ATOM      5  N   UNL     1       3.466   0.963  -1.168  0.00  0.00    -0.293 N 
ATOM      6  H   UNL     1       3.041   1.815  -1.491  0.00  0.00    +0.172 HD
ATOM      7  C   UNL     1       4.724   1.112  -0.596  0.00  0.00    +0.280 A 
ATOM      8  O   UNL     1       5.251   2.211  -0.463  0.00  0.00    -0.265 OA
ATOM      9  C   UNL     1       5.302  -0.155  -0.204  0.00  0.00    +0.176 A 
ATOM     10  N   UNL     1       6.513  -0.451   0.374  0.00  0.00    -0.188 NA
ATOM     11  C   UNL     1       6.489  -1.758   0.491  0.00  0.00    +0.300 A 
ATOM     12  N   UNL     1       5.334  -2.323   0.027  0.00  0.00    -0.251 N 
ATOM     13  C   UNL     1       4.562  -1.293  -0.439  0.00  0.00    +0.174 A 
ATOM     14  N   UNL     1       3.341  -1.397  -1.013  0.00  0.00    -0.196 NA
ENDROOT
BRANCH  12  15
ATOM     15  C1* UNL     1       4.949  -3.712   0.008  0.00  0.00    +0.228 C 
ATOM     16  O4* UNL     1       4.879  -4.235   1.352  0.00  0.00    -0.348 OA
ATOM     17  C4* UNL     1       5.082  -5.667   1.255  0.00  0.00    +0.175 C 
ATOM     18  C3* UNL     1       5.307  -5.983  -0.230  0.00  0.00    +0.150 C 
ATOM     19  C2* UNL     1       5.837  -4.669  -0.761  0.00  0.00    +0.088 C 
BRANCH  18  20
ATOM     20  O3* UNL     1       6.206  -7.058  -0.448  0.00  0.00    -0.389 OA
ATOM     21  H3* UNL     1       7.074  -6.823  -0.077  0.00  0.00    +0.210 HD
ENDBRANCH  18  20
BRANCH  17  22
ATOM     22  C5* UNL     1       3.858  -6.371   1.840  0.00  0.00    +0.190 C 
BRANCH  22  23
ATOM     23  O5* UNL     1       2.666  -5.933   1.184  0.00  0.00    -0.392 OA
ATOM     24  H5* UNL     1       2.612  -4.972   1.343  0.00  0.00    +0.210 HD
ENDBRANCH  22  23
ENDBRANCH  17  22
ENDBRANCH  12  15
BRANCH  11  25
ATOM     25  O   UNL     1       7.509  -2.422   0.994  0.00  0.00    -0.479 OA
ATOM     26  H   UNL     1       8.118  -1.692   1.226  0.00  0.00    +0.295 HD
ENDBRANCH  11  25
TORSDOF 5
