REMARK  Name = 
REMARK  7 active torsions:
REMARK  status: ('A' for Active; 'I' for Inactive)
REMARK    1  A    between atoms: O_1  and  C_2
REMARK    2  A    between atoms: C_2  and  C_3
REMARK    3  A    between atoms: C_3  and  C_4
REMARK    4  A    between atoms: C_4  and  C_5
REMARK    5  A    between atoms: C_5  and  C_6
REMARK    6  A    between atoms: C_6  and  C_7
REMARK    7  A    between atoms: C_7  and  O_8
REMARK                            x       y       z     vdW  Elec       q    Type
REMARK                         _______ _______ _______ _____ _____    ______ ____
ROOT
ATOM      1  C   UNL     1       4.353   0.459  -1.406  0.00  0.00    +0.002 C 
ENDROOT
BRANCH   1   2
ATOM      2  C   UNL     1       2.826   0.448  -1.373  0.00  0.00    +0.028 C 
BRANCH   2   3
ATOM      3  C   UNL     1       2.297  -0.009  -0.021  0.00  0.00    +0.156 C 
BRANCH   3   4
ATOM      4  O   UNL     1       0.877   0.006  -0.056  0.00  0.00    -0.395 OA
ATOM      5  H   UNL     1       0.566  -0.298   0.814  0.00  0.00    +0.209 HD
ENDBRANCH   3   4
ENDBRANCH   2   3
ENDBRANCH   1   2
BRANCH   1   6
ATOM      6  C   UNL     1       4.877   0.920  -2.767  0.00  0.00    +0.002 C 
BRANCH   6   7
ATOM      7  C   UNL     1       6.404   0.933  -2.799  0.00  0.00    +0.028 C 
BRANCH   7   8
ATOM      8  C   UNL     1       6.934   1.390  -4.152  0.00  0.00    +0.156 C 
BRANCH   8   9
ATOM      9  O   UNL     1       8.355   1.380  -4.139  0.00  0.00    -0.395 OA
ATOM     10  H   UNL     1       8.646   2.004  -3.451  0.00  0.00    +0.209 HD
ENDBRANCH   8   9
ENDBRANCH   7   8
ENDBRANCH   6   7
ENDBRANCH   1   6
TORSDOF 7
