REMARK  Name = 
REMARK  14 active torsions:
REMARK  status: ('A' for Active; 'I' for Inactive)
REMARK    1  A    between atoms: C_1  and  O_2
REMARK    2  A    between atoms: O_2  and  C_3
REMARK    3  A    between atoms: N_5  and  C_6
REMARK    4  A    between atoms: C_6  and  C_7
REMARK    5  A    between atoms: C_7  and  C_8
REMARK    6  A    between atoms: C_8  and  C_9
REMARK    7  A    between atoms: C_9  and  C_10
REMARK    8  A    between atoms: C_10  and  C_11
REMARK    9  A    between atoms: N_13  and  C_14
REMARK   10  A    between atoms: C_17  and  C_19
REMARK   11  A    between atoms: C_19  and  O_20
REMARK   12  A    between atoms: C_21  and  O_23
REMARK   13  A    between atoms: C_24  and  O_26
REMARK   14  A    between atoms: C_27  and  O_29
REMARK                            x       y       z     vdW  Elec       q    Type
REMARK                         _______ _______ _______ _____ _____    ______ ____
ROOT
ATOM      1  C   UNL     1      11.145   3.384   3.061  0.00  0.00    +0.215 C 
ATOM      2  N   UNL     1      12.136   3.696   3.972  0.00  0.00    -0.288 N 
ATOM      3  H   UNL     1      11.883   4.404   4.650  0.00  0.00    +0.151 HD
ATOM      4  O   UNL     1      11.371   2.967   1.933  0.00  0.00    -0.276 OA
ENDROOT
BRANCH   2   5
ATOM      5  C   UNL     1      13.516   3.737   3.551  0.00  0.00    +0.237 C 
ATOM      6  C   UNL     1      14.153   2.391   3.138  0.00  0.00    +0.192 C 
ATOM      7  C   UNL     1      14.526   1.509   4.340  0.00  0.00    +0.178 C 
ATOM      8  C   UNL     1      15.157   2.268   5.512  0.00  0.00    +0.177 C 
ATOM      9  C   UNL     1      14.638   3.699   5.730  0.00  0.00    +0.177 C 
ATOM     10  O   UNL     1      14.253   4.428   4.557  0.00  0.00    -0.348 OA
BRANCH   6  11
ATOM     11  O   UNL     1      15.320   2.681   2.346  0.00  0.00    -0.385 OA
ATOM     12  H   UNL     1      15.777   1.842   2.165  0.00  0.00    +0.210 HD
ENDBRANCH   6  11
BRANCH   7  13
ATOM     13  O   UNL     1      13.420   0.731   4.820  0.00  0.00    -0.386 OA
ATOM     14  H   UNL     1      12.592   1.206   4.650  0.00  0.00    +0.210 HD
ENDBRANCH   7  13
BRANCH   8  15
ATOM     15  O   UNL     1      16.577   2.315   5.286  0.00  0.00    -0.386 OA
ATOM     16  H   UNL     1      16.996   2.647   6.100  0.00  0.00    +0.210 HD
ENDBRANCH   8  15
BRANCH   9  17
ATOM     17  C   UNL     1      13.530   3.806   6.786  0.00  0.00    +0.190 C 
BRANCH  17  18
ATOM     18  O   UNL     1      13.260   5.186   7.056  0.00  0.00    -0.392 OA
ATOM     19  H   UNL     1      13.554   5.698   6.277  0.00  0.00    +0.210 HD
ENDBRANCH  17  18
ENDBRANCH   9  17
ENDBRANCH   2   5
BRANCH   1  20
ATOM     20  C   UNL     1       9.736   3.511   3.602  0.00  0.00    +0.096 C 
BRANCH  20  21
ATOM     21  C   UNL     1       9.441   2.315   4.502  0.00  0.00    +0.009 C 
BRANCH  21  22
ATOM     22  C   UNL     1       7.996   2.281   4.997  0.00  0.00    +0.002 C 
BRANCH  22  23
ATOM     23  C   UNL     1       7.777   1.063   5.900  0.00  0.00    +0.019 C 
BRANCH  23  24
ATOM     24  C   UNL     1       6.343   0.986   6.413  0.00  0.00    +0.107 C 
BRANCH  24  26
ATOM     25  C   UNL     1       6.422   0.007   8.666  0.00  0.00    +0.400 C 
ATOM     26  N   UNL     1       6.162  -0.114   7.334  0.00  0.00    -0.281 N 
ATOM     27  H   UNL     1       5.873  -1.024   7.008  0.00  0.00    +0.152 HD
ATOM     28  O   UNL     1       6.828   1.020   9.213  0.00  0.00    -0.226 OA
BRANCH  25  30
ATOM     29  C   UNL     1       6.349  -1.113  10.700  0.00  0.00    +0.282 C 
ATOM     30  O   UNL     1       6.153  -1.169   9.288  0.00  0.00    -0.454 OA
ENDBRANCH  25  30
ENDBRANCH  24  26
ENDBRANCH  23  24
ENDBRANCH  22  23
ENDBRANCH  21  22
ENDBRANCH  20  21
ENDBRANCH   1  20
TORSDOF 13
