REMARK  Name = 
REMARK  6 active torsions:
REMARK  status: ('A' for Active; 'I' for Inactive)
REMARK    1  A    between atoms: O_1  and  B_2
REMARK    2  A    between atoms: B_2  and  O_3
REMARK    3  A    between atoms: B_2  and  C_4
REMARK    4  A    between atoms: C_7  and  C_8
REMARK    5  A    between atoms: C_9  and  C_10
REMARK    6  A    between atoms: C_10  and  O_11
REMARK                            x       y       z     vdW  Elec       q    Type
REMARK                         _______ _______ _______ _____ _____    ______ ____
ROOT
ATOM      1  C   UNL     1       3.264   0.371  -1.368  0.00  0.00    +0.000 A 
ATOM      2  C   UNL     1       3.810  -0.655  -2.156  0.00  0.00    +0.000 A 
ATOM      3  C   UNL     1       4.362  -0.365  -3.413  0.00  0.00    +0.000 A 
ATOM      4  C   UNL     1       4.372   0.951  -3.907  0.00  0.00    +0.000 A 
ATOM      5  C   UNL     1       3.832   1.974  -3.100  0.00  0.00    +0.000 A 
ATOM      6  C   UNL     1       3.290   1.685  -1.846  0.00  0.00    +0.000 A 
ENDROOT
BRANCH   4   7
ATOM      7  C   UNL     1       4.930   1.208  -5.270  0.00  0.00    +0.000 C 
ATOM      8  C   UNL     1       4.918   2.413  -5.875  0.00  0.00    +0.000 C 
BRANCH   8   9
ATOM      9  C   UNL     1       5.451   2.641  -7.236  0.00  0.00    +0.000 C 
ATOM     10  O   UNL     1       5.944   1.727  -7.881  0.00  0.00    +0.000 OA
BRANCH   9  11
ATOM     11  O   UNL     1       5.385   3.873  -7.790  0.00  0.00    +0.000 OA
ATOM     12  H   UNL     1       4.992   4.623  -7.317  0.00  0.00    +0.000 HD
ENDBRANCH   9  11
ENDBRANCH   8   9
ENDBRANCH   4   7
BRANCH   1  13
ATOM     13  B   UNL     1       2.613   0.060   0.036  0.00  0.00    +0.000 B 
BRANCH  13  14
ATOM     14  O   UNL     1       2.075   1.149   0.856  0.00  0.00    +0.000 OA
ATOM     15  H   UNL     1       1.105   0.964   0.926  0.00  0.00    +0.000 HD
ENDBRANCH  13  14
BRANCH  13  16
ATOM     16  O   UNL     1       2.467  -1.320   0.494  0.00  0.00    +0.000 OA
ATOM     17  H   UNL     1       2.741  -1.308   1.446  0.00  0.00    +0.000 HD
ENDBRANCH  13  16
ENDBRANCH   1  13
TORSDOF 6
