REMARK  Name = 
REMARK  27 active torsions:
REMARK  status: ('A' for Active; 'I' for Inactive)
REMARK    1  A    between atoms: C_1  and  N_2
REMARK    2  A    between atoms: C_3  and  C_5
REMARK    3  A    between atoms: C_5  and  N_7
REMARK    4  A    between atoms: C_5  and  C_60
REMARK    5  A    between atoms: C_8  and  C_10
REMARK    6  A    between atoms: C_10  and  O_12
REMARK    7  A    between atoms: C_10  and  C_26
REMARK    8  A    between atoms: O_12  and  C_13
REMARK    9  A    between atoms: C_13  and  C_14
REMARK   10  A    between atoms: C_17  and  C_20
REMARK   11  A    between atoms: C_26  and  O_28
REMARK   12  A    between atoms: C_26  and  C_29
REMARK   13  A    between atoms: C_29  and  O_31
REMARK   14  A    between atoms: C_29  and  C_32
REMARK   15  A    between atoms: C_32  and  O_34
REMARK   16  A    between atoms: C_32  and  C_48
REMARK   17  A    between atoms: O_34  and  C_35
REMARK   18  A    between atoms: C_35  and  C_36
REMARK   19  A    between atoms: C_39  and  C_42
REMARK   20  A    between atoms: N_50  and  C_51
REMARK   21  A    between atoms: C_51  and  C_53
REMARK   22  A    between atoms: C_51  and  C_56
REMARK   23  A    between atoms: C_53  and  C_54
REMARK   24  A    between atoms: C_53  and  C_55
REMARK   25  A    between atoms: N_58  and  C_59
REMARK   26  A    between atoms: C_60  and  C_61
REMARK   27  A    between atoms: C_60  and  C_62
REMARK                            x       y       z     vdW  Elec       q    Type
REMARK                         _______ _______ _______ _____ _____    ______ ____
ROOT
ATOM      1  C   UNL     1       7.408  14.196  -1.213  0.00  0.00    +0.184 C 
ENDROOT
BRANCH   1   2
ATOM      2  O   UNL     1       8.037  15.276  -0.486  0.00  0.00    -0.386 OA
ATOM      3  H   UNL     1       7.436  15.618   0.215  0.00  0.00    +0.210 HD
ENDBRANCH   1   2
BRANCH   1   4
ATOM      4  C   UNL     1       6.277  13.550  -0.330  0.00  0.00    +0.184 C 
BRANCH   4   5
ATOM      5  O   UNL     1       6.759  13.120   0.955  0.00  0.00    -0.386 OA
ATOM      6  H   UNL     1       7.715  13.345   1.031  0.00  0.00    +0.210 HD
ENDBRANCH   4   5
BRANCH   4   7
ATOM      7  C   UNL     1       4.901  14.354  -0.083  0.00  0.00    +0.235 C 
BRANCH   7   8
ATOM      8  C   UNL     1       4.981  15.511   1.003  0.00  0.00    +0.245 C 
ATOM      9  N   UNL     1       3.764  15.872   1.609  0.00  0.00    -0.302 N 
ATOM     10  H   UNL     1       2.915  15.639   1.104  0.00  0.00    +0.150 HD
ATOM     11  O   UNL     1       6.048  16.053   1.305  0.00  0.00    -0.273 OA
BRANCH   9  12
ATOM     12  C   UNL     1       3.613  16.903   2.676  0.00  0.00    +0.161 C 
BRANCH  12  13
ATOM     13  C   UNL     1       2.835  18.176   2.193  0.00  0.00    +0.233 C 
ATOM     14  N   UNL     1       2.971  19.297   3.002  0.00  0.00    -0.317 N 
ATOM     15  H   UNL     1       3.745  19.335   3.653  0.00  0.00    +0.148 HD
ATOM     16  C   UNL     1       2.297  20.545   2.700  0.00  0.00    +0.128 C 
ATOM     17  O   UNL     1       2.082  18.155   1.220  0.00  0.00    -0.274 OA
ENDBRANCH  12  13
BRANCH  12  18
ATOM     18  C   UNL     1       2.922  16.355   3.971  0.00  0.00    +0.012 C 
ATOM     19  C   UNL     1       3.688  15.177   4.581  0.00  0.00    +0.009 C 
ATOM     20  C   UNL     1       1.443  15.967   3.809  0.00  0.00    +0.009 C 
ENDBRANCH  12  18
ENDBRANCH   9  12
ENDBRANCH   7   8
BRANCH   7  21
ATOM     21  O   UNL     1       4.262  14.897  -1.260  0.00  0.00    -0.360 OA
BRANCH  21  22
ATOM     22  C   UNL     1       3.810  13.957  -2.247  0.00  0.00    +0.196 C 
BRANCH  22  23
ATOM     23  C   UNL     1       2.882  14.601  -3.298  0.00  0.00    -0.022 A 
ATOM     24  C   UNL     1       1.707  13.984  -3.744  0.00  0.00    +0.006 A 
ATOM     25  C   UNL     1       0.892  14.570  -4.750  0.00  0.00    +0.009 A 
ATOM     26  C   UNL     1       1.218  15.796  -5.375  0.00  0.00    -0.016 A 
ATOM     27  C   UNL     1       2.427  16.372  -4.943  0.00  0.00    +0.009 A 
ATOM     28  C   UNL     1       3.240  15.791  -3.934  0.00  0.00    +0.006 A 
BRANCH  26  29
ATOM     29  C   UNL     1       0.338  16.457  -6.402  0.00  0.00    +0.000 A 
ATOM     30  C   UNL     1      -1.056  16.312  -6.408  0.00  0.00    +0.119 A 
ATOM     31  N   UNL     1      -1.923  16.902  -7.274  0.00  0.00    -0.263 NA
ATOM     32  C   UNL     1      -1.395  17.715  -8.217  0.00  0.00    +0.111 A 
ATOM     33  C   UNL     1      -0.039  17.940  -8.325  0.00  0.00    +0.020 A 
ATOM     34  C   UNL     1       0.824  17.303  -7.418  0.00  0.00    +0.011 A 
ENDBRANCH  26  29
ENDBRANCH  22  23
ENDBRANCH  21  22
ENDBRANCH   7  21
ENDBRANCH   4   7
ENDBRANCH   1   4
BRANCH   1  35
ATOM     35  C   UNL     1       8.608  13.305  -1.819  0.00  0.00    +0.235 C 
BRANCH  35  38
ATOM     36  N   UNL     1      10.588  11.902  -1.123  0.00  0.00    -0.302 N 
ATOM     37  H   UNL     1      10.488  11.536  -2.066  0.00  0.00    +0.150 HD
ATOM     38  C   UNL     1       9.505  12.669  -0.684  0.00  0.00    +0.245 C 
ATOM     39  O   UNL     1       9.284  12.803   0.527  0.00  0.00    -0.273 OA
BRANCH  36  40
ATOM     40  C   UNL     1      11.502  11.190  -0.196  0.00  0.00    +0.161 C 
BRANCH  40  44
ATOM     41  C   UNL     1       9.038   8.700   1.335  0.00  0.00    +0.128 C 
ATOM     42  N   UNL     1       9.639   9.846   0.711  0.00  0.00    -0.317 N 
ATOM     43  H   UNL     1       9.259  10.766   0.912  0.00  0.00    +0.148 HD
ATOM     44  C   UNL     1      10.941   9.801   0.252  0.00  0.00    +0.233 C 
ATOM     45  O   UNL     1      11.633   8.776   0.315  0.00  0.00    -0.274 OA
ENDBRANCH  40  44
BRANCH  40  46
ATOM     46  C   UNL     1      12.960  11.058  -0.717  0.00  0.00    +0.012 C 
ATOM     47  C   UNL     1      13.636  12.423  -0.856  0.00  0.00    +0.009 C 
ATOM     48  C   UNL     1      13.101  10.278  -2.028  0.00  0.00    +0.009 C 
ENDBRANCH  40  46
ENDBRANCH  36  40
ENDBRANCH  35  38
BRANCH  35  49
ATOM     49  O   UNL     1       8.441  12.215  -2.759  0.00  0.00    -0.360 OA
BRANCH  49  50
ATOM     50  C   UNL     1       7.558  12.213  -3.881  0.00  0.00    +0.196 C 
BRANCH  50  51
ATOM     51  C   UNL     1       7.945  12.725  -5.280  0.00  0.00    -0.022 A 
ATOM     52  C   UNL     1       7.052  12.512  -6.359  0.00  0.00    +0.006 A 
ATOM     53  C   UNL     1       7.254  13.075  -7.647  0.00  0.00    +0.009 A 
ATOM     54  C   UNL     1       8.364  13.884  -7.927  0.00  0.00    -0.016 A 
ATOM     55  C   UNL     1       9.320  13.962  -6.888  0.00  0.00    +0.009 A 
ATOM     56  C   UNL     1       9.121  13.398  -5.595  0.00  0.00    +0.006 A 
BRANCH  54  57
ATOM     57  C   UNL     1       8.492  14.681  -9.192  0.00  0.00    +0.000 A 
ATOM     58  C   UNL     1       9.083  15.952  -9.187  0.00  0.00    +0.119 A 
ATOM     59  N   UNL     1       9.197  16.801 -10.247  0.00  0.00    -0.263 NA
ATOM     60  C   UNL     1       8.685  16.381 -11.416  0.00  0.00    +0.111 A 
ATOM     61  C   UNL     1       8.078  15.149 -11.567  0.00  0.00    +0.020 A 
ATOM     62  C   UNL     1       7.984  14.297 -10.448  0.00  0.00    +0.011 A 
ENDBRANCH  54  57
ENDBRANCH  50  51
ENDBRANCH  49  50
ENDBRANCH  35  49
ENDBRANCH   1  35
TORSDOF 21
