REMARK  Name = 
REMARK  7 active torsions:
REMARK  status: ('A' for Active; 'I' for Inactive)
REMARK    1  A    between atoms: C_1  and  C_2
REMARK    2  A    between atoms: C_2  and  O_4
REMARK    3  A    between atoms: C_2  and  C_5
REMARK    4  A    between atoms: C_8  and  N_16
REMARK    5  A    between atoms: C_10  and  O_12
REMARK    6  A    between atoms: C_13  and  O_15
REMARK    7  A    between atoms: C_24  and  C_25
REMARK                            x       y       z     vdW  Elec       q    Type
REMARK                         _______ _______ _______ _____ _____    ______ ____
ROOT
ATOM      1  C   UNL     1       2.987   0.975   1.370  0.00  0.00    +0.180 C 
ATOM      2  C   UNL     1       2.087   0.600   2.549  0.00  0.00    +0.179 C 
ATOM      3  C   UNL     1       1.855   1.895   3.321  0.00  0.00    +0.195 C 
ATOM      4  C   UNL     1       2.626   2.956   2.526  0.00  0.00    +0.253 C 
ATOM      5  O   UNL     1       2.842   2.407   1.211  0.00  0.00    -0.345 OA
ENDROOT
BRANCH   4   6
ATOM      6  N   UNL     1       1.882   4.202   2.416  0.00  0.00    -0.286 N 
ATOM      7  C   UNL     1       1.441   4.947   3.478  0.00  0.00    +0.166 A 
ATOM      8  N   UNL     1       1.639   4.704   4.787  0.00  0.00    -0.216 NA
ATOM      9  C   UNL     1       1.031   5.646   5.541  0.00  0.00    +0.223 A 
ATOM     10  N   UNL     1       0.289   6.696   5.129  0.00  0.00    -0.238 NA
ATOM     11  C   UNL     1       0.110   6.887   3.787  0.00  0.00    +0.069 A 
ATOM     12  C   UNL     1      -0.741   8.030   3.338  0.00  0.00    +0.068 C 
ATOM     13  C   UNL     1       0.720   5.985   2.908  0.00  0.00    +0.129 A 
ATOM     14  N   UNL     1       0.743   5.898   1.534  0.00  0.00    -0.232 NA
ATOM     15  C   UNL     1       1.464   4.828   1.273  0.00  0.00    +0.203 A 
ENDBRANCH   4   6
BRANCH   1  17
ATOM     16  C   UNL     1       4.707  -0.897   1.572  0.00  0.00    +0.040 C 
ATOM     17  C   UNL     1       4.477   0.610   1.548  0.00  0.00    +0.143 C 
BRANCH  17  18
ATOM     18  O   UNL     1       4.994   1.174   2.752  0.00  0.00    -0.389 OA
ATOM     19  H   UNL     1       5.922   0.891   2.838  0.00  0.00    +0.210 HD
ENDBRANCH  17  18
ENDBRANCH   1  17
BRANCH   2  20
ATOM     20  O   UNL     1       0.829   0.116   2.039  0.00  0.00    -0.386 OA
ATOM     21  H   UNL     1       0.473   0.777   1.418  0.00  0.00    +0.210 HD
ENDBRANCH   2  20
BRANCH   3  22
ATOM     22  O   UNL     1       2.308   1.793   4.673  0.00  0.00    -0.385 OA
ATOM     23  H   UNL     1       2.156   2.669   5.084  0.00  0.00    +0.210 HD
ENDBRANCH   3  22
TORSDOF 5
