REMARK  Name = 
REMARK  3 active torsions:
REMARK  status: ('A' for Active; 'I' for Inactive)
REMARK    1  A    between atoms: C_1  and  C_2
REMARK    2  A    between atoms: C_2  and  C_3
REMARK    3  A    between atoms: C_8  and  O_9
REMARK                            x       y       z     vdW  Elec       q    Type
REMARK                         _______ _______ _______ _____ _____    ______ ____
ROOT
ATOM      1  C   UNL     1       1.025   0.037  -0.180  0.00  0.00    +0.041 C 
ATOM      2  C   UNL     1       2.550   0.055  -0.066  0.00  0.00    +0.103 C 
ATOM      3  C   UNL     1       3.002   1.327   0.666  0.00  0.00    +0.211 C 
ATOM      4  N   UNL     1       3.727   1.408   1.732  0.00  0.00    -0.207 NA
ATOM      5  C   UNL     1       4.151   0.200   2.266  0.00  0.00    +0.171 A 
ATOM      6  C   UNL     1       5.059   0.226   3.453  0.00  0.00    +0.280 A 
ATOM      7  N   UNL     1       5.453  -0.990   3.926  0.00  0.00    -0.293 N 
ATOM      8  H   UNL     1       6.092  -0.976   4.703  0.00  0.00    +0.172 HD
ATOM      9  C   UNL     1       5.087  -2.155   3.339  0.00  0.00    +0.195 A 
ATOM     10  N   UNL     1       4.300  -2.206   2.316  0.00  0.00    -0.199 NA
ATOM     11  N   UNL     1       5.585  -3.291   3.885  0.00  0.00    -0.329 N 
ATOM     12  H   UNL     1       5.096  -4.121   3.565  0.00  0.00    +0.145 HD
ATOM     13  H   UNL     1       5.768  -3.292   4.878  0.00  0.00    +0.145 HD
ATOM     14  O   UNL     1       5.445   1.262   3.988  0.00  0.00    -0.265 OA
ATOM     15  C   UNL     1       3.821  -1.031   1.792  0.00  0.00    +0.154 A 
ATOM     16  N   UNL     1       2.958  -1.115   0.712  0.00  0.00    -0.314 N 
ATOM     17  H   UNL     1       2.942  -2.032   0.280  0.00  0.00    +0.149 HD
ATOM     18  C   UNL     1       3.210  -0.002  -1.444  0.00  0.00    +0.041 C 
ENDROOT
BRANCH   3  19
ATOM     19  O   UNL     1       2.609   2.486   0.116  0.00  0.00    -0.494 OA
ATOM     20  H   UNL     1       2.975   3.197   0.672  0.00  0.00    +0.293 HD
ENDBRANCH   3  19
TORSDOF 1
