REMARK  Name = 
REMARK  0 active torsions:
REMARK  status: ('A' for Active; 'I' for Inactive)
REMARK                            x       y       z     vdW  Elec       q    Type
REMARK                         _______ _______ _______ _____ _____    ______ ____
ROOT
ATOM      1  O   UNL     1       1.051   0.031   0.109  0.00  0.00    -0.247 OA
ATOM      2  C   UNL     1       2.279   0.024   0.102  0.00  0.00    +0.328 A 
ATOM      3  N   UNL     1       2.984  -1.165   0.098  0.00  0.00    -0.273 N 
ATOM      4  H   UNL     1       2.437  -2.011   0.101  0.00  0.00    +0.173 HD
ATOM      5  C   UNL     1       4.358  -1.306   0.090  0.00  0.00    +0.280 A 
ATOM      6  O   UNL     1       4.918  -2.395   0.087  0.00  0.00    -0.265 OA
ATOM      7  C   UNL     1       5.029  -0.054   0.086  0.00  0.00    +0.148 A 
ATOM      8  N   UNL     1       6.353   0.269   0.079  0.00  0.00    -0.339 N 
ATOM      9  H   UNL     1       7.132  -0.377   0.075  0.00  0.00    +0.167 HD
ATOM     10  C   UNL     1       6.418   1.642   0.079  0.00  0.00    +0.199 A 
ATOM     11  N   UNL     1       5.219   2.194   0.085  0.00  0.00    -0.218 NA
ATOM     12  C   UNL     1       4.372   1.139   0.090  0.00  0.00    +0.165 A 
ATOM     13  N   UNL     1       3.012   1.185   0.098  0.00  0.00    -0.291 N 
ATOM     14  H   UNL     1       2.549   2.081   0.100  0.00  0.00    +0.172 HD
ENDROOT
TORSDOF 0
