REMARK  Name = 
REMARK  1 active torsions:
REMARK  status: ('A' for Active; 'I' for Inactive)
REMARK    1  A    between atoms: C_2  and  C_4
REMARK                            x       y       z     vdW  Elec       q    Type
REMARK                         _______ _______ _______ _____ _____    ______ ____
ROOT
ATOM      1  C   UNL     1       3.225   0.815   1.021  0.00  0.00    +0.055 A 
ATOM      2  C   UNL     1       4.200   0.255   1.837  0.00  0.00    +0.123 A 
ATOM      3  N   UNL     1       4.891   0.952   2.773  0.00  0.00    -0.263 NA
ATOM      4  C   UNL     1       4.610   2.269   2.880  0.00  0.00    +0.111 A 
ATOM      5  C   UNL     1       3.671   2.922   2.096  0.00  0.00    +0.020 A 
ATOM      6  C   UNL     1       2.966   2.181   1.148  0.00  0.00    +0.016 A 
ENDROOT
BRANCH   1  10
ATOM      7  N   UNL     1       1.269   0.322  -0.333  0.00  0.00    -0.325 N 
ATOM      8  H   UNL     1       0.726   1.007   0.174  0.00  0.00    +0.145 HD
ATOM      9  H   UNL     1       0.763  -0.339  -0.910  0.00  0.00    +0.145 HD
ATOM     10  C   UNL     1       2.527  -0.052   0.049  0.00  0.00    +0.243 C 
ATOM     11  O   UNL     1       3.034  -1.084  -0.370  0.00  0.00    -0.270 OA
ENDBRANCH   1  10
TORSDOF 1
