REMARK  Name = 
REMARK  6 active torsions:
REMARK  status: ('A' for Active; 'I' for Inactive)
REMARK    1  A    between atoms: O_1  and  C_2
REMARK    2  A    between atoms: C_2  and  C_4
REMARK    3  A    between atoms: C_4  and  C_6
REMARK    4  A    between atoms: C_6  and  P_7
REMARK    5  A    between atoms: P_7  and  O_8
REMARK    6  A    between atoms: P_7  and  O_9
REMARK                            x       y       z     vdW  Elec       q    Type
REMARK                         _______ _______ _______ _____ _____    ______ ____
ROOT
ATOM      1  C   UNL     1       4.774   1.150   0.681  0.00  0.00    +0.213 C 
ENDROOT
BRANCH   1   2
ATOM      2  C   UNL     1       3.310   0.989   0.901  0.00  0.00    +0.251 C 
ATOM      3  O   UNL     1       2.772   0.244   1.714  0.00  0.00    -0.284 OA
BRANCH   2   4
ATOM      4  C   UNL     1       2.403   1.860   0.047  0.00  0.00    +0.373 C 
ATOM      5  O   UNL     1       2.836   2.670  -0.741  0.00  0.00    -0.242 OA
BRANCH   4   6
ATOM      6  O   UNL     1       1.112   1.608   0.306  0.00  0.00    -0.475 OA
ATOM      7  H   UNL     1       1.043   0.894   0.991  0.00  0.00    +0.295 HD
ENDBRANCH   4   6
ENDBRANCH   2   4
ENDBRANCH   1   2
BRANCH   1   8
ATOM      8  P   UNL     1       5.384   2.590   1.631  0.00  0.00    +0.335 P 
ATOM      9  O   UNL     1       5.901   3.809   2.434  0.00  0.00    -0.258 OA
BRANCH   8  10
ATOM     10  O   UNL     1       6.737   2.530   0.699  0.00  0.00    -0.324 OA
ATOM     11  H   UNL     1       7.363   3.205   1.034  0.00  0.00    +0.220 HD
ENDBRANCH   8  10
BRANCH   8  12
ATOM     12  O   UNL     1       5.927   1.496   2.731  0.00  0.00    -0.324 OA
ATOM     13  H   UNL     1       6.706   1.836   3.208  0.00  0.00    +0.220 HD
ENDBRANCH   8  12
ENDBRANCH   1   8
TORSDOF 6
