REMARK  Name = 
REMARK  7 active torsions:
REMARK  status: ('A' for Active; 'I' for Inactive)
REMARK    1  A    between atoms: O_1  and  N_2
REMARK    2  A    between atoms: C_8  and  C_11
REMARK    3  A    between atoms: C_11  and  N_12
REMARK    4  A    between atoms: C_13  and  C_15
REMARK    5  A    between atoms: N_22  and  S_27
REMARK    6  A    between atoms: S_27  and  C_30
REMARK    7  A    between atoms: C_30  and  C_31
REMARK                            x       y       z     vdW  Elec       q    Type
REMARK                         _______ _______ _______ _____ _____    ______ ____
ROOT
ATOM      1  C   UNL     1      10.933   3.149   0.643  0.00  0.00    +0.162 C 
ATOM      2  N   UNL     1      10.763   4.557   0.971  0.00  0.00    -0.284 N 
ATOM      3  C   UNL     1      11.047   4.822   2.368  0.00  0.00    +0.093 C 
ATOM      4  C   UNL     1      11.669   6.204   2.572  0.00  0.00    +0.132 C 
ATOM      5  N   UNL     1      10.828   7.257   1.917  0.00  0.00    -0.170 NA
ATOM      6  C   UNL     1      10.740   6.980   0.440  0.00  0.00    +0.205 C 
ATOM      7  C   UNL     1      11.890   3.640   2.839  0.00  0.00    +0.026 C 
ATOM      8  C   UNL     1      10.475   5.528   0.034  0.00  0.00    +0.232 C 
ATOM      9  O   UNL     1      10.147   5.236  -1.116  0.00  0.00    -0.274 OA
ATOM     10  C   UNL     1      12.006   2.697   1.636  0.00  0.00    +0.034 C 
ENDROOT
BRANCH   1  13
ATOM     11  N   UNL     1       8.493   2.899   1.011  0.00  0.00    -0.314 N 
ATOM     12  H   UNL     1       8.494   3.914   1.052  0.00  0.00    +0.149 HD
ATOM     13  C   UNL     1       9.681   2.255   0.757  0.00  0.00    +0.234 C 
ATOM     14  O   UNL     1       9.753   1.033   0.613  0.00  0.00    -0.274 OA
BRANCH  11  15
ATOM     15  C   UNL     1       7.230   2.188   1.033  0.00  0.00    +0.108 C 
BRANCH  15  21
ATOM     16  N   UNL     1       2.904   3.910   4.547  0.00  0.00    +0.109 NA
ATOM     17  C   UNL     1       3.088   2.815   3.865  0.00  0.00    +0.408 C 
ATOM     18  N   UNL     1       4.276   2.486   3.251  0.00  0.00    -0.222 N 
ATOM     19  C   UNL     1       4.379   1.515   2.158  0.00  0.00    +0.188 C 
ATOM     20  C   UNL     1       5.655   0.691   2.340  0.00  0.00    +0.040 C 
ATOM     21  C   UNL     1       6.911   1.577   2.410  0.00  0.00    +0.012 C 
ATOM     22  C   UNL     1       6.709   2.645   3.498  0.00  0.00    +0.040 C 
ATOM     23  C   UNL     1       5.406   3.425   3.317  0.00  0.00    +0.188 C 
ATOM     24  N   UNL     1       2.113   1.871   3.757  0.00  0.00    -0.249 N 
ATOM     25  H   UNL     1       2.452   0.953   4.007  0.00  0.00    +0.241 HD
ATOM     26  H   UNL     1       1.353   2.147   4.374  0.00  0.00    +0.241 HD
BRANCH  16  27
ATOM     27  O   UNL     1       1.620   3.948   5.117  0.00  0.00    -0.340 OA
ATOM     28  H   UNL     1       1.615   4.831   5.528  0.00  0.00    +0.350 HD
ENDBRANCH  16  27
ENDBRANCH  15  21
ENDBRANCH  11  15
ENDBRANCH   1  13
BRANCH   5  29
ATOM     29  S   UNL     1       9.292   7.626   2.583  0.00  0.00    +0.036 S 
ATOM     30  O   UNL     1       8.540   6.388   2.612  0.00  0.00    -0.158 OA
ATOM     31  O   UNL     1       8.799   8.768   1.843  0.00  0.00    -0.158 OA
BRANCH  29  32
ATOM     32  C   UNL     1       9.696   8.156   4.262  0.00  0.00    +0.220 C 
BRANCH  32  33
ATOM     33  C   UNL     1       8.412   8.382   5.016  0.00  0.00    -0.025 A 
ATOM     34  C   UNL     1       7.722   9.597   4.900  0.00  0.00    +0.005 A 
ATOM     35  C   UNL     1       6.515   9.788   5.572  0.00  0.00    +0.000 A 
ATOM     36  C   UNL     1       5.988   8.773   6.367  0.00  0.00    +0.000 A 
ATOM     37  C   UNL     1       6.669   7.562   6.493  0.00  0.00    +0.000 A 
ATOM     38  C   UNL     1       7.876   7.369   5.821  0.00  0.00    +0.005 A 
ENDBRANCH  32  33
ENDBRANCH  29  32
ENDBRANCH   5  29
TORSDOF 7
