REMARK  Name = 
REMARK  15 active torsions:
REMARK  status: ('A' for Active; 'I' for Inactive)
REMARK    1  A    between atoms: C_1  and  O_2
REMARK    2  A    between atoms: O_2  and  C_3
REMARK    3  A    between atoms: C_6  and  C_9
REMARK    4  A    between atoms: C_10  and  C_11
REMARK    5  A    between atoms: C_12  and  C_20
REMARK    6  A    between atoms: C_15  and  S_16
REMARK    7  A    between atoms: S_16  and  C_17
REMARK    8  A    between atoms: S_16  and  O_18
REMARK    9  A    between atoms: S_16  and  O_19
REMARK   10  A    between atoms: C_20  and  C_22
REMARK   11  A    between atoms: C_23  and  O_24
REMARK   12  A    between atoms: N_25  and  C_28
REMARK   13  A    between atoms: C_28  and  C_29
REMARK   14  A    between atoms: C_28  and  C_30
REMARK   15  A    between atoms: C_28  and  C_31
REMARK                            x       y       z     vdW  Elec       q    Type
REMARK                         _______ _______ _______ _____ _____    ______ ____
ROOT
ATOM      1  C   UNL     1       5.209  -4.412   2.227  0.00  0.00    +0.008 A 
ATOM      2  C   UNL     1       4.802  -5.728   1.855  0.00  0.00    +0.067 A 
ATOM      3  C   UNL     1       5.663  -6.821   2.031  0.00  0.00    +0.026 A 
ATOM      4  C   UNL     1       6.970  -6.643   2.449  0.00  0.00    +0.014 A 
ATOM      5  C   UNL     1       7.434  -5.377   2.797  0.00  0.00    +0.026 A 
ATOM      6  C   UNL     1       6.502  -4.308   2.868  0.00  0.00    -0.030 A 
ATOM      7  C   UNL     1       6.843  -3.108   3.729  0.00  0.00    +0.045 C 
ENDROOT
BRANCH   1  11
ATOM      8  C   UNL     1       3.080  -0.909   0.729  0.00  0.00    +0.120 A 
ATOM      9  C   UNL     1       2.375  -1.990   1.238  0.00  0.00    +0.046 A 
ATOM     10  C   UNL     1       3.052  -3.061   1.852  0.00  0.00    +0.012 A 
ATOM     11  C   UNL     1       4.450  -3.157   1.860  0.00  0.00    -0.016 A 
ATOM     12  C   UNL     1       5.129  -2.005   1.399  0.00  0.00    +0.012 A 
ATOM     13  C   UNL     1       4.458  -0.883   0.888  0.00  0.00    +0.046 A 
BRANCH   8  15
ATOM     14  C   UNL     1       1.480  -0.138  -0.809  0.00  0.00    +0.277 C 
ATOM     15  O   UNL     1       2.511   0.178   0.127  0.00  0.00    -0.495 OA
ENDBRANCH   8  15
ENDBRANCH   1  11
BRANCH   2  16
ATOM     16  S   UNL     1       3.243  -6.209   1.253  0.00  0.00    -0.170 S 
ATOM     17  C   UNL     1       3.194  -7.715   0.343  0.00  0.00    +0.165 C 
BRANCH  16  18
ATOM     18  O   UNL     1       2.529  -5.234   0.196  0.00  0.00    -0.294 OA
ATOM     19  H   UNL     1       3.085  -4.897  -0.542  0.00  0.00    +0.240 HD
ENDBRANCH  16  18
BRANCH  16  20
ATOM     20  O   UNL     1       2.202  -6.499   2.445  0.00  0.00    -0.294 OA
ATOM     21  H   UNL     1       2.601  -6.736   3.315  0.00  0.00    +0.240 HD
ENDBRANCH  16  20
ENDBRANCH   2  16
BRANCH   5  22
ATOM     22  C   UNL     1       8.915  -5.239   3.075  0.00  0.00    +0.200 C 
ATOM     23  O   UNL     1       9.336  -4.526   3.980  0.00  0.00    -0.286 OA
BRANCH  22  24
ATOM     24  C   UNL     1       9.835  -6.046   2.270  0.00  0.00    +0.103 A 
ATOM     25  C   UNL     1       9.702  -6.550   0.959  0.00  0.00    +0.150 A 
ATOM     26  N   UNL     1      10.671  -7.402   0.619  0.00  0.00    -0.175 NA
ATOM     27  N   UNL     1      11.467  -7.448   1.712  0.00  0.00    -0.227 N 
ATOM     28  C   UNL     1      11.070  -6.517   2.667  0.00  0.00    +0.222 A 
BRANCH  27  29
ATOM     29  C   UNL     1      12.450  -8.536   1.874  0.00  0.00    +0.059 C 
ATOM     30  C   UNL     1      13.875  -7.995   2.088  0.00  0.00    +0.036 C 
ATOM     31  C   UNL     1      12.499  -9.451   0.618  0.00  0.00    +0.036 C 
ATOM     32  C   UNL     1      12.043  -9.431   3.063  0.00  0.00    +0.036 C 
ENDBRANCH  27  29
BRANCH  28  33
ATOM     33  O   UNL     1      11.785  -6.275   3.768  0.00  0.00    -0.492 OA
ATOM     34  H   UNL     1      11.356  -5.514   4.215  0.00  0.00    +0.294 HD
ENDBRANCH  28  33
ENDBRANCH  22  24
ENDBRANCH   5  22
TORSDOF 9
