REMARK  Name = 
REMARK  38 active torsions:
REMARK  status: ('A' for Active; 'I' for Inactive)
REMARK    1  A    between atoms: C_1  and  C_2
REMARK    2  A    between atoms: C_2  and  C_3
REMARK    3  A    between atoms: C_3  and  C_4
REMARK    4  A    between atoms: C_4  and  C_5
REMARK    5  A    between atoms: C_5  and  C_6
REMARK    6  A    between atoms: C_6  and  C_7
REMARK    7  A    between atoms: C_7  and  C_8
REMARK    8  A    between atoms: C_8  and  C_9
REMARK    9  A    between atoms: C_9  and  C_10
REMARK   10  A    between atoms: C_10  and  C_11
REMARK   11  A    between atoms: C_11  and  C_12
REMARK   12  A    between atoms: C_12  and  O_14
REMARK   13  A    between atoms: O_14  and  C_15
REMARK   14  A    between atoms: C_15  and  C_16
REMARK   15  A    between atoms: C_16  and  C_18
REMARK   16  A    between atoms: C_16  and  O_30
REMARK   17  A    between atoms: C_18  and  O_19
REMARK   18  A    between atoms: O_19  and  P_20
REMARK   19  A    between atoms: P_20  and  O_21
REMARK   20  A    between atoms: P_20  and  O_23
REMARK   21  A    between atoms: O_23  and  C_24
REMARK   22  A    between atoms: C_24  and  C_25
REMARK   23  A    between atoms: C_25  and  N_26
REMARK   24  A    between atoms: N_26  and  C_27
REMARK   25  A    between atoms: N_26  and  C_28
REMARK   26  A    between atoms: N_26  and  C_29
REMARK   27  A    between atoms: O_30  and  C_31
REMARK   28  A    between atoms: C_31  and  C_33
REMARK   29  A    between atoms: C_33  and  C_34
REMARK   30  A    between atoms: C_34  and  C_35
REMARK   31  A    between atoms: C_35  and  C_36
REMARK   32  A    between atoms: C_36  and  C_37
REMARK   33  A    between atoms: C_37  and  C_38
REMARK   34  A    between atoms: C_38  and  C_39
REMARK   35  A    between atoms: C_39  and  C_40
REMARK   36  A    between atoms: C_40  and  C_41
REMARK   37  A    between atoms: C_41  and  C_42
REMARK   38  A    between atoms: C_42  and  C_43
REMARK                            x       y       z     vdW  Elec       q    Type
REMARK                         _______ _______ _______ _____ _____    ______ ____
ROOT
ATOM      1  C   UNL     1      15.355  -9.023   3.725  0.00  0.00    +0.240 C 
ENDROOT
BRANCH   1   2
ATOM      2  C   UNL     1      14.859 -10.103   2.769  0.00  0.00    +0.220 C 
BRANCH   2   3
ATOM      3  O   UNL     1      15.293 -11.399   3.195  0.00  0.00    -0.283 OA
BRANCH   3   4
ATOM      4  P   UNL     1      14.694 -12.640   2.148  0.00  0.00    +0.475 P 
ATOM      5  O   UNL     1      15.166 -13.728   3.113  0.00  0.00    -0.227 OA
BRANCH   4   6
ATOM      6  O   UNL     1      16.016 -12.346   1.228  0.00  0.00    -0.302 OA
ATOM      7  H   UNL     1      16.772 -12.716   1.733  0.00  0.00    +0.222 HD
ENDBRANCH   4   6
BRANCH   4   8
ATOM      8  O   UNL     1      14.095 -13.880   1.100  0.00  0.00    -0.281 OA
BRANCH   8   9
ATOM      9  C   UNL     1      14.988 -14.300   0.069  0.00  0.00    +0.223 C 
BRANCH   9  10
ATOM     10  C   UNL     1      14.435 -15.437  -0.779  0.00  0.00    +0.161 C 
BRANCH  10  11
ATOM     11  N   UNL     1      14.141 -16.737  -0.011  0.00  0.00    +0.239 N 
ATOM     12  C   UNL     1      13.706 -17.777  -1.038  0.00  0.00    +0.192 C 
ATOM     13  C   UNL     1      13.009 -16.535   0.993  0.00  0.00    +0.192 C 
ATOM     14  C   UNL     1      15.372 -17.250   0.726  0.00  0.00    +0.192 C 
ENDBRANCH  10  11
ENDBRANCH   9  10
ENDBRANCH   8   9
ENDBRANCH   4   8
ENDBRANCH   3   4
ENDBRANCH   2   3
ENDBRANCH   1   2
BRANCH   1  15
ATOM     15  O   UNL     1      16.800  -9.068   3.723  0.00  0.00    -0.456 OA
BRANCH  15  16
ATOM     16  C   UNL     1      17.395  -9.208   4.939  0.00  0.00    +0.308 C 
ATOM     17  O   UNL     1      16.819  -9.256   6.016  0.00  0.00    -0.251 OA
BRANCH  16  18
ATOM     18  C   UNL     1      18.889  -9.329   4.777  0.00  0.00    +0.120 C 
BRANCH  18  19
ATOM     19  C   UNL     1      19.397 -10.681   5.267  0.00  0.00    +0.011 C 
BRANCH  19  20
ATOM     20  C   UNL     1      18.859 -11.847   4.432  0.00  0.00    +0.001 C 
BRANCH  20  21
ATOM     21  C   UNL     1      19.400 -13.184   4.936  0.00  0.00    +0.000 C 
BRANCH  21  22
ATOM     22  C   UNL     1      18.840 -14.347   4.117  0.00  0.00    +0.000 C 
BRANCH  22  23
ATOM     23  C   UNL     1      19.373 -15.687   4.622  0.00  0.00    +0.000 C 
BRANCH  23  24
ATOM     24  C   UNL     1      18.813 -16.847   3.800  0.00  0.00    -0.000 C 
BRANCH  24  25
ATOM     25  C   UNL     1      19.348 -18.189   4.301  0.00  0.00    -0.000 C 
BRANCH  25  26
ATOM     26  C   UNL     1      18.788 -19.347   3.475  0.00  0.00    -0.000 C 
BRANCH  26  27
ATOM     27  C   UNL     1      19.319 -20.691   3.970  0.00  0.00    -0.003 C 
ATOM     28  C   UNL     1      18.761 -21.840   3.146  0.00  0.00    +0.004 C 
ENDBRANCH  26  27
ENDBRANCH  25  26
ENDBRANCH  24  25
ENDBRANCH  23  24
ENDBRANCH  22  23
ENDBRANCH  21  22
ENDBRANCH  20  21
ENDBRANCH  19  20
ENDBRANCH  18  19
ENDBRANCH  16  18
ENDBRANCH  15  16
ENDBRANCH   1  15
BRANCH   1  29
ATOM     29  C   UNL     1      14.915  -7.640   3.228  0.00  0.00    +0.279 C 
BRANCH  29  30
ATOM     30  O   UNL     1      15.394  -6.604   4.101  0.00  0.00    -0.461 OA
BRANCH  30  31
ATOM     31  C   UNL     1      14.661  -6.417   5.232  0.00  0.00    +0.307 C 
ATOM     32  O   UNL     1      13.625  -7.019   5.483  0.00  0.00    -0.251 OA
BRANCH  31  33
ATOM     33  C   UNL     1      15.285  -5.351   6.093  0.00  0.00    +0.120 C 
BRANCH  33  34
ATOM     34  C   UNL     1      15.097  -5.676   7.568  0.00  0.00    +0.011 C 
BRANCH  34  35
ATOM     35  C   UNL     1      15.728  -4.617   8.470  0.00  0.00    +0.001 C 
BRANCH  35  36
ATOM     36  C   UNL     1      15.525  -4.984   9.940  0.00  0.00    +0.000 C 
BRANCH  36  37
ATOM     37  C   UNL     1      16.130  -3.941  10.877  0.00  0.00    +0.000 C 
BRANCH  37  38
ATOM     38  C   UNL     1      15.912  -4.333  12.339  0.00  0.00    +0.000 C 
BRANCH  38  39
ATOM     39  C   UNL     1      16.509  -3.297  13.289  0.00  0.00    -0.000 C 
BRANCH  39  40
ATOM     40  C   UNL     1      16.290  -3.692  14.750  0.00  0.00    -0.000 C 
BRANCH  40  41
ATOM     41  C   UNL     1      16.890  -2.653  15.697  0.00  0.00    -0.000 C 
BRANCH  41  43
ATOM     42  C   UNL     1      17.278  -2.006  18.104  0.00  0.00    +0.004 C 
ATOM     43  C   UNL     1      16.677  -3.039  17.159  0.00  0.00    -0.003 C 
ENDBRANCH  41  43
ENDBRANCH  40  41
ENDBRANCH  39  40
ENDBRANCH  38  39
ENDBRANCH  37  38
ENDBRANCH  36  37
ENDBRANCH  35  36
ENDBRANCH  34  35
ENDBRANCH  33  34
ENDBRANCH  31  33
ENDBRANCH  30  31
ENDBRANCH  29  30
ENDBRANCH   1  29
TORSDOF 33
