REMARK  Name = 
REMARK  7 active torsions:
REMARK  status: ('A' for Active; 'I' for Inactive)
REMARK    1  A    between atoms: C_1  and  C_2
REMARK    2  A    between atoms: N_4  and  C_5
REMARK    3  A    between atoms: C_8  and  C_19
REMARK    4  A    between atoms: C_10  and  N_11
REMARK    5  A    between atoms: C_12  and  C_14
REMARK    6  A    between atoms: C_14  and  N_15
REMARK    7  A    between atoms: C_19  and  O_20
REMARK                            x       y       z     vdW  Elec       q    Type
REMARK                         _______ _______ _______ _____ _____    ______ ____
ROOT
ATOM      1  C   UNL     1       4.537  -0.819   0.986  0.00  0.00    +0.055 A 
ATOM      2  C   UNL     1       5.251   0.279   0.455  0.00  0.00    +0.056 A 
ATOM      3  C   UNL     1       6.637   0.337   0.671  0.00  0.00    +0.040 A 
ATOM      4  C   UNL     1       7.313  -0.644   1.410  0.00  0.00    +0.061 A 
ATOM      5  C   UNL     1       6.595  -1.705   1.956  0.00  0.00    +0.017 A 
ATOM      6  C   UNL     1       5.224  -1.803   1.714  0.00  0.00    +0.026 A 
ENDROOT
BRANCH   1   9
ATOM      7  C   UNL     1       0.780  -0.836   1.020  0.00  0.00    +0.109 C 
ATOM      8  C   UNL     1       2.136  -0.170   0.987  0.00  0.00    +0.214 C 
ATOM      9  N   UNL     1       3.157  -1.080   0.815  0.00  0.00    -0.284 N 
ATOM     10  H   UNL     1       2.888  -2.051   0.936  0.00  0.00    +0.155 HD
ATOM     11  O   UNL     1       2.284   1.047   1.062  0.00  0.00    -0.276 OA
ENDBRANCH   1   9
BRANCH   2  12
ATOM     12  N   UNL     1       4.595   1.308  -0.275  0.00  0.00    -0.280 N 
ATOM     13  H   UNL     1       3.586   1.345  -0.125  0.00  0.00    +0.155 HD
ATOM     14  C   UNL     1       5.213   2.234  -1.085  0.00  0.00    +0.262 C 
ATOM     15  O   UNL     1       6.383   2.208  -1.485  0.00  0.00    -0.270 OA
BRANCH  14  16
ATOM     16  C   UNL     1       4.382   3.432  -1.515  0.00  0.00    +0.225 C 
BRANCH  16  17
ATOM     17  N   UNL     1       5.326   4.578  -1.790  0.00  0.00    +0.225 N 
ATOM     18  H   UNL     1       4.972   5.264  -2.464  0.00  0.00    +0.200 HD
ATOM     19  H   UNL     1       6.201   4.165  -2.167  0.00  0.00    +0.200 HD
ATOM     20  H   UNL     1       5.604   5.053  -0.922  0.00  0.00    +0.200 HD
ENDBRANCH  16  17
ENDBRANCH  14  16
ENDBRANCH   2  12
BRANCH   4  21
ATOM     21  C   UNL     1       8.766  -0.450   1.620  0.00  0.00    +0.337 C 
ATOM     22  O   UNL     1       9.298   0.648   1.560  0.00  0.00    -0.245 OA
BRANCH  21  23
ATOM     23  O   UNL     1       9.461  -1.588   1.846  0.00  0.00    -0.477 OA
ATOM     24  H   UNL     1       8.979  -2.424   1.707  0.00  0.00    +0.295 HD
ENDBRANCH  21  23
ENDBRANCH   4  21
TORSDOF 6
