REMARK  Name = 
REMARK  19 active torsions:
REMARK  status: ('A' for Active; 'I' for Inactive)
REMARK    1  A    between atoms: C_1  and  C_2
REMARK    2  A    between atoms: C_2  and  N_3
REMARK    3  A    between atoms: N_7  and  C_8
REMARK    4  A    between atoms: C_8  and  C_9
REMARK    5  A    between atoms: C_8  and  C_10
REMARK    6  A    between atoms: C_12  and  S_13
REMARK    7  A    between atoms: S_13  and  C_14
REMARK    8  A    between atoms: C_14  and  C_15
REMARK    9  A    between atoms: C_15  and  N_17
REMARK   10  A    between atoms: C_15  and  C_28
REMARK   11  A    between atoms: C_18  and  C_20
REMARK   12  A    between atoms: C_20  and  C_21
REMARK   13  A    between atoms: C_21  and  C_22
REMARK   14  A    between atoms: C_22  and  N_24
REMARK   15  A    between atoms: C_22  and  C_25
REMARK   16  A    between atoms: C_25  and  O_26
REMARK   17  A    between atoms: N_30  and  CA_31
REMARK   18  A    between atoms: CA_31  and  C_32
REMARK   19  A    between atoms: C_32  and  O_33
REMARK                            x       y       z     vdW  Elec       q    Type
REMARK                         _______ _______ _______ _____ _____    ______ ____
ROOT
ATOM      1  C   UNK A   1      11.396  -5.159   6.868  0.00  0.00    +0.169 C 
ENDROOT
BRANCH   1   2
ATOM      2  N   UNK A   1      11.893  -5.176   5.481  0.00  0.00    -0.303 N 
ATOM      3  H   UNK A   1      11.285  -5.537   4.757  0.00  0.00    +0.149 HD
ATOM      4  C   UNK A   1      13.148  -4.728   5.141  0.00  0.00    +0.214 C 
ATOM      5  O   UNK A   1      13.963  -4.341   5.969  0.00  0.00    -0.276 OA
BRANCH   4   6
ATOM      6  C   UNK A   1      13.439  -4.769   3.654  0.00  0.00    +0.098 C 
BRANCH   6   7
ATOM      7  C   UNK A   1      14.954  -4.729   3.408  0.00  0.00    +0.039 C 
BRANCH   7   8
ATOM      8  C   UNK A   1      15.378  -4.867   1.945  0.00  0.00    +0.161 C 
BRANCH   8   9
ATOM      9  N   UNK A   1      14.792  -3.790   1.098  0.00  0.00    -0.318 NA
ATOM     10  H   UNK A   1      15.076  -2.892   1.504  0.00  0.00    +0.119 HD
ATOM     11  H   UNK A   1      15.282  -3.806   0.194  0.00  0.00    +0.119 HD
ENDBRANCH   8   9
BRANCH   8  12
ATOM     12  C   UNK A   1      14.929  -6.228   1.392  0.00  0.00    +0.322 C 
ATOM     13  O   UNK A   1      15.447  -7.301   1.648  0.00  0.00    -0.249 OA
BRANCH  12  14
ATOM     14  O   UNK A   1      13.812  -6.095   0.627  0.00  0.00    -0.480 OA
ATOM     15  H   UNK A   1      13.622  -5.124   0.586  0.00  0.00    +0.295 HD
ENDBRANCH  12  14
ENDBRANCH   8  12
ENDBRANCH   7   8
ENDBRANCH   6   7
ENDBRANCH   4   6
ENDBRANCH   1   2
BRANCH   1  16
ATOM     16  C   UNK A   1      11.972  -6.349   7.681  0.00  0.00    +0.235 C 
ATOM     17  N   GLY A   2      12.232  -7.496   6.947  0.00  0.00    -0.303 N 
ATOM     18  H   GLY A   2      11.926  -7.516   5.982  0.00  0.00    +0.149 HD
ATOM     19  O   UNK A   1      12.060  -6.347   8.906  0.00  0.00    -0.274 OA
BRANCH  17  20
ATOM     20  CA  GLY A   2      12.504  -8.779   7.600  0.00  0.00    +0.224 C 
BRANCH  20  21
ATOM     21  C   GLY A   2      13.980  -9.071   7.841  0.00  0.00    +0.322 C 
ATOM     22  OXT GLY A   2      14.398 -10.113   8.338  0.00  0.00    -0.249 OA
BRANCH  21  23
ATOM     23  O   GLY A   2      14.814  -8.090   7.416  0.00  0.00    -0.480 OA
ATOM     24  H   GLY A   2      14.302  -7.315   7.105  0.00  0.00    +0.295 HD
ENDBRANCH  21  23
ENDBRANCH  20  21
ENDBRANCH  17  20
ENDBRANCH   1  16
BRANCH   1  25
ATOM     25  C   UNK A   1      11.599  -3.845   7.653  0.00  0.00    +0.109 C 
BRANCH  25  26
ATOM     26  S   UNK A   1      10.880  -2.366   6.825  0.00  0.00    -0.084 S 
BRANCH  26  31
ATOM     27  N   UNK A   1      12.000   2.423   7.649  0.00  0.00    -0.314 N 
ATOM     28  H   UNK A   1      11.141   2.497   7.115  0.00  0.00    +0.149 HD
ATOM     29  C   UNK A   1      12.132   1.101   8.065  0.00  0.00    +0.220 A 
ATOM     30  N   UNK A   1      11.467   0.185   7.373  0.00  0.00    -0.189 NA
ATOM     31  C   UNK A   1      11.645  -1.067   7.791  0.00  0.00    +0.194 A 
ATOM     32  N   UNK A   1      12.365  -1.428   8.843  0.00  0.00    -0.189 NA
ATOM     33  C   UNK A   1      13.015  -0.452   9.445  0.00  0.00    +0.221 A 
ATOM     34  N   UNK A   1      13.910  -0.724  10.456  0.00  0.00    -0.311 N 
ATOM     35  H   UNK A   1      14.219   0.143  10.877  0.00  0.00    +0.149 HD
ATOM     36  N   UNK A   1      12.917   0.823   9.100  0.00  0.00    -0.181 NA
BRANCH  34  37
ATOM     37  C   UNK A   1      13.673  -1.847  11.344  0.00  0.00    +0.067 C 
ATOM     38  C   UNK A   1      12.883  -1.386  12.568  0.00  0.00    +0.027 C 
ATOM     39  C   UNK A   1      15.032  -2.402  11.769  0.00  0.00    +0.027 C 
ENDBRANCH  34  37
BRANCH  27  41
ATOM     40  C   UNK A   1      12.210   4.818   8.074  0.00  0.00    +0.024 C 
ATOM     41  C   UNK A   1      12.213   3.425   8.683  0.00  0.00    +0.101 C 
ENDBRANCH  27  41
ENDBRANCH  26  31
ENDBRANCH  25  26
ENDBRANCH   1  25
TORSDOF 16
