REMARK  Name = 
REMARK  12 active torsions:
REMARK  status: ('A' for Active; 'I' for Inactive)
REMARK    1  A    between atoms: CA_2  and  C_3
REMARK    2  A    between atoms: CA_2  and  N_5
REMARK    3  A    between atoms: CA_2  and  CB_29
REMARK    4  A    between atoms: C_3  and  O_4
REMARK    5  A    between atoms: N_12  and  C_13
REMARK    6  A    between atoms: C_13  and  C_14
REMARK    7  A    between atoms: C_13  and  C_15
REMARK    8  A    between atoms: N_17  and  C_18
REMARK    9  A    between atoms: C_21  and  C_22
REMARK   10  A    between atoms: C_22  and  O_23
REMARK   11  A    between atoms: CB_29  and  CG1_30
REMARK   12  A    between atoms: CB_29  and  CG2_31
REMARK                            x       y       z     vdW  Elec       q    Type
REMARK                         _______ _______ _______ _____ _____    ______ ____
ROOT
ATOM      1  N   VAL A   1       2.721  -1.295   1.184  0.00  0.00    -0.308 N 
ATOM      2  H   VAL A   1       1.871  -1.550   0.692  0.00  0.00    +0.149 HD
ATOM      3  C   UNK A   0       2.316  -1.040   2.495  0.00  0.00    +0.219 A 
ATOM      4  N   UNK A   0       2.276   0.232   2.934  0.00  0.00    -0.197 NA
ATOM      5  C   UNK A   0       1.904   0.525   4.213  0.00  0.00    +0.156 A 
ATOM      6  N   UNK A   0       1.806   1.849   4.676  0.00  0.00    -0.298 N 
ATOM      7  H   UNK A   0       1.623   1.889   5.675  0.00  0.00    +0.154 HD
ATOM      8  C   UNK A   0       1.629  -0.556   5.060  0.00  0.00    +0.148 A 
ATOM      9  N   UNK A   0       1.272  -0.618   6.390  0.00  0.00    -0.231 NA
ATOM     10  C   UNK A   0       1.119  -1.903   6.630  0.00  0.00    +0.201 A 
ATOM     11  N   UNK A   0       1.358  -2.670   5.517  0.00  0.00    -0.312 N 
ATOM     12  C   UNK A   0       1.678  -1.817   4.494  0.00  0.00    +0.167 A 
ATOM     13  N   UNK A   0       1.976  -2.117   3.220  0.00  0.00    -0.195 NA
ENDROOT
BRANCH   6  14
ATOM     14  C   UNK A   0       1.556   3.029   3.958  0.00  0.00    +0.034 A 
ATOM     15  C   UNK A   0       1.263   3.028   2.589  0.00  0.00    +0.044 A 
ATOM     16  C   UNK A   0       1.128   4.214   1.861  0.00  0.00    +0.057 A 
ATOM     17 CL   UNK A   0       0.722   4.058   0.188  0.00  0.00    -0.083 Cl
ATOM     18  C   UNK A   0       1.309   5.441   2.495  0.00  0.00    +0.077 A 
ATOM     19  C   UNK A   0       1.555   5.463   3.876  0.00  0.00    +0.018 A 
ATOM     20  C   UNK A   0       1.684   4.269   4.596  0.00  0.00    +0.024 A 
BRANCH  18  21
ATOM     21  C   UNK A   0       1.267   6.751   1.799  0.00  0.00    +0.338 C 
ATOM     22  O   UNK A   0       0.873   7.765   2.351  0.00  0.00    -0.245 OA
BRANCH  21  23
ATOM     23  O   UNK A   0       1.810   6.753   0.565  0.00  0.00    -0.477 OA
ATOM     24  H   UNK A   0       2.061   5.873   0.210  0.00  0.00    +0.295 HD
ENDBRANCH  21  23
ENDBRANCH  18  21
ENDBRANCH   6  14
BRANCH  11  25
ATOM     25  C   UNK A   0       1.308  -4.124   5.448  0.00  0.00    +0.084 C 
ATOM     26  C   UNK A   0      -0.104  -4.654   5.701  0.00  0.00    +0.030 C 
ATOM     27  C   UNK A   0       2.310  -4.766   6.411  0.00  0.00    +0.030 C 
ENDBRANCH  11  25
BRANCH   1  28
ATOM     28  CA  VAL A   1       3.502  -0.248   0.502  0.00  0.00    +0.101 C 
BRANCH  28  29
ATOM     29  CB  VAL A   1       3.722  -0.618  -1.003  0.00  0.00    +0.005 C 
ATOM     30  CG2 VAL A   1       2.421  -0.617  -1.812  0.00  0.00    +0.009 C 
ATOM     31  CG1 VAL A   1       4.459  -1.945  -1.219  0.00  0.00    +0.009 C 
ENDBRANCH  28  29
BRANCH  28  32
ATOM     32  C   VAL A   1       4.869  -0.053   1.215  0.00  0.00    +0.178 C 
BRANCH  32  33
ATOM     33  O   VAL A   1       5.730   0.808   0.471  0.00  0.00    -0.393 OA
ATOM     34  H   VAL A   1       6.633   0.462   0.575  0.00  0.00    +0.209 HD
ENDBRANCH  32  33
ENDBRANCH  28  32
ENDBRANCH   1  28
TORSDOF 8
