REMARK  Name = 
REMARK  5 active torsions:
REMARK  status: ('A' for Active; 'I' for Inactive)
REMARK    1  A    between atoms: C_1  and  O_2
REMARK    2  A    between atoms: O_2  and  C_3
REMARK    3  A    between atoms: C_4  and  O_5
REMARK    4  A    between atoms: O_5  and  C_6
REMARK    5  A    between atoms: C_11  and  C_13
REMARK                            x       y       z     vdW  Elec       q    Type
REMARK                         _______ _______ _______ _____ _____    ______ ____
ROOT
ATOM      1  C   UNL     1       3.119   1.026   0.847  0.00  0.00    +0.162 A 
ATOM      2  C   UNL     1       4.233   0.733   1.640  0.00  0.00    +0.059 A 
ATOM      3  C   UNL     1       4.904   1.751   2.325  0.00  0.00    +0.006 A 
ATOM      4  C   UNL     1       4.443   3.067   2.222  0.00  0.00    +0.014 A 
ATOM      5  C   UNL     1       3.312   3.365   1.451  0.00  0.00    +0.050 A 
ATOM      6  C   UNL     1       2.639   2.347   0.765  0.00  0.00    +0.168 A 
ENDROOT
BRANCH   3   7
ATOM      7  C   UNL     1       6.178   1.465   3.049  0.00  0.00    +0.091 A 
ATOM      8  C   UNL     1       6.318   0.135   3.692  0.00  0.00    +0.035 A 
ATOM      9  C   UNL     1       7.513  -0.170   4.205  0.00  0.00    +0.073 A 
ATOM     10  C   UNL     1       8.612   0.810   4.164  0.00  0.00    +0.265 A 
ATOM     11  O   UNL     1       9.723   0.525   4.595  0.00  0.00    -0.266 OA
ATOM     12  N   UNL     1       8.295   2.037   3.639  0.00  0.00    -0.243 N 
ATOM     13  H   UNL     1       9.036   2.728   3.587  0.00  0.00    +0.192 HD
ATOM     14  N   UNL     1       7.108   2.372   3.056  0.00  0.00    -0.171 NA
ENDBRANCH   3   7
BRANCH   1  16
ATOM     15  C   UNL     1       3.166  -1.097  -0.214  0.00  0.00    +0.277 C 
ATOM     16  O   UNL     1       2.431   0.071   0.138  0.00  0.00    -0.491 OA
ENDBRANCH   1  16
BRANCH   6  17
ATOM     17  O   UNL     1       1.563   2.546  -0.060  0.00  0.00    -0.431 OA
BRANCH  17  18
ATOM     18  C   UNL     1       0.792   3.709   0.169  0.00  0.00    +0.541 C 
ATOM     19  F   UNL     1      -0.370   3.570  -0.518  0.00  0.00    -0.166 F 
ATOM     20  F   UNL     1       1.431   4.779  -0.368  0.00  0.00    -0.166 F 
ENDBRANCH  17  18
ENDBRANCH   6  17
TORSDOF 4
