REMARK  Name = 
REMARK  5 active torsions:
REMARK  status: ('A' for Active; 'I' for Inactive)
REMARK    1  A    between atoms: O_1  and  C_2
REMARK    2  A    between atoms: C_2  and  C_4
REMARK    3  A    between atoms: C_9  and  N_10
REMARK    4  A    between atoms: N_10  and  C_11
REMARK    5  A    between atoms: C_12  and  C_17
REMARK                            x       y       z     vdW  Elec       q    Type
REMARK                         _______ _______ _______ _____ _____    ______ ____
ROOT
ATOM      1  N   UNL     1       3.974  -0.345  -2.137  0.00  0.00    -0.313 N 
ATOM      2  H   UNL     1       4.231  -0.275  -3.126  0.00  0.00    +0.152 HD
ENDROOT
BRANCH   1   4
ATOM      3  C   UNL     1       4.606   1.991  -1.640  0.00  0.00    +0.080 A 
ATOM      4  C   UNL     1       3.673   0.930  -1.589  0.00  0.00    +0.045 A 
ATOM      5  C   UNL     1       2.432   1.175  -0.982  0.00  0.00    +0.024 A 
ATOM      6  C   UNL     1       2.137   2.412  -0.404  0.00  0.00    +0.002 A 
ATOM      7  C   UNL     1       3.079   3.435  -0.423  0.00  0.00    +0.001 A 
ATOM      8  C   UNL     1       4.306   3.230  -1.049  0.00  0.00    +0.017 A 
BRANCH   3   9
ATOM      9  C   UNL     1       5.938   1.887  -2.294  0.00  0.00    +0.339 C 
ATOM     10  O   UNL     1       6.483   2.835  -2.834  0.00  0.00    -0.245 OA
BRANCH   9  11
ATOM     11  O   UNL     1       6.508   0.670  -2.188  0.00  0.00    -0.477 OA
ATOM     12  H   UNL     1       5.968   0.035  -1.672  0.00  0.00    +0.295 HD
ENDBRANCH   9  11
ENDBRANCH   3   9
ENDBRANCH   1   4
BRANCH   1  13
ATOM     13  C   UNL     1       3.500  -1.619  -1.731  0.00  0.00    +0.043 A 
ATOM     14  C   UNL     1       3.307  -1.894  -0.365  0.00  0.00    +0.024 A 
ATOM     15  C   UNL     1       2.954  -3.167   0.088  0.00  0.00    +0.002 A 
ATOM     16  C   UNL     1       2.806  -4.207  -0.818  0.00  0.00    +0.001 A 
ATOM     17  C   UNL     1       2.942  -3.952  -2.178  0.00  0.00    +0.014 A 
ATOM     18  C   UNL     1       3.251  -2.662  -2.655  0.00  0.00    +0.076 A 
BRANCH  18  19
ATOM     19  C   UNL     1       3.252  -2.462  -4.149  0.00  0.00    +0.419 C 
ATOM     20  F   UNL     1       2.069  -2.830  -4.715  0.00  0.00    -0.166 F 
ATOM     21  F   UNL     1       4.212  -3.196  -4.774  0.00  0.00    -0.166 F 
ATOM     22  F   UNL     1       3.463  -1.171  -4.541  0.00  0.00    -0.166 F 
ENDBRANCH  18  19
ENDBRANCH   1  13
TORSDOF 5
