REMARK  Name = 
REMARK  16 active torsions:
REMARK  status: ('A' for Active; 'I' for Inactive)
REMARK    1  A    between atoms: C_1  and  C_2
REMARK    2  A    between atoms: C_2  and  C_3
REMARK    3  A    between atoms: C_3  and  C_4
REMARK    4  A    between atoms: C_4  and  C_5
REMARK    5  A    between atoms: C_5  and  C_6
REMARK    6  A    between atoms: C_9  and  C_12
REMARK    7  A    between atoms: N_14  and  C_15
REMARK    8  A    between atoms: N_14  and  C_33
REMARK    9  A    between atoms: C_15  and  C_16
REMARK   10  A    between atoms: C_19  and  C_22
REMARK   11  A    between atoms: C_25  and  C_26
REMARK   12  A    between atoms: C_26  and  C_27
REMARK   13  A    between atoms: C_27  and  O_29
REMARK   14  A    between atoms: O_29  and  C_30
REMARK   15  A    between atoms: N_36  and  C_37
REMARK   16  A    between atoms: C_37  and  C_38
REMARK                            x       y       z     vdW  Elec       q    Type
REMARK                         _______ _______ _______ _____ _____    ______ ____
ROOT
ATOM      1  C   UNL     1      10.525  -1.329  -2.026  0.00  0.00    +0.247 C 
ATOM      2  N   UNL     1      11.288  -0.377  -1.278  0.00  0.00    -0.290 N 
ATOM      3  O   UNL     1      10.988  -2.304  -2.610  0.00  0.00    -0.270 OA
ENDROOT
BRANCH   1   7
ATOM      4  C   UNL     1       7.251   0.950  -2.583  0.00  0.00    -0.047 A 
ATOM      5  C   UNL     1       7.814   0.361  -3.734  0.00  0.00    +0.004 A 
ATOM      6  C   UNL     1       8.765  -0.642  -3.592  0.00  0.00    +0.013 A 
ATOM      7  C   UNL     1       9.091  -1.047  -2.301  0.00  0.00    +0.037 A 
ATOM      8  C   UNL     1       8.193  -0.824  -1.262  0.00  0.00    +0.013 A 
ATOM      9  C   UNL     1       7.286   0.227  -1.392  0.00  0.00    +0.004 A 
BRANCH   4  10
ATOM     10  C   UNL     1       6.871   2.413  -2.679  0.00  0.00    +0.035 C 
BRANCH  10  11
ATOM     11  C   UNL     1       6.239   3.210  -1.522  0.00  0.00    +0.005 C 
BRANCH  11  12
ATOM     12  C   UNL     1       6.980   3.572  -0.214  0.00  0.00    +0.000 C 
BRANCH  12  14
ATOM     13  C   UNL     1       8.674   4.866   1.146  0.00  0.00    +0.004 C 
ATOM     14  C   UNL     1       8.248   4.435  -0.268  0.00  0.00    -0.003 C 
ENDBRANCH  12  14
ENDBRANCH  11  12
ENDBRANCH  10  11
ENDBRANCH   4  10
ENDBRANCH   1   7
BRANCH   2  15
ATOM     15  C   UNL     1      12.794  -0.488  -1.238  0.00  0.00    +0.079 C 
ATOM     16  C   UNL     1      13.514   0.865  -1.017  0.00  0.00    +0.038 C 
ATOM     17  C   UNL     1      13.399   1.768  -2.247  0.00  0.00    +0.086 C 
ATOM     18  N   UNL     1      14.007   1.200  -3.457  0.00  0.00    -0.295 NA
ATOM     19  C   UNL     1      13.455  -0.154  -3.693  0.00  0.00    +0.086 C 
ATOM     20  C   UNL     1      13.514  -1.086  -2.472  0.00  0.00    +0.038 C 
BRANCH  18  21
ATOM     21  C   UNL     1      15.483   1.169  -3.400  0.00  0.00    +0.158 C 
BRANCH  21  22
ATOM     22  C   UNL     1      16.110   2.511  -3.161  0.00  0.00    +0.121 A 
ATOM     23  N   UNL     1      15.929   3.571  -4.015  0.00  0.00    -0.347 N 
ATOM     24  H   UNL     1      15.348   3.556  -4.842  0.00  0.00    +0.167 HD
ATOM     25  C   UNL     1      16.650   4.626  -3.529  0.00  0.00    +0.104 A 
ATOM     26  C   UNL     1      17.226   4.163  -2.371  0.00  0.00    +0.130 A 
ATOM     27  N   UNL     1      16.879   2.857  -2.146  0.00  0.00    -0.239 NA
ENDBRANCH  21  22
ENDBRANCH  18  21
ENDBRANCH   2  15
BRANCH   2  28
ATOM     28  C   UNL     1      10.667   0.676  -0.402  0.00  0.00    +0.143 C 
BRANCH  28  29
ATOM     29  C   UNL     1      10.979   0.560   1.082  0.00  0.00    -0.030 A 
ATOM     30  C   UNL     1      10.694  -0.589   1.814  0.00  0.00    +0.006 A 
ATOM     31  C   UNL     1      11.255  -0.777   3.089  0.00  0.00    +0.009 A 
ATOM     32  C   UNL     1      12.153   0.150   3.657  0.00  0.00    -0.018 A 
ATOM     33  C   UNL     1      12.206   1.401   3.018  0.00  0.00    +0.009 A 
ATOM     34  C   UNL     1      11.607   1.609   1.765  0.00  0.00    +0.006 A 
BRANCH  32  35
ATOM     35  C   UNL     1      13.117  -0.243   4.745  0.00  0.00    -0.018 A 
ATOM     36  C   UNL     1      13.078  -1.509   5.362  0.00  0.00    +0.009 A 
ATOM     37  C   UNL     1      14.111  -1.980   6.192  0.00  0.00    +0.005 A 
ATOM     38  C   UNL     1      15.232  -1.194   6.449  0.00  0.00    -0.037 A 
ATOM     39  C   UNL     1      15.262   0.097   5.922  0.00  0.00    +0.005 A 
ATOM     40  C   UNL     1      14.227   0.558   5.088  0.00  0.00    +0.009 A 
BRANCH  38  41
ATOM     41  C   UNL     1      16.381  -1.720   7.262  0.00  0.00    +0.155 C 
BRANCH  41  42
ATOM     42  C   UNL     1      16.344  -1.277   8.716  0.00  0.00    +0.311 C 
ATOM     43  O   UNL     1      17.109  -0.443   9.185  0.00  0.00    -0.250 OA
BRANCH  42  44
ATOM     44  O   UNL     1      15.368  -1.944   9.390  0.00  0.00    -0.468 OA
ATOM     45  C   UNL     1      15.255  -1.542  10.755  0.00  0.00    +0.280 C 
ENDBRANCH  42  44
ENDBRANCH  41  42
ENDBRANCH  38  41
ENDBRANCH  32  35
ENDBRANCH  28  29
ENDBRANCH   2  28
TORSDOF 14
