REMARK  Name = 
REMARK  7 active torsions:
REMARK  status: ('A' for Active; 'I' for Inactive)
REMARK    1  A    between atoms: N_1  and  CA_2
REMARK    2  A    between atoms: CA_2  and  C_4
REMARK    3  A    between atoms: CA_2  and  C_11
REMARK    4  A    between atoms: C_4  and  C_5
REMARK    5  A    between atoms: C_5  and  N_6
REMARK    6  A    between atoms: N_9  and  O_10
REMARK    7  A    between atoms: C_11  and  O_12
REMARK                            x       y       z     vdW  Elec       q    Type
REMARK                         _______ _______ _______ _____ _____    ______ ____
ROOT
ATOM      1  C   UNL     1       2.487  -1.163   2.347  0.00  0.00    +0.198 C 
ENDROOT
BRANCH   1   2
ATOM      2  N   UNL     1       3.071  -2.201   3.174  0.00  0.00    -0.274 N 
ATOM      3  H   UNL     1       3.439  -3.018   2.701  0.00  0.00    +0.258 HD
ATOM      4  C   UNL     1       2.746  -2.410   4.476  0.00  0.00    +0.406 C 
ATOM      5  N   UNL     1       3.677  -3.172   5.133  0.00  0.00    -0.142 N 
ATOM      6  H   UNL     1       4.631  -2.899   4.913  0.00  0.00    +0.299 HD
ATOM      7  N   UNL     1       1.705  -1.961   5.090  0.00  0.00    -0.128 NA
ATOM      8  H   UNL     1       1.130  -1.425   4.440  0.00  0.00    +0.306 HD
BRANCH   5   9
ATOM      9  O   UNL     1       3.451  -3.183   6.523  0.00  0.00    -0.233 OA
ATOM     10  H   UNL     1       2.541  -2.806   6.587  0.00  0.00    +0.262 HD
ENDBRANCH   5   9
ENDBRANCH   1   2
BRANCH   1  11
ATOM     11  C   UNL     1       3.053  -1.224   0.926  0.00  0.00    +0.067 C 
BRANCH  11  12
ATOM     12  CA  UNL     1       2.529  -0.097   0.026  0.00  0.00    +0.164 C 
BRANCH  12  13
ATOM     13  N   UNL     1       3.013  -0.298  -1.378  0.00  0.00    -0.318 NA
ATOM     14  H1  UNL     1       3.931  -0.762  -1.352  0.00  0.00    +0.119 HD
ATOM     15  H2  UNL     1       2.401  -0.988  -1.826  0.00  0.00    +0.119 HD
ENDBRANCH  12  13
BRANCH  12  16
ATOM     16  C   UNL     1       2.993   1.301   0.493  0.00  0.00    +0.322 C 
ATOM     17  OXT UNL     1       2.810   1.779   1.600  0.00  0.00    -0.249 OA
BRANCH  16  18
ATOM     18  O   UNL     1       3.624   1.973  -0.508  0.00  0.00    -0.480 OA
ATOM     19  H   UNL     1       3.571   1.381  -1.300  0.00  0.00    +0.295 HD
ENDBRANCH  16  18
ENDBRANCH  12  16
ENDBRANCH  11  12
ENDBRANCH   1  11
TORSDOF 7
