REMARK  Name = 
REMARK  32 active torsions:
REMARK  status: ('A' for Active; 'I' for Inactive)
REMARK    1  A    between atoms: C_1  and  C_2
REMARK    2  A    between atoms: C_2  and  C_3
REMARK    3  A    between atoms: C_2  and  C_4
REMARK    4  A    between atoms: C_2  and  C_40
REMARK    5  A    between atoms: C_4  and  O_5
REMARK    6  A    between atoms: O_5  and  P_6
REMARK    7  A    between atoms: P_6  and  O_7
REMARK    8  A    between atoms: P_6  and  O_9
REMARK    9  A    between atoms: O_9  and  P_10
REMARK   10  A    between atoms: P_10  and  O_11
REMARK   11  A    between atoms: P_10  and  O_13
REMARK   12  A    between atoms: O_13  and  C_14
REMARK   13  A    between atoms: C_14  and  C_15
REMARK   14  A    between atoms: C_18  and  N_30
REMARK   15  A    between atoms: C_20  and  O_22
REMARK   16  A    between atoms: C_23  and  O_25
REMARK   17  A    between atoms: O_25  and  P_26
REMARK   18  A    between atoms: P_26  and  O_27
REMARK   19  A    between atoms: P_26  and  O_28
REMARK   20  A    between atoms: C_40  and  O_42
REMARK   21  A    between atoms: C_40  and  C_43
REMARK   22  A    between atoms: N_45  and  C_46
REMARK   23  A    between atoms: C_46  and  C_47
REMARK   24  A    between atoms: C_47  and  C_48
REMARK   25  A    between atoms: N_50  and  C_51
REMARK   26  A    between atoms: C_51  and  C_52
REMARK   27  A    between atoms: C_52  and  S_53
REMARK   28  A    between atoms: S_53  and  C_54
REMARK   29  A    between atoms: C_54  and  C_55
REMARK   30  A    between atoms: N_57  and  C_58
REMARK   31  A    between atoms: C_58  and  C_59
REMARK   32  A    between atoms: C_59  and  C_60
REMARK                            x       y       z     vdW  Elec       q    Type
REMARK                         _______ _______ _______ _____ _____    ______ ____
ROOT
ATOM      1  O   UNL     1       2.252  -1.513 -12.551  0.00  0.00    -0.286 OA
ENDROOT
BRANCH   1   2
ATOM      2  P   UNL     1       1.818  -2.832 -13.460  0.00  0.00    +0.483 P 
ATOM      3  O   UNL     1       2.334  -2.556 -14.882  0.00  0.00    -0.227 OA
BRANCH   2   4
ATOM      4  O   UNL     1       3.339  -3.582 -13.117  0.00  0.00    -0.302 OA
ATOM      5  H   UNL     1       3.800  -3.587 -13.982  0.00  0.00    +0.222 HD
ENDBRANCH   2   4
BRANCH   2   6
ATOM      6  O   UNL     1       0.297  -2.082 -13.803  0.00  0.00    -0.186 OA
BRANCH   6   7
ATOM      7  P   UNL     1      -0.266  -3.668 -14.131  0.00  0.00    +0.483 P 
ATOM      8  O   UNL     1       0.261  -4.655 -13.115  0.00  0.00    -0.227 OA
BRANCH   7   9
ATOM      9  O   UNL     1       0.313  -3.937 -15.603  0.00  0.00    -0.302 OA
ATOM     10  H   UNL     1       0.120  -3.227 -16.246  0.00  0.00    +0.222 HD
ENDBRANCH   7   9
BRANCH   7  11
ATOM     11  O   UNL     1      -1.823  -4.053 -14.464  0.00  0.00    -0.284 OA
BRANCH  11  12
ATOM     12  C   UNL     1      -1.908  -5.525 -14.312  0.00  0.00    +0.206 C 
BRANCH  12  13
ATOM     13  C   UNL     1      -2.972  -6.406 -14.992  0.00  0.00    +0.179 C 
ATOM     14  C   UNL     1      -4.364  -5.890 -14.798  0.00  0.00    +0.194 C 
ATOM     15  C   UNL     1      -4.830  -5.504 -16.208  0.00  0.00    +0.196 C 
ATOM     16  C   UNL     1      -3.634  -5.738 -17.128  0.00  0.00    +0.253 C 
ATOM     17  O   UNL     1      -2.708  -6.551 -16.401  0.00  0.00    -0.346 OA
BRANCH  16  18
ATOM     18  N   UNL     1      -3.997  -6.396 -18.376  0.00  0.00    -0.286 N 
ATOM     19  C   UNL     1      -4.811  -5.850 -19.349  0.00  0.00    +0.167 A 
ATOM     20  N   UNL     1      -5.508  -4.701 -19.289  0.00  0.00    -0.216 NA
ATOM     21  C   UNL     1      -6.146  -4.481 -20.466  0.00  0.00    +0.225 A 
ATOM     22  N   UNL     1      -6.118  -5.220 -21.596  0.00  0.00    -0.219 NA
ATOM     23  C   UNL     1      -5.410  -6.372 -21.594  0.00  0.00    +0.147 A 
ATOM     24  N   UNL     1      -5.358  -7.127 -22.761  0.00  0.00    -0.341 N 
ATOM     25  H   UNL     1      -4.569  -7.766 -22.786  0.00  0.00    +0.144 HD
ATOM     26  H   UNL     1      -5.526  -6.570 -23.590  0.00  0.00    +0.144 HD
ATOM     27  C   UNL     1      -4.737  -6.736 -20.416  0.00  0.00    +0.147 A 
ATOM     28  N   UNL     1      -3.966  -7.828 -20.092  0.00  0.00    -0.231 NA
ATOM     29  C   UNL     1      -3.561  -7.606 -18.856  0.00  0.00    +0.203 A 
ENDBRANCH  16  18
BRANCH  15  30
ATOM     30  O   UNL     1      -5.252  -4.140 -16.191  0.00  0.00    -0.385 OA
ATOM     31  H   UNL     1      -5.404  -3.855 -17.117  0.00  0.00    +0.210 HD
ENDBRANCH  15  30
BRANCH  14  32
ATOM     32  O   UNL     1      -5.259  -6.888 -14.214  0.00  0.00    -0.278 OA
BRANCH  32  33
ATOM     33  P   UNL     1      -6.742  -6.011 -14.065  0.00  0.00    +0.473 P 
ATOM     34  O   UNL     1      -8.070  -5.225 -13.932  0.00  0.00    -0.228 OA
BRANCH  33  35
ATOM     35  O   UNL     1      -6.494  -6.165 -12.457  0.00  0.00    -0.303 OA
ATOM     36  H   UNL     1      -7.131  -6.842 -12.158  0.00  0.00    +0.222 HD
ENDBRANCH  33  35
BRANCH  33  37
ATOM     37  O   UNL     1      -7.436  -7.488 -14.202  0.00  0.00    -0.303 OA
ATOM     38  H   UNL     1      -7.376  -7.843 -15.105  0.00  0.00    +0.222 HD
ENDBRANCH  33  37
ENDBRANCH  32  33
ENDBRANCH  14  32
ENDBRANCH  12  13
ENDBRANCH  11  12
ENDBRANCH   7  11
ENDBRANCH   6   7
ENDBRANCH   2   6
ENDBRANCH   1   2
BRANCH   1  39
ATOM     39  C   UNL     1       3.176  -0.619 -13.166  0.00  0.00    +0.181 C 
BRANCH  39  41
ATOM     40  C   UNL     1       2.535   1.267 -11.658  0.00  0.00    +0.016 C 
ATOM     41  C   UNL     1       3.735   0.456 -12.208  0.00  0.00    +0.024 C 
ATOM     42  C   UNL     1       4.435  -0.197 -11.003  0.00  0.00    +0.016 C 
BRANCH  41  43
ATOM     43  C   UNL     1       4.731   1.396 -12.976  0.00  0.00    +0.208 C 
BRANCH  43  44
ATOM     44  C   UNL     1       5.908   0.672 -13.693  0.00  0.00    +0.242 C 
ATOM     45  N   UNL     1       7.072   1.417 -13.790  0.00  0.00    -0.313 N 
ATOM     46  H   UNL     1       7.150   2.155 -13.094  0.00  0.00    +0.149 HD
ATOM     47  O   UNL     1       5.824  -0.437 -14.212  0.00  0.00    -0.273 OA
BRANCH  45  48
ATOM     48  C   UNL     1       8.247   0.758 -14.331  0.00  0.00    +0.113 C 
BRANCH  48  49
ATOM     49  C   UNL     1       9.471   1.651 -14.456  0.00  0.00    +0.114 C 
BRANCH  49  50
ATOM     50  C   UNL     1      10.608   0.859 -15.072  0.00  0.00    +0.215 C 
ATOM     51  N   UNL     1      11.759   1.588 -15.273  0.00  0.00    -0.314 N 
ATOM     52  H   UNL     1      11.854   2.498 -14.837  0.00  0.00    +0.149 HD
ATOM     53  O   UNL     1      10.519  -0.327 -15.372  0.00  0.00    -0.276 OA
BRANCH  51  54
ATOM     54  C   UNL     1      12.963   0.936 -15.766  0.00  0.00    +0.115 C 
BRANCH  54  55
ATOM     55  C   UNL     1      13.960   1.916 -16.379  0.00  0.00    +0.088 C 
BRANCH  55  56
ATOM     56  S   UNL     1      14.607   3.185 -15.216  0.00  0.00    -0.150 S 
BRANCH  56  57
ATOM     57  C   UNL     1      15.371   2.148 -13.922  0.00  0.00    +0.164 C 
BRANCH  57  58
ATOM     58  C   UNL     1      16.487   1.263 -14.455  0.00  0.00    +0.223 C 
ATOM     59  N   UNL     1      17.745   1.535 -13.952  0.00  0.00    -0.314 N 
ATOM     60  H   UNL     1      17.907   2.427 -13.496  0.00  0.00    +0.149 HD
ATOM     61  O   UNL     1      16.282   0.349 -15.251  0.00  0.00    -0.275 OA
BRANCH  59  62
ATOM     62  C   UNL     1      18.898   0.842 -14.505  0.00  0.00    +0.109 C 
BRANCH  62  63
ATOM     63  C   UNL     1      20.222   1.208 -13.831  0.00  0.00    +0.056 C 
BRANCH  63  64
ATOM     64  C   UNL     1      20.603   2.648 -14.003  0.00  0.00    -0.021 A 
ATOM     65  C   UNL     1      20.844   3.604 -12.962  0.00  0.00    +0.003 A 
ATOM     66  C   UNL     1      21.168   4.816 -13.573  0.00  0.00    +0.047 A 
ATOM     67  C   UNL     1      21.463   5.976 -12.849  0.00  0.00    +0.026 A 
ATOM     68  C   UNL     1      21.431   5.895 -11.454  0.00  0.00    +0.002 A 
ATOM     69  C   UNL     1      21.117   4.700 -10.813  0.00  0.00    +0.001 A 
ATOM     70  N   UNL     1      21.137   4.606 -14.932  0.00  0.00    -0.360 N 
ATOM     71  H   UNL     1      21.339   5.313 -15.625  0.00  0.00    +0.165 HD
ATOM     72  C   UNL     1      20.821   3.550 -11.553  0.00  0.00    +0.010 A 
ATOM     73  C   UNL     1      20.807   3.306 -15.201  0.00  0.00    +0.087 A 
ENDBRANCH  63  64
ENDBRANCH  62  63
ENDBRANCH  59  62
ENDBRANCH  57  58
ENDBRANCH  56  57
ENDBRANCH  55  56
ENDBRANCH  54  55
ENDBRANCH  51  54
ENDBRANCH  49  50
ENDBRANCH  48  49
ENDBRANCH  45  48
ENDBRANCH  43  44
BRANCH  43  74
ATOM     74  O   UNL     1       5.282   2.405 -12.113  0.00  0.00    -0.382 OA
ATOM     75  H   UNL     1       4.542   2.864 -11.683  0.00  0.00    +0.210 HD
ENDBRANCH  43  74
ENDBRANCH  41  43
ENDBRANCH  39  41
ENDBRANCH   1  39
TORSDOF 30
