REMARK  Name = 
REMARK  3 active torsions:
REMARK  status: ('A' for Active; 'I' for Inactive)
REMARK    1  A    between atoms: N_4  and  C_5
REMARK    2  A    between atoms: C_8  and  C_11
REMARK    3  A    between atoms: C_11  and  O_12
REMARK                            x       y       z     vdW  Elec       q    Type
REMARK                         _______ _______ _______ _____ _____    ______ ____
ROOT
ATOM      1  C   UNL     1       4.601  -1.169   0.165  0.00  0.00    +0.100 A 
ATOM      2  C   UNL     1       5.312  -2.370   0.047  0.00  0.00    +0.043 A 
ATOM      3  C   UNL     1       6.704  -2.382  -0.080  0.00  0.00    +0.018 A 
ATOM      4  C   UNL     1       7.415  -1.181  -0.091  0.00  0.00    +0.059 A 
ATOM      5  C   UNL     1       6.731   0.027   0.085  0.00  0.00    +0.018 A 
ATOM      6  C   UNL     1       5.336   0.028   0.212  0.00  0.00    +0.043 A 
ENDROOT
BRANCH   1  11
ATOM      7  N   UNL     1       1.038  -1.627  -0.181  0.00  0.00    -0.289 N 
ATOM      8  H   UNL     1       0.840  -1.288   0.753  0.00  0.00    +0.255 HD
ATOM      9  H   UNL     1       0.364  -2.337  -0.447  0.00  0.00    +0.255 HD
ATOM     10  C   UNL     1       2.331  -1.991  -0.369  0.00  0.00    +0.381 C 
ATOM     11  N   UNL     1       3.194  -1.122   0.237  0.00  0.00    -0.244 N 
ATOM     12  H   UNL     1       2.821  -0.192   0.365  0.00  0.00    +0.265 HD
ATOM     13  N   UNL     1       2.627  -3.028  -1.065  0.00  0.00    -0.129 NA
ATOM     14  H   UNL     1       1.785  -3.468  -1.431  0.00  0.00    +0.306 HD
ENDBRANCH   1  11
BRANCH   4  15
ATOM     15  C   UNL     1       8.888  -1.242  -0.260  0.00  0.00    +0.337 C 
ATOM     16  O   UNL     1       9.568  -2.167   0.150  0.00  0.00    -0.245 OA
BRANCH  15  17
ATOM     17  O   UNL     1       9.394  -0.202  -0.954  0.00  0.00    -0.477 OA
ATOM     18  H   UNL     1       8.728   0.349  -1.405  0.00  0.00    +0.295 HD
ENDBRANCH  15  17
ENDBRANCH   4  15
TORSDOF 3
