REMARK  Name = 
REMARK  2 active torsions:
REMARK  status: ('A' for Active; 'I' for Inactive)
REMARK    1  A    between atoms: C_1  and  C_2
REMARK    2  A    between atoms: C_9  and  O_10
REMARK                            x       y       z     vdW  Elec       q    Type
REMARK                         _______ _______ _______ _____ _____    ______ ____
ROOT
ATOM      1  C   UNL     1       0.964  -0.077   0.118  0.00  0.00    +0.086 C 
ATOM      2  C   UNL     1       2.464  -0.040   0.095  0.00  0.00    +0.107 A 
ATOM      3  N   UNL     1       3.081  -1.259   0.057  0.00  0.00    -0.311 N 
ATOM      4  H   UNL     1       2.546  -2.115   0.079  0.00  0.00    +0.170 HD
ATOM      5  C   UNL     1       4.442  -1.405   0.014  0.00  0.00    +0.259 A 
ATOM      6  O   UNL     1       4.979  -2.508   0.009  0.00  0.00    -0.267 OA
ATOM      7  C   UNL     1       5.219  -0.154  -0.028  0.00  0.00    +0.068 A 
ATOM      8  C   UNL     1       6.614  -0.183  -0.136  0.00  0.00    +0.015 A 
ATOM      9  C   UNL     1       7.324   1.015  -0.186  0.00  0.00    +0.004 A 
ATOM     10  C   UNL     1       6.643   2.231  -0.107  0.00  0.00    +0.047 A 
ATOM     11  C   UNL     1       5.249   2.243   0.010  0.00  0.00    +0.143 A 
ATOM     12  C   UNL     1       4.510   1.050   0.035  0.00  0.00    +0.119 A 
ATOM     13  N   UNL     1       3.101   1.082   0.101  0.00  0.00    -0.230 NA
ENDROOT
BRANCH  11  14
ATOM     14  O   UNL     1       4.589   3.441   0.098  0.00  0.00    -0.505 OA
ATOM     15  H   UNL     1       5.236   4.158   0.182  0.00  0.00    +0.292 HD
ENDBRANCH  11  14
TORSDOF 1
