REMARK  Name = 
REMARK  25 active torsions:
REMARK  status: ('A' for Active; 'I' for Inactive)
REMARK    1  A    between atoms: C_4  and  O_5
REMARK    2  A    between atoms: C_8  and  C_9
REMARK    3  A    between atoms: C_9  and  C_10
REMARK    4  A    between atoms: C_10  and  O_11
REMARK    5  A    between atoms: C_10  and  C_12
REMARK    6  A    between atoms: C_10  and  C_35
REMARK    7  A    between atoms: C_12  and  N_13
REMARK    8  A    between atoms: N_13  and  C_14
REMARK    9  A    between atoms: C_14  and  C_15
REMARK   10  A    between atoms: N_17  and  C_18
REMARK   11  A    between atoms: C_21  and  C_23
REMARK   12  A    between atoms: C_23  and  O_24
REMARK   13  A    between atoms: O_24  and  P_25
REMARK   14  A    between atoms: P_25  and  O_26
REMARK   15  A    between atoms: P_25  and  O_27
REMARK   16  A    between atoms: C_29  and  O_31
REMARK   17  A    between atoms: C_32  and  O_34
REMARK   18  A    between atoms: C_38  and  C_41
REMARK   19  A    between atoms: N_43  and  CA_44
REMARK   20  A    between atoms: CA_44  and  CB_46
REMARK   21  A    between atoms: CA_44  and  C_51
REMARK   22  A    between atoms: CB_46  and  CG_47
REMARK   23  A    between atoms: CG_47  and  CD_48
REMARK   24  A    between atoms: CD_48  and  OE1_49
REMARK   25  A    between atoms: C_51  and  O_52
REMARK                            x       y       z     vdW  Elec       q    Type
REMARK                         _______ _______ _______ _____ _____    ______ ____
ROOT
ATOM      1  C   UNK A   0      -2.002   0.919  -3.927  0.00  0.00    +0.107 C 
ENDROOT
BRANCH   1   2
ATOM      2  C   UNK A   0      -2.089   1.916  -2.764  0.00  0.00    -0.015 A 
ATOM      3  C   UNK A   0      -1.253   1.758  -1.647  0.00  0.00    +0.007 A 
ATOM      4  C   UNK A   0      -1.295   2.654  -0.581  0.00  0.00    +0.013 A 
ATOM      5  C   UNK A   0      -2.157   3.755  -0.616  0.00  0.00    +0.037 A 
ATOM      6  C   UNK A   0      -3.037   3.891  -1.696  0.00  0.00    +0.013 A 
ATOM      7  C   UNK A   0      -3.007   2.978  -2.757  0.00  0.00    +0.007 A 
BRANCH   5   8
ATOM      8  C   UNK A   0      -2.138   4.816   0.436  0.00  0.00    +0.245 C 
ATOM      9  N   GLU A   1      -1.135   4.742   1.385  0.00  0.00    -0.298 N 
ATOM     10  H   GLU A   1      -0.351   4.122   1.225  0.00  0.00    +0.150 HD
ATOM     11  O   UNK A   0      -2.942   5.740   0.409  0.00  0.00    -0.270 OA
BRANCH   9  12
ATOM     12  CA  GLU A   1      -0.858   5.853   2.313  0.00  0.00    +0.182 C 
BRANCH  12  13
ATOM     13  C   GLU A   1      -0.474   5.248   3.675  0.00  0.00    +0.325 C 
ATOM     14  OXT GLU A   1       0.124   5.832   4.564  0.00  0.00    -0.249 OA
BRANCH  13  15
ATOM     15  O   GLU A   1      -0.935   3.977   3.827  0.00  0.00    -0.479 OA
ATOM     16  H   GLU A   1      -1.505   3.745   3.064  0.00  0.00    +0.295 HD
ENDBRANCH  13  15
ENDBRANCH  12  13
BRANCH  12  17
ATOM     17  CB  GLU A   1       0.265   6.752   1.783  0.00  0.00    +0.045 C 
BRANCH  17  18
ATOM     18  CG  GLU A   1      -0.065   7.408   0.440  0.00  0.00    +0.123 C 
BRANCH  18  19
ATOM     19  CD  GLU A   1       1.043   8.321  -0.026  0.00  0.00    +0.305 C 
ATOM     20  OE2 GLU A   1       2.100   8.497   0.557  0.00  0.00    -0.251 OA
BRANCH  19  21
ATOM     21  OE1 GLU A   1       0.757   8.916  -1.206  0.00  0.00    -0.481 OA
ATOM     22  HE1 GLU A   1      -0.123   8.686  -1.564  0.00  0.00    +0.295 HD
ENDBRANCH  19  21
ENDBRANCH  18  19
ENDBRANCH  17  18
ENDBRANCH  12  17
ENDBRANCH   9  12
ENDBRANCH   5   8
ENDBRANCH   1   2
BRANCH   1  23
ATOM     23  O   UNK A   0      -2.958   1.262  -4.945  0.00  0.00    -0.382 OA
ATOM     24  H   UNK A   0      -2.738   0.772  -5.755  0.00  0.00    +0.211 HD
ENDBRANCH   1  23
BRANCH   1  25
ATOM     25  C   UNK A   0      -2.355  -0.522  -3.383  0.00  0.00    +0.121 C 
BRANCH  25  26
ATOM     26  N   UNK A   0      -3.632  -0.660  -2.617  0.00  0.00    -0.305 NA
ATOM     27  H   UNK A   0      -3.653   0.092  -1.921  0.00  0.00    +0.122 HD
BRANCH  26  28
ATOM     28  C   UNK A   0      -4.785  -0.441  -3.517  0.00  0.00    +0.177 C 
BRANCH  28  29
ATOM     29  C   UNK A   0      -6.133  -0.532  -2.824  0.00  0.00    +0.229 C 
ATOM     30  N   UNK A   0      -6.126  -0.655  -1.463  0.00  0.00    -0.287 N 
ATOM     31  H   UNK A   0      -5.277  -1.061  -1.087  0.00  0.00    +0.151 HD
ATOM     32  O   UNK A   0      -7.171  -0.436  -3.494  0.00  0.00    -0.274 OA
BRANCH  30  33
ATOM     33  C   UNK A   0      -7.318  -0.785  -0.658  0.00  0.00    +0.237 C 
ATOM     34  C   UNK A   0      -8.544   0.087  -1.021  0.00  0.00    +0.192 C 
ATOM     35  C   UNK A   0      -9.554  -0.902  -1.612  0.00  0.00    +0.178 C 
ATOM     36  C   UNK A   0      -8.784  -2.219  -1.708  0.00  0.00    +0.178 C 
ATOM     37  O   UNK A   0      -7.743  -2.149  -0.715  0.00  0.00    -0.348 OA
BRANCH  35  38
ATOM     38  O   UNK A   0     -10.120  -0.453  -2.839  0.00  0.00    -0.386 OA
ATOM     39  H   UNK A   0     -10.030  -1.142  -3.519  0.00  0.00    +0.210 HD
ENDBRANCH  35  38
BRANCH  34  40
ATOM     40  O   UNK A   0      -9.097   0.677   0.176  0.00  0.00    -0.385 OA
ATOM     41  H   UNK A   0      -9.365  -0.044   0.773  0.00  0.00    +0.210 HD
ENDBRANCH  34  40
BRANCH  36  42
ATOM     42  C   UNK A   0      -9.685  -3.420  -1.446  0.00  0.00    +0.206 C 
BRANCH  42  43
ATOM     43  O   UNK A   0      -8.914  -4.615  -1.543  0.00  0.00    -0.284 OA
BRANCH  43  44
ATOM     44  P   UNK A   0      -9.842  -6.066  -1.383  0.00  0.00    +0.472 P 
ATOM     45  O   UNK A   0     -10.673  -7.365  -1.240  0.00  0.00    -0.228 OA
BRANCH  44  46
ATOM     46  O   UNK A   0      -8.400  -6.822  -1.473  0.00  0.00    -0.303 OA
ATOM     47  H   UNK A   0      -7.715  -6.140  -1.603  0.00  0.00    +0.222 HD
ENDBRANCH  44  46
BRANCH  44  48
ATOM     48  O   UNK A   0      -9.856  -5.759   0.221  0.00  0.00    -0.303 OA
ATOM     49  H   UNK A   0     -10.453  -6.417   0.627  0.00  0.00    +0.222 HD
ENDBRANCH  44  48
ENDBRANCH  43  44
ENDBRANCH  42  43
ENDBRANCH  36  42
ENDBRANCH  30  33
ENDBRANCH  28  29
ENDBRANCH  26  28
ENDBRANCH  25  26
ENDBRANCH   1  25
BRANCH   1  50
ATOM     50  C   UNK A   0      -0.589   0.927  -4.602  0.00  0.00    +0.076 C 
BRANCH  50  59
ATOM     51  N   UNK A   0      -0.397   7.655  -8.505  0.00  0.00    -0.327 N 
ATOM     52  H   UNK A   0       0.269   8.198  -7.969  0.00  0.00    +0.145 HD
ATOM     53  H   UNK A   0      -0.342   7.700  -9.504  0.00  0.00    +0.145 HD
ATOM     54  C   UNK A   0      -0.410   6.346  -8.063  0.00  0.00    +0.216 A 
ATOM     55  N   UNK A   0       0.051   6.115  -6.833  0.00  0.00    -0.214 NA
ATOM     56  C   UNK A   0      -0.004   4.859  -6.372  0.00  0.00    +0.080 A 
ATOM     57  C   UNK A   0      -0.506   3.808  -7.132  0.00  0.00    +0.062 A 
ATOM     58  C   UNK A   0      -0.616   2.504  -6.590  0.00  0.00    +0.019 A 
ATOM     59  C   UNK A   0      -0.257   2.256  -5.262  0.00  0.00    -0.043 A 
ATOM     60  C   UNK A   0       0.308   3.300  -4.526  0.00  0.00    +0.006 A 
ATOM     61  C   UNK A   0      -0.904   4.174  -8.405  0.00  0.00    +0.225 A 
ATOM     62  C   UNK A   0       0.422   4.583  -5.083  0.00  0.00    +0.029 A 
ATOM     63  N   UNK A   0      -0.865   5.420  -8.907  0.00  0.00    -0.179 NA
BRANCH  61  64
ATOM     64  O   UNK A   0      -1.413   3.267  -9.279  0.00  0.00    -0.492 OA
ATOM     65  H   UNK A   0      -1.611   3.847 -10.037  0.00  0.00    +0.294 HD
ENDBRANCH  61  64
ENDBRANCH  50  59
ENDBRANCH   1  50
TORSDOF 25
