REMARK  Name = 
REMARK  9 active torsions:
REMARK  status: ('A' for Active; 'I' for Inactive)
REMARK    1  A    between atoms: N_1  and  C_2
REMARK    2  A    between atoms: C_4  and  O_6
REMARK    3  A    between atoms: C_8  and  C_10
REMARK    4  A    between atoms: C_10  and  O_11
REMARK    5  A    between atoms: C_12  and  O_14
REMARK    6  A    between atoms: O_14  and  P_15
REMARK    7  A    between atoms: P_15  and  O_16
REMARK    8  A    between atoms: P_15  and  O_17
REMARK    9  A    between atoms: C_19  and  O_21
REMARK                            x       y       z     vdW  Elec       q    Type
REMARK                         _______ _______ _______ _____ _____    ______ ____
ROOT
ATOM      1  C   UNL     1       2.318  -0.041   0.304  0.00  0.00    +0.139 C 
ATOM      2  C   UNL     1       2.766   1.046  -0.698  0.00  0.00    +0.168 C 
ATOM      3  C   UNL     1       2.468   0.651  -2.148  0.00  0.00    +0.191 C 
ATOM      4  C   UNL     1       2.996  -0.781  -2.453  0.00  0.00    +0.178 C 
ATOM      5  O   UNL     1       2.612  -1.737  -1.474  0.00  0.00    -0.342 OA
ATOM      6  C   UNL     1       2.941  -1.403  -0.126  0.00  0.00    +0.267 C 
ENDROOT
BRANCH   1   7
ATOM      7  N   UNL     1       0.847  -0.081   0.422  0.00  0.00    -0.321 NA
ATOM      8  H   UNL     1       0.436  -0.203  -0.508  0.00  0.00    +0.119 HD
ATOM      9  H   UNL     1       0.563  -0.892   0.970  0.00  0.00    +0.119 HD
ENDBRANCH   1   7
BRANCH   2  10
ATOM     10  O   UNL     1       4.183   1.247  -0.527  0.00  0.00    -0.387 OA
ATOM     11  H   UNL     1       4.432   2.015  -1.076  0.00  0.00    +0.210 HD
ENDBRANCH   2  10
BRANCH   6  12
ATOM     12  O   UNL     1       4.344  -1.458   0.085  0.00  0.00    -0.366 OA
ATOM     13  H   UNL     1       4.663  -0.535   0.097  0.00  0.00    +0.213 HD
ENDBRANCH   6  12
BRANCH   3  14
ATOM     14  O   UNL     1       1.044   0.727  -2.433  0.00  0.00    -0.278 OA
BRANCH  14  15
ATOM     15  P   UNL     1       0.861   0.391  -4.120  0.00  0.00    +0.473 P 
ATOM     16  O   UNL     1       0.697   0.090  -5.630  0.00  0.00    -0.228 OA
BRANCH  15  17
ATOM     17  O   UNL     1       0.606   2.001  -4.244  0.00  0.00    -0.303 OA
ATOM     18  H   UNL     1      -0.335   2.141  -4.034  0.00  0.00    +0.222 HD
ENDBRANCH  15  17
BRANCH  15  19
ATOM     19  O   UNL     1      -0.696   0.053  -3.738  0.00  0.00    -0.303 OA
ATOM     20  H   UNL     1      -0.806  -0.882  -3.487  0.00  0.00    +0.222 HD
ENDBRANCH  15  19
ENDBRANCH  14  15
ENDBRANCH   3  14
BRANCH   4  21
ATOM     21  C   UNL     1       4.481  -0.836  -2.856  0.00  0.00    +0.190 C 
BRANCH  21  22
ATOM     22  O   UNL     1       4.665   0.021  -3.983  0.00  0.00    -0.392 OA
ATOM     23  H   UNL     1       5.418  -0.323  -4.495  0.00  0.00    +0.210 HD
ENDBRANCH  21  22
ENDBRANCH   4  21
TORSDOF 9
