REMARK  Name = 
REMARK  3 active torsions:
REMARK  status: ('A' for Active; 'I' for Inactive)
REMARK    1  A    between atoms: C_11  and  C_12
REMARK    2  A    between atoms: C_12  and  O_13
REMARK    3  A    between atoms: O_13  and  P_14
REMARK                            x       y       z     vdW  Elec       q    Type
REMARK                         _______ _______ _______ _____ _____    ______ ____
ROOT
ATOM      1  N   UNL     1       0.860   0.650   0.515  0.00  0.00    +0.000 N 
ATOM      2  H   UNL     1       0.203   0.068   1.061  0.00  0.00    +0.000 HD
ATOM      3  H   UNL     1       0.472   1.327  -0.156  0.00  0.00    +0.000 HD
ATOM      4  C   UNL     1       2.208   0.241   0.408  0.00  0.00    +0.000 A 
ATOM      5  N   UNL     1       2.647  -0.794   1.163  0.00  0.00    +0.000 N 
ATOM      6  H   UNL     1       2.046  -1.208   1.917  0.00  0.00    +0.000 HD
ATOM      7  C   UNL     1       3.811  -1.392   0.869  0.00  0.00    +0.000 A 
ATOM      8  N   UNL     1       4.195  -2.587   1.492  0.00  0.00    +0.000 N 
ATOM      9  H   UNL     1       5.051  -2.528   2.070  0.00  0.00    +0.000 HD
ATOM     10  C   UNL     1       4.187  -3.726   0.623  0.00  0.00    +0.000 C 
ATOM     11  C   UNL     1       4.485  -3.317  -0.840  0.00  0.00    +0.000 C 
ATOM     12  N   UNL     1       5.309  -2.085  -0.879  0.00  0.00    +0.000 N 
ATOM     13  H   UNL     1       5.906  -1.894  -1.701  0.00  0.00    +0.000 HD
ATOM     14  C   UNL     1       4.752  -4.508  -1.717  0.00  0.00    +0.000 C 
ATOM     15  S   UNL     1       4.724  -4.229  -3.502  0.00  0.00    +0.000 S 
ATOM     16 MO   UNL     1       3.783  -6.409  -4.112  0.00  0.00    +0.000 Mo
ATOM     17  S   UNL     1       4.936  -7.258  -2.131  0.00  0.00    +0.000 S 
ATOM     18  O   UNL     1       5.278  -6.729  -5.063  0.00  0.00    +0.000 OA
ATOM     19  O   UNL     1       2.085  -6.075  -3.070  0.00  0.00    -1.000 OA
ATOM     20  C   UNL     1       4.822  -5.745  -1.146  0.00  0.00    +0.000 C 
ATOM     21  C   UNL     1       4.834  -5.911   0.393  0.00  0.00    +0.000 C 
ATOM     22  O   UNL     1       5.107  -4.692   1.056  0.00  0.00    +0.000 OA
ATOM     23  C   UNL     1       4.524  -1.038  -0.277  0.00  0.00    +0.000 A 
ATOM     24  C   UNL     1       4.168   0.129  -0.928  0.00  0.00    +0.000 A 
ATOM     25  O   UNL     1       4.792   0.534  -1.902  0.00  0.00    +0.000 OA
ATOM     26  N   UNL     1       3.004   0.752  -0.580  0.00  0.00    +0.000 NA
ENDROOT
BRANCH  21  27
ATOM     27  C   UNL     1       3.593  -6.614   1.038  0.00  0.00    +0.000 C 
BRANCH  27  28
ATOM     28  O   UNL     1       3.387  -7.798   0.367  0.00  0.00    +0.000 OA
BRANCH  28  29
ATOM     29  P   UNL     1       2.074  -8.735   0.993  0.00  0.00    +0.000 P 
ATOM     30  O   UNL     1       0.899  -9.573   1.554  0.00  0.00    -0.660 OA
ATOM     31  O   UNL     1       2.906 -10.188   0.537  0.00  0.00    -0.660 OA
ATOM     32  O   UNL     1       1.250  -8.579  -0.526  0.00  0.00    -0.660 OA
ENDBRANCH  28  29
ENDBRANCH  27  28
ENDBRANCH  21  27
TORSDOF 3
