REMARK  Name = 
REMARK  7 active torsions:
REMARK  status: ('A' for Active; 'I' for Inactive)
REMARK    1  A    between atoms: C_1  and  C_2
REMARK    2  A    between atoms: C_2  and  S_4
REMARK    3  A    between atoms: S_4  and  C_5
REMARK    4  A    between atoms: C_5  and  C_6
REMARK    5  A    between atoms: C_6  and  N_8
REMARK    6  A    between atoms: C_6  and  C_9
REMARK    7  A    between atoms: C_9  and  O_10
REMARK                            x       y       z     vdW  Elec       q    Type
REMARK                         _______ _______ _______ _____ _____    ______ ____
ROOT
ATOM      1  C   UNK     1       6.022   2.445  -0.708  0.00  0.00    +0.171 C 
ENDROOT
BRANCH   1   2
ATOM      2  N   UNK     1       5.802   3.564   0.263  0.00  0.00    -0.318 NA
ATOM      3  H   UNK     1       6.198   4.416  -0.150  0.00  0.00    +0.119 HD
ATOM      4  H   UNK     1       4.790   3.742   0.283  0.00  0.00    +0.119 HD
ENDBRANCH   1   2
BRANCH   1   5
ATOM      5  C   UNK     1       7.501   2.046  -0.647  0.00  0.00    +0.323 C 
ATOM      6  O   UNK     1       8.101   1.443  -1.521  0.00  0.00    -0.249 OA
BRANCH   5   7
ATOM      7  O   UNK     1       8.068   2.428   0.528  0.00  0.00    -0.480 OA
ATOM      8  H   UNK     1       7.369   2.918   1.029  0.00  0.00    +0.295 HD
ENDBRANCH   5   7
ENDBRANCH   1   5
BRANCH   1   9
ATOM      9  C   UNK     1       5.178   1.207  -0.380  0.00  0.00    +0.107 C 
BRANCH   9  10
ATOM     10  S   UNK     1       3.398   1.576  -0.553  0.00  0.00    -0.086 S 
BRANCH  10  12
ATOM     11  C   UNK     1       1.237  -0.059  -0.128  0.00  0.00    +0.099 C 
ATOM     12  C   UNK     1       2.737   0.012  -0.076  0.00  0.00    +0.186 C 
ATOM     13  O   UNK     1       3.448  -0.920   0.271  0.00  0.00    -0.286 OA
ENDBRANCH  10  12
ENDBRANCH   9  10
ENDBRANCH   1   9
TORSDOF 6
