REMARK  Name = 
REMARK  7 active torsions:
REMARK  status: ('A' for Active; 'I' for Inactive)
REMARK    1  A    between atoms: C_1  and  C_2
REMARK    2  A    between atoms: C_3  and  C_4
REMARK    3  A    between atoms: C_4  and  CA_5
REMARK    4  A    between atoms: CA_5  and  N_7
REMARK    5  A    between atoms: CA_5  and  C_8
REMARK    6  A    between atoms: C_8  and  O_9
REMARK    7  A    between atoms: C_11  and  O_12
REMARK                            x       y       z     vdW  Elec       q    Type
REMARK                         _______ _______ _______ _____ _____    ______ ____
ROOT
ATOM      1  C   UNL     1       1.033   2.860  -1.352  0.00  0.00    +0.074 C 
ENDROOT
BRANCH   1   7
ATOM      2  C   UNL     1       1.480   3.792  -4.576  0.00  0.00    +0.089 C 
ATOM      3  C   UNL     1       0.775   4.405  -3.433  0.00  0.00    +0.141 A 
ATOM      4  O   UNL     1       0.128   5.567  -3.729  0.00  0.00    -0.356 OA
ATOM      5  N   UNL     1      -0.524   6.034  -2.603  0.00  0.00    -0.040 NA
ATOM      6  C   UNL     1      -0.243   5.144  -1.662  0.00  0.00    +0.256 A 
ATOM      7  C   UNL     1       0.574   4.081  -2.101  0.00  0.00    +0.059 A 
BRANCH   6   8
ATOM      8  O   UNL     1      -0.746   5.381  -0.447  0.00  0.00    -0.490 OA
ATOM      9  H   UNL     1      -0.280   4.817   0.200  0.00  0.00    +0.294 HD
ENDBRANCH   6   8
ENDBRANCH   1   7
BRANCH   1  10
ATOM     10  CA  UNL     1       1.755   3.089  -0.015  0.00  0.00    +0.165 C 
BRANCH  10  11
ATOM     11  N   UNL     1       0.977   3.899   0.982  0.00  0.00    -0.318 NA
ATOM     12  H1  UNL     1       0.270   3.266   1.385  0.00  0.00    +0.119 HD
ATOM     13  H2  UNL     1       1.595   4.063   1.791  0.00  0.00    +0.119 HD
ENDBRANCH  10  11
BRANCH  10  14
ATOM     14  C   UNL     1       3.137   3.702  -0.261  0.00  0.00    +0.322 C 
ATOM     15  OXT UNL     1       4.108   3.061  -0.634  0.00  0.00    -0.249 OA
BRANCH  14  16
ATOM     16  O   UNL     1       3.176   5.031  -0.007  0.00  0.00    -0.480 OA
ATOM     17  H   UNL     1       2.280   5.356   0.227  0.00  0.00    +0.295 HD
ENDBRANCH  14  16
ENDBRANCH  10  14
ENDBRANCH   1  10
TORSDOF 6
