REMARK  Name = 
REMARK  10 active torsions:
REMARK  status: ('A' for Active; 'I' for Inactive)
REMARK    1  A    between atoms: C_1  and  C_2
REMARK    2  A    between atoms: C_6  and  O_8
REMARK    3  A    between atoms: C_10  and  C_12
REMARK    4  A    between atoms: N_14  and  C_15
REMARK    5  A    between atoms: C_15  and  C_17
REMARK    6  A    between atoms: C_15  and  C_24
REMARK    7  A    between atoms: C_17  and  C_18
REMARK    8  A    between atoms: C_18  and  C_19
REMARK    9  A    between atoms: C_19  and  N_20
REMARK   10  A    between atoms: C_24  and  C_26
REMARK                            x       y       z     vdW  Elec       q    Type
REMARK                         _______ _______ _______ _____ _____    ______ ____
ROOT
ATOM      1  C   UNL     1       6.043  -3.692   0.182  0.00  0.00    +0.146 C 
ENDROOT
BRANCH   1   3
ATOM      2  C   UNL     1       3.556  -3.421   0.138  0.00  0.00    +0.234 C 
ATOM      3  N   UNL     1       4.704  -3.796   0.787  0.00  0.00    -0.304 N 
ATOM      4  H   UNL     1       4.630  -4.157   1.737  0.00  0.00    +0.149 HD
ATOM      5  O   UNL     1       3.561  -3.013  -1.024  0.00  0.00    -0.274 OA
BRANCH   2   9
ATOM      6  C   UNL     1       2.487  -6.369   1.557  0.00  0.00    +0.109 C 
ATOM      7  C   UNL     1       2.327  -5.360   2.667  0.00  0.00    +0.213 C 
ATOM      8  N   UNL     1       2.435  -4.025   2.325  0.00  0.00    -0.288 N 
ATOM      9  C   UNL     1       2.264  -3.463   0.978  0.00  0.00    +0.164 C 
ATOM     10  C   UNL     1       1.760  -2.029   1.200  0.00  0.00    +0.065 C 
ATOM     11  C   UNL     1       1.421  -1.936   2.686  0.00  0.00    +0.134 C 
ATOM     12  C   UNL     1       2.306  -2.990   3.336  0.00  0.00    +0.140 C 
ATOM     13  O   UNL     1       2.166  -5.730   3.826  0.00  0.00    -0.276 OA
BRANCH  11  14
ATOM     14  O   UNL     1       1.656  -0.629   3.185  0.00  0.00    -0.390 OA
ATOM     15  H   UNL     1       2.565  -0.362   2.961  0.00  0.00    +0.210 HD
ENDBRANCH  11  14
ENDBRANCH   2   9
ENDBRANCH   1   3
BRANCH   1  16
ATOM     16  C   UNL     1       6.955  -3.332   1.369  0.00  0.00    +0.208 C 
ATOM     17  O   UNL     1       6.991  -4.087   2.348  0.00  0.00    -0.288 OA
BRANCH  16  18
ATOM     18  C   UNL     1       7.704  -2.087   1.268  0.00  0.00    +0.147 A 
ATOM     19  S   UNL     1       8.784  -1.624   2.513  0.00  0.00    -0.064 S 
ATOM     20  C   UNL     1       9.101  -0.149   1.686  0.00  0.00    +0.040 A 
ATOM     21  C   UNL     1       9.899   0.934   2.086  0.00  0.00    +0.017 A 
ATOM     22  C   UNL     1       9.957   2.054   1.252  0.00  0.00    +0.001 A 
ATOM     23  C   UNL     1       9.274   2.078   0.040  0.00  0.00    +0.002 A 
ATOM     24  C   UNL     1       8.507   0.979  -0.364  0.00  0.00    +0.029 A 
ATOM     25  C   UNL     1       8.401  -0.146   0.478  0.00  0.00    +0.079 A 
ATOM     26  N   UNL     1       7.628  -1.273   0.238  0.00  0.00    -0.236 NA
ENDBRANCH  16  18
ENDBRANCH   1  16
BRANCH   1  27
ATOM     27  C   UNL     1       6.421  -5.029  -0.496  0.00  0.00    +0.033 C 
BRANCH  27  28
ATOM     28  C   UNL     1       7.787  -5.079  -1.217  0.00  0.00    +0.039 C 
BRANCH  28  29
ATOM     29  C   UNL     1       8.956  -5.021  -0.244  0.00  0.00    +0.196 C 
BRANCH  29  30
ATOM     30  N   UNL     1      10.257  -5.204  -0.860  0.00  0.00    -0.276 N 
ATOM     31  H   UNL     1      10.299  -4.930  -1.838  0.00  0.00    +0.258 HD
ATOM     32  C   UNL     1      11.378  -4.850  -0.185  0.00  0.00    +0.376 C 
ATOM     33  N   UNL     1      11.509  -4.598   1.065  0.00  0.00    -0.130 NA
ATOM     34  H   UNL     1      10.622  -4.714   1.549  0.00  0.00    +0.306 HD
ATOM     35  N   UNL     1      12.458  -4.764  -0.979  0.00  0.00    -0.289 N 
ATOM     36  H   UNL     1      13.282  -4.655  -0.397  0.00  0.00    +0.255 HD
ATOM     37  H   UNL     1      12.564  -5.567  -1.589  0.00  0.00    +0.255 HD
ENDBRANCH  29  30
ENDBRANCH  28  29
ENDBRANCH  27  28
ENDBRANCH   1  27
TORSDOF 9
