REMARK  Name = 
REMARK  11 active torsions:
REMARK  status: ('A' for Active; 'I' for Inactive)
REMARK    1  A    between atoms: C_1  and  C_2
REMARK    2  A    between atoms: C_2  and  C_3
REMARK    3  A    between atoms: C_3  and  C_4
REMARK    4  A    between atoms: C_4  and  C_5
REMARK    5  A    between atoms: C_5  and  O_6
REMARK    6  A    between atoms: O_6  and  C_7
REMARK    7  A    between atoms: C_10  and  C_12
REMARK    8  A    between atoms: C_12  and  O_13
REMARK    9  A    between atoms: C_14  and  O_16
REMARK   10  A    between atoms: C_17  and  O_19
REMARK   11  A    between atoms: C_20  and  O_22
REMARK                            x       y       z     vdW  Elec       q    Type
REMARK                         _______ _______ _______ _____ _____    ______ ____
ROOT
ATOM      1  C   UNL     1       6.926   2.764  -3.158  0.00  0.00    +0.282 C 
ATOM      2  C   UNL     1       7.527   4.031  -2.507  0.00  0.00    +0.201 C 
ATOM      3  C   UNL     1       6.417   4.921  -1.934  0.00  0.00    +0.179 C 
ATOM      4  C   UNL     1       5.428   5.279  -3.048  0.00  0.00    +0.177 C 
ATOM      5  C   UNL     1       4.875   4.030  -3.753  0.00  0.00    +0.178 C 
ATOM      6  O   UNL     1       5.827   2.994  -4.045  0.00  0.00    -0.341 OA
ENDROOT
BRANCH   2   7
ATOM      7  O   UNL     1       8.359   4.753  -3.428  0.00  0.00    -0.384 OA
ATOM      8  H   UNL     1       7.843   5.519  -3.758  0.00  0.00    +0.210 HD
ENDBRANCH   2   7
BRANCH   3   9
ATOM      9  O   UNL     1       5.713   4.323  -0.847  0.00  0.00    -0.386 OA
ATOM     10  H   UNL     1       6.305   3.677  -0.418  0.00  0.00    +0.210 HD
ENDBRANCH   3   9
BRANCH   4  11
ATOM     11  O   UNL     1       6.100   6.116  -4.004  0.00  0.00    -0.386 OA
ATOM     12  H   UNL     1       5.437   6.405  -4.664  0.00  0.00    +0.210 HD
ENDBRANCH   4  11
BRANCH   1  13
ATOM     13  O   UNL     1       6.632   1.842  -2.103  0.00  0.00    -0.349 OA
BRANCH  13  14
ATOM     14  C   UNL     1       6.206   0.544  -2.503  0.00  0.00    +0.163 C 
BRANCH  14  15
ATOM     15  C   UNL     1       7.177  -0.252  -3.376  0.00  0.00    +0.028 C 
BRANCH  15  16
ATOM     16  C   UNL     1       6.570  -1.624  -3.697  0.00  0.00    +0.002 C 
BRANCH  16  18
ATOM     17  C   UNL     1       6.724  -3.788  -4.949  0.00  0.00    +0.004 C 
ATOM     18  C   UNL     1       7.432  -2.477  -4.626  0.00  0.00    -0.003 C 
ENDBRANCH  16  18
ENDBRANCH  15  16
ENDBRANCH  14  15
ENDBRANCH  13  14
ENDBRANCH   1  13
BRANCH   5  19
ATOM     19  C   UNL     1       3.622   3.465  -3.071  0.00  0.00    +0.190 C 
BRANCH  19  20
ATOM     20  O   UNL     1       2.968   2.546  -3.950  0.00  0.00    -0.392 OA
ATOM     21  H   UNL     1       3.673   1.993  -4.336  0.00  0.00    +0.210 HD
ENDBRANCH  19  20
ENDBRANCH   5  19
TORSDOF 10
