REMARK  Name = 
REMARK  8 active torsions:
REMARK  status: ('A' for Active; 'I' for Inactive)
REMARK    1  A    between atoms: C_1  and  C_2
REMARK    2  A    between atoms: C_9  and  O_10
REMARK    3  A    between atoms: O_10  and  C_11
REMARK    4  A    between atoms: C_14  and  C_16
REMARK    5  A    between atoms: C_16  and  O_17
REMARK    6  A    between atoms: C_18  and  O_20
REMARK    7  A    between atoms: C_21  and  O_23
REMARK    8  A    between atoms: C_24  and  O_26
REMARK                            x       y       z     vdW  Elec       q    Type
REMARK                         _______ _______ _______ _____ _____    ______ ____
ROOT
ATOM      1  C   UNL     1       5.035  -6.120  -0.127  0.00  0.00    +0.339 C 
ATOM      2  C   UNL     1       4.132  -5.817   1.082  0.00  0.00    +0.214 C 
ATOM      3  C   UNL     1       4.603  -6.815   2.178  0.00  0.00    +0.180 C 
ATOM      4  C   UNL     1       4.585  -8.285   1.696  0.00  0.00    +0.177 C 
ATOM      5  C   UNL     1       5.249  -8.423   0.321  0.00  0.00    +0.179 C 
ATOM      6  O   UNL     1       4.725  -7.445  -0.582  0.00  0.00    -0.331 OA
ENDROOT
BRANCH   2   7
ATOM      7  O   UNL     1       4.297  -4.458   1.508  0.00  0.00    -0.383 OA
ATOM      8  H   UNL     1       4.715  -4.455   2.386  0.00  0.00    +0.210 HD
ENDBRANCH   2   7
BRANCH   3   9
ATOM      9  O   UNL     1       3.833  -6.682   3.376  0.00  0.00    -0.386 OA
ATOM     10  H   UNL     1       4.094  -7.433   3.947  0.00  0.00    +0.210 HD
ENDBRANCH   3   9
BRANCH   4  11
ATOM     11  O   UNL     1       5.242  -9.096   2.680  0.00  0.00    -0.386 OA
ATOM     12  H   UNL     1       6.199  -9.118   2.495  0.00  0.00    +0.210 HD
ENDBRANCH   4  11
BRANCH   1  13
ATOM     13  O   UNL     1       4.981  -5.197  -1.223  0.00  0.00    -0.461 OA
BRANCH  13  19
ATOM     14  C   UNL     1      10.756  -3.437  -3.864  0.00  0.00    +0.045 C 
ATOM     15  C   UNL     1      10.210  -4.739  -3.368  0.00  0.00    -0.033 A 
ATOM     16  C   UNL     1       8.804  -4.838  -2.951  0.00  0.00    +0.021 A 
ATOM     17  C   UNL     1       8.370  -6.052  -2.438  0.00  0.00    +0.143 A 
ATOM     18  C   UNL     1       7.084  -6.224  -1.946  0.00  0.00    +0.092 A 
ATOM     19  C   UNL     1       6.194  -5.149  -1.887  0.00  0.00    +0.128 A 
ATOM     20  C   UNL     1       6.571  -3.945  -2.475  0.00  0.00    +0.046 A 
ATOM     21  O   UNL     1       9.202  -7.178  -2.337  0.00  0.00    -0.422 OA
ATOM     22  C   UNL     1      10.511  -7.114  -2.744  0.00  0.00    +0.337 A 
ATOM     23  O   UNL     1      11.271  -8.068  -2.662  0.00  0.00    -0.245 OA
ATOM     24  C   UNL     1       7.868  -3.791  -3.006  0.00  0.00    +0.015 A 
ATOM     25  C   UNL     1      10.988  -5.829  -3.267  0.00  0.00    +0.096 A 
ENDBRANCH  13  19
ENDBRANCH   1  13
BRANCH   5  26
ATOM     26  C   UNL     1       5.049  -9.794  -0.322  0.00  0.00    +0.190 C 
BRANCH  26  27
ATOM     27  O   UNL     1       5.690  -9.807  -1.601  0.00  0.00    -0.392 OA
ATOM     28  H   UNL     1       5.273  -9.089  -2.119  0.00  0.00    +0.210 HD
ENDBRANCH  26  27
ENDBRANCH   5  26
TORSDOF 7
