REMARK  Name = 
REMARK  8 active torsions:
REMARK  status: ('A' for Active; 'I' for Inactive)
REMARK    1  A    between atoms: CA_2  and  CB_3
REMARK    2  A    between atoms: CA_2  and  N_7
REMARK    3  A    between atoms: CA_2  and  C_15
REMARK    4  A    between atoms: CB_3  and  CG_4
REMARK    5  A    between atoms: CG_4  and  CD1_5
REMARK    6  A    between atoms: CG_4  and  CD2_6
REMARK    7  A    between atoms: C_8  and  C_10
REMARK    8  A    between atoms: C_15  and  O_16
REMARK                            x       y       z     vdW  Elec       q    Type
REMARK                         _______ _______ _______ _____ _____    ______ ____
ROOT
ATOM      1  CA  LEU A   1       2.182   0.107   0.010  0.00  0.00    +0.182 C 
ENDROOT
BRANCH   1   2
ATOM      2  N   LEU A   1       2.587   1.302   0.745  0.00  0.00    -0.296 N 
ATOM      3  H   LEU A   1       3.491   1.331   1.209  0.00  0.00    +0.150 HD
ATOM      4  C   UNK A   0       1.787   2.423   0.777  0.00  0.00    +0.280 C 
ATOM      5  O   UNK A   0       0.708   2.452   0.187  0.00  0.00    -0.267 OA
BRANCH   4   6
ATOM      6  C   UNK A   0       2.286   3.533   1.560  0.00  0.00    +0.189 A 
ATOM      7  O   UNK A   0       3.473   3.432   2.236  0.00  0.00    -0.458 OA
ATOM      8  C   UNK A   0       3.657   4.610   2.895  0.00  0.00    +0.196 A 
ATOM      9  C   UNK A   0       2.612   5.470   2.651  0.00  0.00    +0.042 A 
ATOM     10  C   UNK A   0       1.731   4.779   1.787  0.00  0.00    +0.054 A 
ENDBRANCH   4   6
ENDBRANCH   1   2
BRANCH   1  11
ATOM     11  C   LEU A   1       2.747  -1.119   0.732  0.00  0.00    +0.325 C 
ATOM     12  OXT LEU A   1       3.940  -1.307   0.930  0.00  0.00    -0.249 OA
BRANCH  11  13
ATOM     13  O   LEU A   1       1.800  -1.976   1.183  0.00  0.00    -0.479 OA
ATOM     14  H   LEU A   1       0.879  -1.679   1.041  0.00  0.00    +0.295 HD
ENDBRANCH  11  13
ENDBRANCH   1  11
BRANCH   1  15
ATOM     15  CB  LEU A   1       2.661   0.165  -1.449  0.00  0.00    +0.036 C 
BRANCH  15  16
ATOM     16  CG  LEU A   1       2.247  -1.042  -2.317  0.00  0.00    -0.015 C 
ATOM     17  CD2 LEU A   1       2.822  -0.888  -3.728  0.00  0.00    +0.007 C 
ATOM     18  CD1 LEU A   1       0.730  -1.218  -2.403  0.00  0.00    +0.007 C 
ENDBRANCH  15  16
ENDBRANCH   1  15
TORSDOF 6
