REMARK  Name = 
REMARK  33 active torsions:
REMARK  status: ('A' for Active; 'I' for Inactive)
REMARK    1  A    between atoms: O_1  and  C_2
REMARK    2  A    between atoms: C_2  and  C_4
REMARK    3  A    between atoms: C_4  and  C_5
REMARK    4  A    between atoms: C_5  and  C_6
REMARK    5  A    between atoms: C_13  and  C_14
REMARK    6  A    between atoms: C_19  and  C_21
REMARK    7  A    between atoms: C_21  and  C_22
REMARK    8  A    between atoms: C_22  and  O_23
REMARK    9  A    between atoms: C_25  and  C_26
REMARK   10  A    between atoms: C_25  and  C_27
REMARK   11  A    between atoms: C_27  and  C_28
REMARK   12  A    between atoms: C_28  and  C_29
REMARK   13  A    between atoms: C_29  and  O_30
REMARK   14  A    between atoms: C_32  and  C_33
REMARK   15  A    between atoms: C_36  and  C_37
REMARK   16  A    between atoms: C_40  and  C_41
REMARK   17  A    between atoms: C_40  and  C_42
REMARK   18  A    between atoms: C_42  and  C_43
REMARK   19  A    between atoms: C_43  and  O_44
REMARK   20  A    between atoms: C_46  and  C_48
REMARK   21  A    between atoms: C_48  and  C_49
REMARK   22  A    between atoms: C_49  and  C_50
REMARK   23  A    between atoms: C_50  and  O_51
REMARK   24  A    between atoms: C_53  and  C_54
REMARK   25  A    between atoms: C_53  and  C_55
REMARK   26  A    between atoms: C_55  and  C_56
REMARK   27  A    between atoms: C_56  and  O_57
REMARK   28  A    between atoms: C_59  and  C_61
REMARK   29  A    between atoms: C_61  and  C_62
REMARK   30  A    between atoms: C_62  and  C_63
REMARK   31  A    between atoms: C_63  and  O_64
REMARK   32  A    between atoms: C_66  and  C_67
REMARK   33  A    between atoms: C_66  and  C_68
REMARK                            x       y       z     vdW  Elec       q    Type
REMARK                         _______ _______ _______ _____ _____    ______ ____
ROOT
ATOM      1  C   UNL     1       2.938  -9.168   2.993  0.00  0.00    +0.051 C 
ATOM      2  C   UNL     1       3.795 -10.461   3.295  0.00  0.00    +0.029 C 
ATOM      3  C   UNL     1       2.676 -11.524   2.962  0.00  0.00    +0.019 C 
ATOM      4  C   UNL     1       5.375  -9.563   2.775  0.00  0.00    +0.053 C 
ATOM      5  N   UNL     1       5.219  -8.401   3.390  0.00  0.00    -0.255 NA
ATOM      6  C   UNL     1       6.730  -9.856   1.471  0.00  0.00    -0.012 C 
ATOM      7  C   UNL     1       6.128 -11.266   1.153  0.00  0.00    +0.047 C 
ATOM      8  C   UNL     1       8.102  -9.536   0.628  0.00  0.00    +0.013 C 
ATOM      9  C   UNL     1       9.837  -8.726   0.174  0.00  0.00    +0.042 C 
ATOM     10  C   UNL     1       9.656  -7.790  -1.358  0.00  0.00    +0.009 C 
ATOM     11  C   UNL     1      10.135  -6.435  -0.546  0.00  0.00    +0.014 C 
ATOM     12  C   UNL     1       8.483  -8.725  -1.819  0.00  0.00    +0.058 C 
ATOM     13  C   UNL     1       9.135 -10.031  -2.443  0.00  0.00    +0.034 C 
ATOM     14  C   UNL     1       7.426  -7.834  -2.618  0.00  0.00    +0.133 C 
ATOM     15  C   UNL     1       7.400  -6.314  -2.252  0.00  0.00    +0.038 C 
ATOM     16  C   UNL     1       6.625  -6.247  -0.901  0.00  0.00    +0.016 C 
ATOM     17  C   UNL     1       5.452  -5.185  -1.137  0.00  0.00    +0.018 C 
ATOM     18  C   UNL     1       5.873  -7.474  -1.069  0.00  0.00    +0.047 C 
ATOM     19  C   UNL     1       4.840  -7.640  -0.055  0.00  0.00    -0.008 C 
ATOM     20  C   UNL     1       4.052  -8.877  -0.516  0.00  0.00    +0.047 C 
ATOM     21  C   UNL     1       4.692  -6.665   0.911  0.00  0.00    +0.050 C 
ATOM     22  C   UNL     1       5.397  -5.173   1.518  0.00  0.00    +0.050 C 
ATOM     23  C   UNL     1       4.812  -5.193   2.978  0.00  0.00    +0.016 C 
ATOM     24  C   UNL     1       4.077  -3.876   3.214  0.00  0.00    +0.018 C 
ATOM     25  C   UNL     1       5.748  -5.436   4.186  0.00  0.00    +0.018 C 
ATOM     26  C   UNL     1       3.772  -6.273   2.804  0.00  0.00    +0.050 C 
ATOM     27  C   UNL     1       3.212  -6.988   3.959  0.00  0.00    +0.047 C 
ATOM     28  N   UNL     1       3.530  -6.750   1.624  0.00  0.00    -0.255 NA
ATOM     29  N   UNL     1       6.101  -8.230  -2.153  0.00  0.00    -0.282 NA
ATOM     30  N   UNL     1       7.733  -9.461  -0.726  0.00  0.00    -0.339 N 
ATOM     31  H   UNL     1       6.804  -9.764  -1.016  0.00  0.00    +0.146 HD
ATOM     32  C   UNL     1       3.798  -8.191   3.754  0.00  0.00    +0.047 C 
ENDROOT
BRANCH  16  33
ATOM     33  C   UNL     1       7.634  -6.532   0.537  0.00  0.00    +0.024 C 
BRANCH  33  34
ATOM     34  C   UNL     1       7.695  -6.993   2.073  0.00  0.00    +0.121 C 
BRANCH  34  35
ATOM     35  C   UNL     1       9.020  -6.853   2.887  0.00  0.00    +0.305 C 
ATOM     36  O   UNL     1      10.112  -6.520   2.463  0.00  0.00    -0.251 OA
BRANCH  35  37
ATOM     37  O   UNL     1       8.885  -7.125   4.209  0.00  0.00    -0.481 OA
ATOM     38  H   UNL     1       7.999  -7.400   4.510  0.00  0.00    +0.295 HD
ENDBRANCH  35  37
ENDBRANCH  34  35
ENDBRANCH  33  34
ENDBRANCH  16  33
BRANCH  10  39
ATOM     39  C   UNL     1      10.347  -6.996  -2.818  0.00  0.00    +0.129 C 
BRANCH  39  40
ATOM     40  C   UNL     1       9.874  -6.740  -4.255  0.00  0.00    +0.305 C 
ATOM     41  O   UNL     1       9.440  -7.566  -5.048  0.00  0.00    -0.251 OA
BRANCH  40  42
ATOM     42  O   UNL     1      10.029  -5.422  -4.696  0.00  0.00    -0.481 OA
ATOM     43  H   UNL     1      10.385  -4.716  -4.103  0.00  0.00    +0.295 HD
ENDBRANCH  40  42
ENDBRANCH  39  40
ENDBRANCH  10  39
BRANCH  22  44
ATOM     44  C   UNL     1       6.816  -4.173   1.481  0.00  0.00    +0.022 C 
BRANCH  44  45
ATOM     45  C   UNL     1       7.533  -3.592   0.196  0.00  0.00    +0.121 C 
BRANCH  45  46
ATOM     46  C   UNL     1       8.983  -3.118   0.115  0.00  0.00    +0.305 C 
ATOM     47  O   UNL     1       9.490  -2.844  -0.972  0.00  0.00    -0.251 OA
BRANCH  46  48
ATOM     48  O   UNL     1       9.716  -3.117   1.229  0.00  0.00    -0.481 OA
ATOM     49  H   UNL     1       9.304  -3.467   2.036  0.00  0.00    +0.295 HD
ENDBRANCH  46  48
ENDBRANCH  45  46
ENDBRANCH  44  45
ENDBRANCH  22  44
BRANCH  15  50
ATOM     50  C   UNL     1       7.064  -5.311  -3.402  0.00  0.00    +0.127 C 
BRANCH  50  51
ATOM     51  C   UNL     1       5.703  -5.104  -4.031  0.00  0.00    +0.305 C 
ATOM     52  O   UNL     1       5.244  -3.987  -4.240  0.00  0.00    -0.251 OA
BRANCH  51  53
ATOM     53  O   UNL     1       5.014  -6.230  -4.291  0.00  0.00    -0.481 OA
ATOM     54  H   UNL     1       5.409  -7.050  -3.927  0.00  0.00    +0.295 HD
ENDBRANCH  51  53
ENDBRANCH  50  51
ENDBRANCH  15  50
BRANCH   2  55
ATOM     55  C   UNL     1       3.966 -10.821   4.856  0.00  0.00    +0.134 C 
BRANCH  55  56
ATOM     56  C   UNL     1       4.118  -9.762   5.925  0.00  0.00    +0.306 C 
ATOM     57  O   UNL     1       3.218  -9.328   6.660  0.00  0.00    -0.251 OA
BRANCH  56  58
ATOM     58  O   UNL     1       5.416  -9.368   6.104  0.00  0.00    -0.481 OA
ATOM     59  H   UNL     1       5.975  -9.675   5.372  0.00  0.00    +0.295 HD
ENDBRANCH  56  58
ENDBRANCH  55  56
ENDBRANCH   2  55
BRANCH   1  60
ATOM     60  C   UNL     1       1.467  -8.976   2.288  0.00  0.00    +0.022 C 
BRANCH  60  61
ATOM     61  C   UNL     1       0.136  -8.434   2.863  0.00  0.00    +0.121 C 
BRANCH  61  62
ATOM     62  C   UNL     1      -0.981  -8.588   1.789  0.00  0.00    +0.305 C 
ATOM     63  O   UNL     1      -0.836  -9.122   0.690  0.00  0.00    -0.251 OA
BRANCH  62  64
ATOM     64  O   UNL     1      -2.138  -7.983   2.128  0.00  0.00    -0.481 OA
ATOM     65  H   UNL     1      -2.148  -7.521   2.980  0.00  0.00    +0.295 HD
ENDBRANCH  62  64
ENDBRANCH  61  62
ENDBRANCH  60  61
ENDBRANCH   1  60
BRANCH   9  66
ATOM     66  C   UNL     1      11.560  -8.984  -0.399  0.00  0.00    +0.021 C 
BRANCH  66  67
ATOM     67  C   UNL     1      12.625  -7.868  -0.819  0.00  0.00    +0.121 C 
BRANCH  67  68
ATOM     68  C   UNL     1      13.732  -8.331  -1.785  0.00  0.00    +0.305 C 
ATOM     69  O   UNL     1      13.690  -8.190  -2.999  0.00  0.00    -0.251 OA
BRANCH  68  70
ATOM     70  O   UNL     1      14.777  -8.874  -1.168  0.00  0.00    -0.481 OA
ATOM     71  H   UNL     1      14.711  -8.814  -0.194  0.00  0.00    +0.295 HD
ENDBRANCH  68  70
ENDBRANCH  67  68
ENDBRANCH  66  67
ENDBRANCH   9  66
TORSDOF 25
