REMARK  Name = 
REMARK  6 active torsions:
REMARK  status: ('A' for Active; 'I' for Inactive)
REMARK    1  A    between atoms: C_1  and  N_2
REMARK    2  A    between atoms: C_8  and  C_12
REMARK    3  A    between atoms: C_15  and  C_17
REMARK    4  A    between atoms: C_17  and  O_18
REMARK    5  A    between atoms: C_19  and  O_21
REMARK    6  A    between atoms: C_22  and  O_24
REMARK                            x       y       z     vdW  Elec       q    Type
REMARK                         _______ _______ _______ _____ _____    ______ ____
ROOT
ATOM      1  C   UNL     1      12.601  -3.936   3.567  0.00  0.00    +0.127 C 
ATOM      2  N   UNL     1      11.524  -2.970   3.532  0.00  0.00    -0.330 N 
ATOM      3  H   UNL     1      11.555  -2.236   4.237  0.00  0.00    +0.147 HD
ATOM      4  C   UNL     1      10.245  -3.528   3.478  0.00  0.00    +0.150 A 
ATOM      5  C   UNL     1       9.082  -2.884   3.986  0.00  0.00    +0.151 A 
ATOM      6  C   UNL     1       7.808  -3.534   3.880  0.00  0.00    +0.119 A 
ATOM      7  C   UNL     1       6.877  -2.734   4.480  0.00  0.00    +0.093 A 
ATOM      8  N   UNL     1       7.596  -1.629   4.860  0.00  0.00    -0.276 N 
ATOM      9  H   UNL     1       7.237  -0.808   5.339  0.00  0.00    +0.189 HD
ATOM     10  N   UNL     1       7.583  -4.737   3.320  0.00  0.00    -0.232 NA
ATOM     11  C   UNL     1       8.752  -5.266   2.876  0.00  0.00    +0.224 A 
ATOM     12  N   UNL     1       8.921  -1.699   4.614  0.00  0.00    -0.168 NA
ATOM     13  N   UNL     1      10.019  -4.758   2.925  0.00  0.00    -0.219 NA
ENDROOT
BRANCH   7  14
ATOM     14  C   UNL     1       5.418  -2.864   4.733  0.00  0.00    +0.200 C 
ATOM     15  C   UNL     1       4.906  -4.279   5.061  0.00  0.00    +0.180 C 
ATOM     16  C   UNL     1       4.786  -4.322   6.589  0.00  0.00    +0.177 C 
ATOM     17  C   UNL     1       5.331  -2.974   7.033  0.00  0.00    +0.175 C 
ATOM     18  O   UNL     1       5.145  -2.076   5.915  0.00  0.00    -0.360 OA
BRANCH  15  19
ATOM     19  O   UNL     1       3.605  -4.488   4.475  0.00  0.00    -0.386 OA
ATOM     20  H   UNL     1       3.022  -3.760   4.751  0.00  0.00    +0.210 HD
ENDBRANCH  15  19
BRANCH  16  21
ATOM     21  O   UNL     1       5.549  -5.398   7.129  0.00  0.00    -0.386 OA
ATOM     22  H   UNL     1       5.603  -5.296   8.095  0.00  0.00    +0.210 HD
ENDBRANCH  16  21
BRANCH  17  23
ATOM     23  C   UNL     1       4.627  -2.393   8.252  0.00  0.00    +0.190 C 
BRANCH  23  24
ATOM     24  O   UNL     1       5.223  -1.139   8.583  0.00  0.00    -0.392 OA
ATOM     25  H   UNL     1       5.232  -0.619   7.757  0.00  0.00    +0.210 HD
ENDBRANCH  23  24
ENDBRANCH  17  23
ENDBRANCH   7  14
TORSDOF 5
