REMARK  Name = 
REMARK  12 active torsions:
REMARK  status: ('A' for Active; 'I' for Inactive)
REMARK    1  A    between atoms: C_1  and  N_2
REMARK    2  A    between atoms: N_2  and  C_3
REMARK    3  A    between atoms: N_2  and  C_15
REMARK    4  A    between atoms: C_3  and  C_4
REMARK    5  A    between atoms: C_18  and  C_21
REMARK    6  A    between atoms: N_23  and  CA_24
REMARK    7  A    between atoms: CA_24  and  CB_26
REMARK    8  A    between atoms: CA_24  and  C_31
REMARK    9  A    between atoms: CB_26  and  CG_27
REMARK   10  A    between atoms: CG_27  and  CD_28
REMARK   11  A    between atoms: CD_28  and  OE1_29
REMARK   12  A    between atoms: C_31  and  O_32
REMARK                            x       y       z     vdW  Elec       q    Type
REMARK                         _______ _______ _______ _____ _____    ______ ____
ROOT
ATOM      1  C   UNK A   0       0.134  -6.906  -3.050  0.00  0.00    +0.030 A 
ATOM      2  C   UNK A   0       1.489  -6.569  -2.967  0.00  0.00    +0.024 A 
ATOM      3  C   UNK A   0       2.105  -5.817  -3.975  0.00  0.00    +0.015 A 
ATOM      4  C   UNK A   0       1.372  -5.401  -5.091  0.00  0.00    +0.037 A 
ATOM      5  C   UNK A   0      -0.008  -5.567  -5.092  0.00  0.00    +0.015 A 
ATOM      6  C   UNK A   0      -0.612  -6.327  -4.092  0.00  0.00    +0.024 A 
ENDROOT
BRANCH   4   7
ATOM      7  C   UNK A   0       2.110  -4.818  -6.236  0.00  0.00    +0.245 C 
ATOM      8  N   GLU A   1       1.780  -5.114  -7.540  0.00  0.00    -0.298 N 
ATOM      9  H   GLU A   1       2.439  -4.703  -8.196  0.00  0.00    +0.150 HD
ATOM     10  O   UNK A   0       3.079  -4.093  -6.030  0.00  0.00    -0.270 OA
BRANCH   8  11
ATOM     11  CA  GLU A   1       0.752  -6.009  -8.119  0.00  0.00    +0.182 C 
BRANCH  11  12
ATOM     12  C   GLU A   1      -0.304  -5.153  -8.858  0.00  0.00    +0.325 C 
ATOM     13  OXT GLU A   1      -1.164  -5.604  -9.592  0.00  0.00    -0.249 OA
BRANCH  12  14
ATOM     14  O   GLU A   1      -0.230  -3.833  -8.555  0.00  0.00    -0.479 OA
ATOM     15  H   GLU A   1       0.505  -3.653  -7.934  0.00  0.00    +0.295 HD
ENDBRANCH  12  14
ENDBRANCH  11  12
BRANCH  11  16
ATOM     16  CB  GLU A   1       1.342  -7.054  -9.069  0.00  0.00    +0.045 C 
BRANCH  16  17
ATOM     17  CG  GLU A   1       2.295  -8.026  -8.377  0.00  0.00    +0.123 C 
BRANCH  17  18
ATOM     18  CD  GLU A   1       2.746  -9.115  -9.331  0.00  0.00    +0.305 C 
ATOM     19  OE2 GLU A   1       2.410  -9.208 -10.497  0.00  0.00    -0.251 OA
BRANCH  18  20
ATOM     20  OE1 GLU A   1       3.587  -9.998  -8.747  0.00  0.00    -0.481 OA
ATOM     21  HE1 GLU A   1       3.784  -9.808  -7.811  0.00  0.00    +0.295 HD
ENDBRANCH  18  20
ENDBRANCH  17  18
ENDBRANCH  16  17
ENDBRANCH  11  16
ENDBRANCH   8  11
ENDBRANCH   4   7
BRANCH   1  23
ATOM     22  C   UNK A   0       0.344  -8.843  -1.556  0.00  0.00    +0.129 C 
ATOM     23  N   UNK A   0      -0.495  -7.832  -2.205  0.00  0.00    -0.328 N 
BRANCH  23  24
ATOM     24  C   UNK A   0      -1.562  -7.254  -1.363  0.00  0.00    +0.143 C 
BRANCH  24  25
ATOM     25  C   UNK A   0      -2.797  -8.077  -1.166  0.00  0.00    +0.020 A 
ATOM     26  C   UNK A   0      -3.440  -9.000  -2.056  0.00  0.00    +0.084 A 
ATOM     27  C   UNK A   0      -3.261  -9.503  -3.348  0.00  0.00    +0.133 A 
ATOM     28  N   UNK A   0      -4.116 -10.436  -3.809  0.00  0.00    -0.199 NA
ATOM     29  C   UNK A   0      -5.119 -10.860  -3.028  0.00  0.00    +0.217 A 
ATOM     30  N   UNK A   0      -5.415 -10.413  -1.811  0.00  0.00    -0.179 NA
ATOM     31  N   UNK A   0      -5.930 -11.839  -3.562  0.00  0.00    -0.327 N 
ATOM     32  H   UNK A   0      -6.846 -11.803  -3.130  0.00  0.00    +0.145 HD
ATOM     33  H   UNK A   0      -5.891 -11.806  -4.570  0.00  0.00    +0.145 HD
ATOM     34  N   UNK A   0      -2.238  -9.127  -4.202  0.00  0.00    -0.342 N 
ATOM     35  H   UNK A   0      -2.109  -9.806  -4.937  0.00  0.00    +0.144 HD
ATOM     36  H   UNK A   0      -1.400  -8.831  -3.698  0.00  0.00    +0.144 HD
ATOM     37  C   UNK A   0      -4.542  -9.497  -1.380  0.00  0.00    +0.234 A 
ATOM     38  O   UNK A   0      -4.638  -8.912  -0.156  0.00  0.00    -0.445 OA
ATOM     39  C   UNK A   0      -3.593  -8.058  -0.036  0.00  0.00    +0.203 A 
ENDBRANCH  24  25
ENDBRANCH  23  24
ENDBRANCH   1  23
TORSDOF 11
