REMARK  Name = 
REMARK  9 active torsions:
REMARK  status: ('A' for Active; 'I' for Inactive)
REMARK    1  A    between atoms: O_1  and  C_2
REMARK    2  A    between atoms: C_5  and  O_6
REMARK    3  A    between atoms: C_5  and  C_18
REMARK    4  A    between atoms: C_8  and  C_10
REMARK    5  A    between atoms: C_10  and  P_11
REMARK    6  A    between atoms: P_11  and  O_12
REMARK    7  A    between atoms: P_11  and  O_13
REMARK    8  A    between atoms: C_15  and  O_17
REMARK    9  A    between atoms: C_18  and  O_19
REMARK                            x       y       z     vdW  Elec       q    Type
REMARK                         _______ _______ _______ _____ _____    ______ ____
ROOT
ATOM      1  C   UNL     1       2.850   0.068   0.235  0.00  0.00    +0.146 C 
ATOM      2  C   UNL     1       2.985   1.131  -0.874  0.00  0.00    +0.147 C 
ATOM      3  C   UNL     1       2.487   0.645  -2.253  0.00  0.00    +0.035 C 
ATOM      4  C   UNL     1       3.077  -0.734  -2.614  0.00  0.00    +0.053 C 
ATOM      5  C   UNL     1       3.106  -1.776  -1.481  0.00  0.00    +0.165 C 
ATOM      6  C   UNL     1       3.581  -1.212  -0.137  0.00  0.00    +0.080 C 
ENDROOT
BRANCH   1   7
ATOM      7  O   UNL     1       1.476  -0.231   0.479  0.00  0.00    -0.389 OA
ATOM      8  H   UNL     1       1.360  -0.250   1.450  0.00  0.00    +0.210 HD
ENDBRANCH   1   7
BRANCH   2   9
ATOM      9  O   UNL     1       4.365   1.478  -0.978  0.00  0.00    -0.389 OA
ATOM     10  H   UNL     1       4.442   2.210  -1.616  0.00  0.00    +0.210 HD
ENDBRANCH   2   9
BRANCH   5  11
ATOM     11  C   UNL     1       4.049  -2.942  -1.878  0.00  0.00    +0.337 C 
ATOM     12  O   UNL     1       5.265  -2.866  -1.992  0.00  0.00    -0.248 OA
BRANCH  11  13
ATOM     13  O   UNL     1       3.350  -4.071  -2.141  0.00  0.00    -0.479 OA
ATOM     14  H   UNL     1       2.395  -3.870  -1.976  0.00  0.00    +0.295 HD
ENDBRANCH  11  13
ENDBRANCH   5  11
BRANCH   5  15
ATOM     15  O   UNL     1       1.783  -2.338  -1.344  0.00  0.00    -0.377 OA
ATOM     16  H   UNL     1       1.368  -1.898  -0.570  0.00  0.00    +0.211 HD
ENDBRANCH   5  15
BRANCH   3  17
ATOM     17  C   UNL     1       0.943   0.757  -2.437  0.00  0.00    +0.133 C 
BRANCH  17  18
ATOM     18  P   UNL     1       0.350   2.435  -2.011  0.00  0.00    +0.328 P 
ATOM     19  O   UNL     1      -0.152   3.855  -1.651  0.00  0.00    -0.259 OA
BRANCH  18  20
ATOM     20  O   UNL     1      -1.052   2.052  -2.775  0.00  0.00    -0.324 OA
ATOM     21  H   UNL     1      -1.618   2.853  -2.740  0.00  0.00    +0.220 HD
ENDBRANCH  18  20
BRANCH  18  22
ATOM     22  O   UNL     1       1.135   2.907  -3.378  0.00  0.00    -0.324 OA
ATOM     23  H   UNL     1       0.510   3.202  -4.064  0.00  0.00    +0.220 HD
ENDBRANCH  18  22
ENDBRANCH  17  18
ENDBRANCH   3  17
TORSDOF 9
