REMARK  Name = 
REMARK  7 active torsions:
REMARK  status: ('A' for Active; 'I' for Inactive)
REMARK    1  A    between atoms: C_1  and  S_2
REMARK    2  A    between atoms: S_2  and  S_3
REMARK    3  A    between atoms: S_3  and  C_4
REMARK    4  A    between atoms: C_4  and  C_5
REMARK    5  A    between atoms: C_5  and  N_7
REMARK    6  A    between atoms: C_5  and  C_8
REMARK    7  A    between atoms: C_8  and  O_9
REMARK                            x       y       z     vdW  Elec       q    Type
REMARK                         _______ _______ _______ _____ _____    ______ ____
ROOT
ATOM      1  C   UNK     1       5.740  -0.527   3.335  0.00  0.00    +0.171 C 
ENDROOT
BRANCH   1   2
ATOM      2  N   UNK     1       7.242  -0.522   3.260  0.00  0.00    -0.318 NA
ATOM      3  H   UNK     1       7.596  -0.868   4.160  0.00  0.00    +0.119 HD
ATOM      4  H   UNK     1       7.529  -1.240   2.588  0.00  0.00    +0.119 HD
ENDBRANCH   1   2
BRANCH   1   5
ATOM      5  C   UNK     1       5.323   0.564   4.333  0.00  0.00    +0.323 C 
ATOM      6  O   UNK     1       4.296   0.572   4.988  0.00  0.00    -0.249 OA
BRANCH   5   7
ATOM      7  O   UNK     1       6.266   1.543   4.413  0.00  0.00    -0.480 OA
ATOM      8  H   UNK     1       7.019   1.262   3.836  0.00  0.00    +0.295 HD
ENDBRANCH   5   7
ENDBRANCH   1   5
BRANCH   1   9
ATOM      9  C   UNK     1       5.164  -0.242   1.944  0.00  0.00    +0.111 C 
BRANCH   9  10
ATOM     10  S   UNK     1       3.352  -0.418   1.869  0.00  0.00    -0.091 S 
BRANCH  10  12
ATOM     11  C   UNK     1       3.481  -1.421  -0.950  0.00  0.00    +0.097 C 
ATOM     12  S   UNK     1       2.974   0.087  -0.090  0.00  0.00    -0.096 S 
ENDBRANCH  10  12
ENDBRANCH   9  10
ENDBRANCH   1   9
TORSDOF 6
