REMARK  Name = 
REMARK  4 active torsions:
REMARK  status: ('A' for Active; 'I' for Inactive)
REMARK    1  A    between atoms: C_1  and  C_2
REMARK    2  A    between atoms: C_2  and  C_3
REMARK    3  A    between atoms: C_3  and  C_4
REMARK    4  A    between atoms: C_4  and  O_5
REMARK                            x       y       z     vdW  Elec       q    Type
REMARK                         _______ _______ _______ _____ _____    ______ ____
ROOT
ATOM      1  C   UNL     1       3.143  -0.868  -1.117  0.00  0.00    +0.027 C 
ENDROOT
BRANCH   1   3
ATOM      2  C   UNL     1       1.078  -0.003   0.035  0.00  0.00    +0.004 C 
ATOM      3  C   UNL     1       2.598  -0.013   0.024  0.00  0.00    -0.001 C 
ENDBRANCH   1   3
BRANCH   1   4
ATOM      4  C   UNL     1       4.666  -0.880  -1.131  0.00  0.00    +0.156 C 
BRANCH   4   5
ATOM      5  O   UNL     1       5.132  -1.678  -2.210  0.00  0.00    -0.395 OA
ATOM      6  H   UNL     1       4.792  -2.579  -2.076  0.00  0.00    +0.209 HD
ENDBRANCH   4   5
ENDBRANCH   1   4
TORSDOF 3
