REMARK  Name = 
REMARK  8 active torsions:
REMARK  status: ('A' for Active; 'I' for Inactive)
REMARK    1  A    between atoms: N_1  and  CA_2
REMARK    2  A    between atoms: CA_2  and  C_4
REMARK    3  A    between atoms: CA_2  and  C_14
REMARK    4  A    between atoms: C_4  and  C_5
REMARK    5  A    between atoms: C_7  and  N_8
REMARK    6  A    between atoms: C_9  and  O_10
REMARK    7  A    between atoms: C_12  and  O_13
REMARK    8  A    between atoms: C_14  and  O_15
REMARK                            x       y       z     vdW  Elec       q    Type
REMARK                         _______ _______ _______ _____ _____    ______ ____
ROOT
ATOM      1  C   UNL     1       2.594   2.352  -0.794  0.00  0.00    -0.002 A 
ATOM      2  C   UNL     1       2.730   3.716  -0.496  0.00  0.00    +0.124 A 
ATOM      3  C   UNL     1       2.520   4.692  -1.467  0.00  0.00    +0.093 A 
ATOM      4  C   UNL     1       2.183   4.292  -2.753  0.00  0.00    +0.141 A 
ATOM      5  C   UNL     1       2.072   2.941  -3.102  0.00  0.00    +0.067 A 
ATOM      6  C   UNL     1       2.225   1.981  -2.100  0.00  0.00    +0.033 A 
ENDROOT
BRANCH   5   7
ATOM      7  N   UNL     1       1.681   2.570  -4.404  0.00  0.00    -0.355 N 
ATOM      8  H   UNL     1       2.208   3.072  -5.114  0.00  0.00    +0.142 HD
ATOM      9  H   UNL     1       1.782   1.567  -4.558  0.00  0.00    +0.142 HD
ENDBRANCH   5   7
BRANCH   2  10
ATOM     10  O   UNL     1       3.109   4.078   0.764  0.00  0.00    -0.506 OA
ATOM     11  H   UNL     1       2.996   5.042   0.851  0.00  0.00    +0.292 HD
ENDBRANCH   2  10
BRANCH   4  12
ATOM     12  O   UNL     1       1.938   5.265  -3.683  0.00  0.00    -0.505 OA
ATOM     13  H   UNL     1       1.439   4.812  -4.387  0.00  0.00    +0.292 HD
ENDBRANCH   4  12
BRANCH   1  14
ATOM     14  C   UNL     1       2.891   1.280   0.236  0.00  0.00    +0.068 C 
BRANCH  14  15
ATOM     15  CA  UNL     1       4.378   0.885   0.330  0.00  0.00    +0.165 C 
BRANCH  15  16
ATOM     16  N   UNL     1       5.297   2.010   0.708  0.00  0.00    -0.318 NA
ATOM     17  H1  UNL     1       4.920   2.868   0.281  0.00  0.00    +0.119 HD
ATOM     18  H2  UNL     1       5.134   2.199   1.704  0.00  0.00    +0.119 HD
ENDBRANCH  15  16
BRANCH  15  19
ATOM     19  C   UNL     1       4.871   0.267  -0.990  0.00  0.00    +0.322 C 
ATOM     20  OXT UNL     1       4.319  -0.638  -1.596  0.00  0.00    -0.249 OA
BRANCH  19  21
ATOM     21  O   UNL     1       6.028   0.847  -1.404  0.00  0.00    -0.480 OA
ATOM     22  H   UNL     1       6.249   1.513  -0.703  0.00  0.00    +0.295 HD
ENDBRANCH  19  21
ENDBRANCH  15  19
ENDBRANCH  14  15
ENDBRANCH   1  14
TORSDOF 8
