REMARK  Name = 
REMARK  12 active torsions:
REMARK  status: ('A' for Active; 'I' for Inactive)
REMARK    1  A    between atoms: C_1  and  O_2
REMARK    2  A    between atoms: O_2  and  C_3
REMARK    3  A    between atoms: C_5  and  N_13
REMARK    4  A    between atoms: C_7  and  O_8
REMARK    5  A    between atoms: O_8  and  C_9
REMARK    6  A    between atoms: C_10  and  O_11
REMARK    7  A    between atoms: O_11  and  C_12
REMARK    8  A    between atoms: N_13  and  C_14
REMARK    9  A    between atoms: N_13  and  C_15
REMARK   10  A    between atoms: C_15  and  C_16
REMARK   11  A    between atoms: C_17  and  C_18
REMARK   12  A    between atoms: C_20  and  N_21
REMARK                            x       y       z     vdW  Elec       q    Type
REMARK                         _______ _______ _______ _____ _____    ______ ____
ROOT
ATOM      1  C   UNL     1       6.666  -0.089   5.183  0.00  0.00    -0.008 A 
ATOM      2  C   UNL     1       6.449  -1.020   6.185  0.00  0.00    +0.118 A 
ATOM      3  N   UNL     1       7.266  -2.054   6.470  0.00  0.00    -0.235 NA
ATOM      4  C   UNL     1       8.316  -2.290   5.680  0.00  0.00    +0.167 A 
ATOM      5  C   UNL     1       8.608  -1.456   4.602  0.00  0.00    +0.062 A 
ATOM      6  C   UNL     1       9.619  -1.954   3.759  0.00  0.00    +0.131 A 
ATOM      7  N   UNL     1      10.366  -3.018   4.058  0.00  0.00    -0.199 NA
ATOM      8  C   UNL     1      10.090  -3.631   5.199  0.00  0.00    +0.216 A 
ATOM      9  N   UNL     1      10.920  -4.671   5.563  0.00  0.00    -0.327 N 
ATOM     10  H   UNL     1      10.425  -5.318   6.161  0.00  0.00    +0.145 HD
ATOM     11  H   UNL     1      11.379  -5.046   4.745  0.00  0.00    +0.145 HD
ATOM     12  N   UNL     1       9.063  -3.343   5.989  0.00  0.00    -0.195 NA
ATOM     13  C   UNL     1       7.855  -0.241   4.460  0.00  0.00    -0.030 A 
ATOM     14  C   UNL     1       8.395   0.890   3.630  0.00  0.00    +0.045 C 
ENDROOT
BRANCH   6  15
ATOM     15  N   UNL     1       9.836  -1.485   2.462  0.00  0.00    -0.342 N 
ATOM     16  H   UNL     1      10.599  -2.027   2.065  0.00  0.00    +0.144 HD
ATOM     17  H   UNL     1      10.007  -0.494   2.396  0.00  0.00    +0.144 HD
ENDBRANCH   6  15
BRANCH   1  18
ATOM     18  C   UNL     1       5.648   1.006   4.951  0.00  0.00    +0.141 C 
BRANCH  18  19
ATOM     19  N   UNL     1       5.214   1.109   3.546  0.00  0.00    -0.328 N 
ATOM     20  C   UNL     1       5.459   2.386   2.874  0.00  0.00    +0.129 C 
BRANCH  19  25
ATOM     21  C   UNL     1       3.275  -0.637   0.853  0.00  0.00    +0.167 A 
ATOM     22  C   UNL     1       2.989  -1.882   1.438  0.00  0.00    +0.204 A 
ATOM     23  C   UNL     1       3.340  -2.074   2.785  0.00  0.00    +0.167 A 
ATOM     24  C   UNL     1       4.040  -1.061   3.486  0.00  0.00    +0.072 A 
ATOM     25  C   UNL     1       4.432   0.147   2.903  0.00  0.00    +0.037 A 
ATOM     26  C   UNL     1       3.996   0.327   1.581  0.00  0.00    +0.072 A 
BRANCH  21  28
ATOM     27  C   UNL     1       2.705   0.964  -0.820  0.00  0.00    +0.277 C 
ATOM     28  O   UNL     1       2.854  -0.399  -0.434  0.00  0.00    -0.491 OA
ENDBRANCH  21  28
BRANCH  22  29
ATOM     29  O   UNL     1       2.309  -2.884   0.793  0.00  0.00    -0.488 OA
ATOM     30  C   UNL     1       2.610  -3.087  -0.585  0.00  0.00    +0.277 C 
ENDBRANCH  22  29
BRANCH  23  31
ATOM     31  O   UNL     1       3.104  -3.167   3.584  0.00  0.00    -0.491 OA
ATOM     32  C   UNL     1       2.478  -4.313   3.028  0.00  0.00    +0.277 C 
ENDBRANCH  23  31
ENDBRANCH  19  25
ENDBRANCH  18  19
ENDBRANCH   1  18
TORSDOF 7
