REMARK  Name = 
REMARK  18 active torsions:
REMARK  status: ('A' for Active; 'I' for Inactive)
REMARK    1  A    between atoms: O_1  and  C_2
REMARK    2  A    between atoms: C_4  and  C_6
REMARK    3  A    between atoms: C_6  and  O_7
REMARK    4  A    between atoms: O_7  and  P_8
REMARK    5  A    between atoms: P_8  and  O_9
REMARK    6  A    between atoms: P_8  and  O_11
REMARK    7  A    between atoms: O_11  and  P_12
REMARK    8  A    between atoms: P_12  and  O_13
REMARK    9  A    between atoms: P_12  and  O_15
REMARK   10  A    between atoms: O_15  and  C_16
REMARK   11  A    between atoms: C_19  and  C_21
REMARK   12  A    between atoms: C_21  and  S_22
REMARK   13  A    between atoms: S_22  and  O_23
REMARK   14  A    between atoms: C_26  and  O_28
REMARK   15  A    between atoms: C_29  and  O_31
REMARK   16  A    between atoms: C_32  and  O_34
REMARK   17  A    between atoms: C_36  and  N_41
REMARK   18  A    between atoms: C_38  and  O_40
REMARK                            x       y       z     vdW  Elec       q    Type
REMARK                         _______ _______ _______ _____ _____    ______ ____
ROOT
ATOM      1  P   UNL     1       2.750   4.990   0.307  0.00  0.00    +0.483 P 
ATOM      2  O   UNL     1       2.447   4.253  -1.011  0.00  0.00    -0.227 OA
ENDROOT
BRANCH   1   3
ATOM      3  O   UNL     1       2.768   3.454   1.104  0.00  0.00    -0.302 OA
ATOM      4  H   UNL     1       1.868   3.087   1.024  0.00  0.00    +0.222 HD
ENDBRANCH   1   3
BRANCH   1   5
ATOM      5  O   UNL     1       2.731   6.525  -0.490  0.00  0.00    -0.186 OA
BRANCH   5   6
ATOM      6  P   UNL     1       1.124   7.165  -0.472  0.00  0.00    +0.486 P 
ATOM      7  O   UNL     1       1.274   7.130   1.052  0.00  0.00    -0.227 OA
BRANCH   6   8
ATOM      8  O   UNL     1       0.440   5.727  -0.821  0.00  0.00    -0.302 OA
ATOM      9  H   UNL     1       0.515   5.424  -1.745  0.00  0.00    +0.222 HD
ENDBRANCH   6   8
BRANCH   6  10
ATOM     10  O   UNL     1      -0.483   7.805  -0.454  0.00  0.00    -0.254 OA
BRANCH  10  11
ATOM     11  C   UNL     1      -0.597   8.772   0.645  0.00  0.00    +0.293 C 
ATOM     12  C   UNL     1      -1.986   9.279   1.050  0.00  0.00    +0.202 C 
ATOM     13  C   UNL     1      -2.424  10.542   0.316  0.00  0.00    +0.179 C 
ATOM     14  C   UNL     1      -1.301  11.499  -0.151  0.00  0.00    +0.176 C 
ATOM     15  C   UNL     1       0.122  10.927  -0.298  0.00  0.00    +0.176 C 
ATOM     16  O   UNL     1       0.368   9.839   0.603  0.00  0.00    -0.341 OA
BRANCH  14  17
ATOM     17  O   UNL     1      -1.228  12.580   0.810  0.00  0.00    -0.387 OA
ATOM     18  H   UNL     1      -0.855  12.227   1.641  0.00  0.00    +0.210 HD
ENDBRANCH  14  17
BRANCH  13  19
ATOM     19  O   UNL     1      -3.253  10.127  -0.773  0.00  0.00    -0.386 OA
ATOM     20  H   UNL     1      -3.311  10.849  -1.421  0.00  0.00    +0.210 HD
ENDBRANCH  13  19
BRANCH  12  21
ATOM     21  O   UNL     1      -1.937   9.606   2.465  0.00  0.00    -0.384 OA
ATOM     22  H   UNL     1      -2.855   9.656   2.788  0.00  0.00    +0.210 HD
ENDBRANCH  12  21
BRANCH  15  23
ATOM     23  C   UNL     1       0.668  10.515  -1.655  0.00  0.00    +0.232 C 
BRANCH  23  24
ATOM     24  S   UNL     1       0.654  11.709  -2.962  0.00  0.00    +0.082 S 
ATOM     25  O   UNL     1      -0.696  12.148  -3.217  0.00  0.00    -0.147 OA
ATOM     26  O   UNL     1       1.510  11.225  -4.021  0.00  0.00    -0.147 OA
BRANCH  24  27
ATOM     27  O   UNL     1       1.475  12.905  -2.260  0.00  0.00    -0.254 OA
ATOM     28  H   UNL     1       2.175  13.199  -2.886  0.00  0.00    +0.244 HD
ENDBRANCH  24  27
ENDBRANCH  23  24
ENDBRANCH  15  23
ENDBRANCH  10  11
ENDBRANCH   6  10
ENDBRANCH   5   6
ENDBRANCH   1   5
BRANCH   1  29
ATOM     29  O   UNL     1       4.400   5.025   0.391  0.00  0.00    -0.284 OA
BRANCH  29  30
ATOM     30  C   UNL     1       5.058   6.203   0.826  0.00  0.00    +0.206 C 
BRANCH  30  35
ATOM     31  C   UNL     1       5.250   5.448   3.211  0.00  0.00    +0.178 C 
ATOM     32  C   UNL     1       5.525   6.201   4.505  0.00  0.00    +0.195 C 
ATOM     33  C   UNL     1       5.704   7.665   4.041  0.00  0.00    +0.255 C 
ATOM     34  O   UNL     1       5.409   7.752   2.640  0.00  0.00    -0.346 OA
ATOM     35  C   UNL     1       4.745   6.536   2.275  0.00  0.00    +0.178 C 
BRANCH  33  36
ATOM     36  N   UNL     1       4.927   8.699   4.735  0.00  0.00    -0.271 N 
ATOM     37  C   UNL     1       3.585   8.491   5.045  0.00  0.00    +0.331 A 
ATOM     38  O   UNL     1       2.963   7.466   4.801  0.00  0.00    -0.246 OA
ATOM     39  N   UNL     1       2.943   9.534   5.654  0.00  0.00    -0.275 N 
ATOM     40  H   UNL     1       1.976   9.373   5.903  0.00  0.00    +0.173 HD
ATOM     41  C   UNL     1       3.471  10.760   5.923  0.00  0.00    +0.254 A 
ATOM     42  O   UNL     1       2.851  11.647   6.501  0.00  0.00    -0.268 OA
ATOM     43  C   UNL     1       4.860  10.952   5.495  0.00  0.00    +0.088 A 
ATOM     44  C   UNL     1       5.512   9.937   4.929  0.00  0.00    +0.098 A 
ENDBRANCH  33  36
BRANCH  31  45
ATOM     45  O   UNL     1       4.289   4.411   3.394  0.00  0.00    -0.386 OA
ATOM     46  H   UNL     1       4.187   3.931   2.544  0.00  0.00    +0.210 HD
ENDBRANCH  31  45
BRANCH  32  47
ATOM     47  O   UNL     1       6.742   5.706   5.096  0.00  0.00    -0.385 OA
ATOM     48  H   UNL     1       6.674   5.860   6.054  0.00  0.00    +0.210 HD
ENDBRANCH  32  47
ENDBRANCH  30  35
ENDBRANCH  29  30
ENDBRANCH   1  29
TORSDOF 18
