REMARK  Name = 
REMARK  7 active torsions:
REMARK  status: ('A' for Active; 'I' for Inactive)
REMARK    1  A    between atoms: C_2  and  C_4
REMARK    2  A    between atoms: C_4  and  O_5
REMARK    3  A    between atoms: C_7  and  C_9
REMARK    4  A    between atoms: C_9  and  O_10
REMARK    5  A    between atoms: C_11  and  O_13
REMARK    6  A    between atoms: C_14  and  O_16
REMARK    7  A    between atoms: C_17  and  O_19
REMARK                            x       y       z     vdW  Elec       q    Type
REMARK                         _______ _______ _______ _____ _____    ______ ____
ROOT
ATOM      1  C   UNL     1       3.375   0.763  -1.051  0.00  0.00    +0.276 C 
ATOM      2  C   UNL     1       3.778   2.163  -0.518  0.00  0.00    +0.214 C 
ATOM      3  C   UNL     1       2.557   3.088  -0.359  0.00  0.00    +0.180 C 
ATOM      4  C   UNL     1       1.733   3.099  -1.647  0.00  0.00    +0.177 C 
ATOM      5  C   UNL     1       1.360   1.679  -2.097  0.00  0.00    +0.178 C 
ATOM      6  O   UNL     1       2.484   0.795  -2.165  0.00  0.00    -0.331 OA
ENDROOT
BRANCH   1  10
ATOM      7  N   UNL     1       5.509  -0.454  -0.565  0.00  0.00    -0.325 N 
ATOM      8  H   UNL     1       5.435  -0.085   0.376  0.00  0.00    +0.145 HD
ATOM      9  H   UNL     1       6.412  -0.789  -0.875  0.00  0.00    +0.145 HD
ATOM     10  C   UNL     1       4.699   0.062  -1.539  0.00  0.00    +0.273 C 
ATOM     11  O   UNL     1       5.016  -0.068  -2.721  0.00  0.00    -0.270 OA
ENDBRANCH   1  10
BRANCH   1  12
ATOM     12  O   UNL     1       2.775   0.006  -0.004  0.00  0.00    -0.356 OA
ATOM     13  H   UNL     1       2.715  -0.900  -0.349  0.00  0.00    +0.213 HD
ENDBRANCH   1  12
BRANCH   2  14
ATOM     14  O   UNL     1       4.439   2.059   0.761  0.00  0.00    -0.383 OA
ATOM     15  H   UNL     1       3.710   1.832   1.378  0.00  0.00    +0.210 HD
ENDBRANCH   2  14
BRANCH   3  16
ATOM     16  O   UNL     1       1.772   2.683   0.768  0.00  0.00    -0.386 OA
ATOM     17  H   UNL     1       1.075   3.351   0.901  0.00  0.00    +0.210 HD
ENDBRANCH   3  16
BRANCH   4  18
ATOM     18  O   UNL     1       2.515   3.752  -2.654  0.00  0.00    -0.386 OA
ATOM     19  H   UNL     1       2.063   3.654  -3.511  0.00  0.00    +0.210 HD
ENDBRANCH   4  18
BRANCH   5  20
ATOM     20  C   UNL     1       0.205   1.050  -1.304  0.00  0.00    +0.190 C 
BRANCH  20  21
ATOM     21  O   UNL     1      -0.228  -0.144  -1.960  0.00  0.00    -0.392 OA
ATOM     22  H   UNL     1       0.580  -0.616  -2.239  0.00  0.00    +0.210 HD
ENDBRANCH  20  21
ENDBRANCH   5  20
TORSDOF 7
