REMARK  Name = 
REMARK  16 active torsions:
REMARK  status: ('A' for Active; 'I' for Inactive)
REMARK    1  A    between atoms: C_2  and  O_38
REMARK    2  A    between atoms: N_3  and  C_4
REMARK    3  A    between atoms: C_4  and  C_6
REMARK    4  A    between atoms: C_4  and  C_13
REMARK    5  A    between atoms: C_6  and  C_7
REMARK    6  A    between atoms: N_15  and  C_16
REMARK    7  A    between atoms: C_16  and  C_18
REMARK    8  A    between atoms: C_16  and  C_26
REMARK    9  A    between atoms: C_18  and  C_19
REMARK   10  A    between atoms: C_19  and  C_20
REMARK   11  A    between atoms: C_26  and  C_27
REMARK   12  A    between atoms: C_27  and  S_28
REMARK   13  A    between atoms: S_28  and  C_31
REMARK   14  A    between atoms: C_31  and  C_32
REMARK   15  A    between atoms: O_38  and  C_39
REMARK   16  A    between atoms: C_39  and  C_40
REMARK                            x       y       z     vdW  Elec       q    Type
REMARK                         _______ _______ _______ _____ _____    ______ ____
ROOT
ATOM      1  C   UNL     1       4.699   4.727   1.590  0.00  0.00    +0.234 C 
ATOM      2  N   UNL     1       4.371   5.905   0.981  0.00  0.00    -0.311 N 
ATOM      3  H   UNL     1       4.826   6.694   1.431  0.00  0.00    +0.149 HD
ATOM      4  O   UNL     1       5.406   4.777   2.602  0.00  0.00    -0.274 OA
ENDROOT
BRANCH   2   5
ATOM      5  C   UNL     1       3.711   6.154  -0.305  0.00  0.00    +0.075 C 
BRANCH   5   6
ATOM      6  C   UNL     1       4.709   6.088  -1.477  0.00  0.00    +0.027 C 
BRANCH   6   7
ATOM      7  C   UNL     1       5.785   7.182  -1.487  0.00  0.00    +0.037 C 
BRANCH   7   8
ATOM      8  C   UNL     1       6.704   7.069  -2.682  0.00  0.00    -0.047 A 
ATOM      9  C   UNL     1       7.494   5.926  -2.874  0.00  0.00    +0.003 A 
ATOM     10  C   UNL     1       8.335   5.814  -3.979  0.00  0.00    +0.000 A 
ATOM     11  C   UNL     1       8.403   6.850  -4.909  0.00  0.00    +0.000 A 
ATOM     12  C   UNL     1       7.633   7.998  -4.729  0.00  0.00    +0.000 A 
ATOM     13  C   UNL     1       6.784   8.109  -3.618  0.00  0.00    +0.003 A 
ENDBRANCH   7   8
ENDBRANCH   6   7
ENDBRANCH   5   6
BRANCH   5  14
ATOM     14  C   UNL     1       2.945   7.481  -0.226  0.00  0.00    +0.045 C 
BRANCH  14  15
ATOM     15  C   UNL     1       2.095   7.774  -1.462  0.00  0.00    +0.168 C 
BRANCH  15  16
ATOM     16  S   UNL     1       1.298   9.364  -1.297  0.00  0.00    -0.027 S 
ATOM     17  O   UNL     1       2.344  10.363  -1.422  0.00  0.00    -0.174 OA
ATOM     18  O   UNL     1       0.463   9.286  -0.112  0.00  0.00    -0.174 OA
BRANCH  16  19
ATOM     19  C   UNL     1       0.243   9.438  -2.747  0.00  0.00    +0.201 C 
BRANCH  19  20
ATOM     20  C   UNL     1      -0.543  10.721  -2.710  0.00  0.00    -0.027 A 
ATOM     21  C   UNL     1      -1.751  10.795  -2.004  0.00  0.00    +0.005 A 
ATOM     22  C   UNL     1      -2.456  11.997  -1.928  0.00  0.00    +0.000 A 
ATOM     23  C   UNL     1      -1.963  13.136  -2.559  0.00  0.00    +0.000 A 
ATOM     24  C   UNL     1      -0.765  13.074  -3.268  0.00  0.00    +0.000 A 
ATOM     25  C   UNL     1      -0.054  11.875  -3.344  0.00  0.00    +0.005 A 
ENDBRANCH  19  20
ENDBRANCH  16  19
ENDBRANCH  15  16
ENDBRANCH  14  15
ENDBRANCH   5  14
ENDBRANCH   2   5
BRANCH   1  26
ATOM     26  C   UNL     1       4.210   3.382   1.030  0.00  0.00    +0.166 C 
BRANCH  26  29
ATOM     27  O   UNL     1       5.631   2.831  -1.355  0.00  0.00    -0.226 OA
ATOM     28  C   UNL     1       6.073   2.460  -0.279  0.00  0.00    +0.401 C 
ATOM     29  N   UNL     1       5.403   2.545   0.902  0.00  0.00    -0.269 N 
ATOM     30  H   UNL     1       5.936   2.327   1.734  0.00  0.00    +0.153 HD
BRANCH  28  31
ATOM     31  O   UNL     1       7.307   1.949  -0.074  0.00  0.00    -0.446 OA
BRANCH  31  32
ATOM     32  C   UNL     1       8.142   1.879  -1.240  0.00  0.00    +0.269 C 
BRANCH  32  33
ATOM     33  C   UNL     1       9.466   2.570  -1.003  0.00  0.00    -0.010 A 
ATOM     34  C   UNL     1       9.571   3.712  -0.196  0.00  0.00    +0.007 A 
ATOM     35  C   UNL     1      10.803   4.344  -0.017  0.00  0.00    +0.000 A 
ATOM     36  C   UNL     1      11.940   3.852  -0.653  0.00  0.00    +0.000 A 
ATOM     37  C   UNL     1      11.844   2.738  -1.483  0.00  0.00    +0.000 A 
ATOM     38  C   UNL     1      10.613   2.105  -1.664  0.00  0.00    +0.007 A 
ENDBRANCH  32  33
ENDBRANCH  31  32
ENDBRANCH  28  31
ENDBRANCH  26  29
BRANCH  26  39
ATOM     39  C   UNL     1       3.165   2.769   1.981  0.00  0.00    +0.067 C 
BRANCH  39  40
ATOM     40  C   UNL     1       2.659   1.450   1.437  0.00  0.00    -0.045 A 
ATOM     41  C   UNL     1       1.642   1.419   0.475  0.00  0.00    +0.004 A 
ATOM     42  C   UNL     1       1.308   0.220  -0.158  0.00  0.00    +0.000 A 
ATOM     43  C   UNL     1       1.984  -0.955   0.169  0.00  0.00    +0.000 A 
ATOM     44  C   UNL     1       2.969  -0.941   1.154  0.00  0.00    +0.000 A 
ATOM     45  C   UNL     1       3.298   0.254   1.793  0.00  0.00    +0.004 A 
ENDBRANCH  39  40
ENDBRANCH  26  39
ENDBRANCH   1  26
TORSDOF 16
