REMARK  Name = 
REMARK  9 active torsions:
REMARK  status: ('A' for Active; 'I' for Inactive)
REMARK    1  A    between atoms: C_1  and  C_2
REMARK    2  A    between atoms: C_5  and  C_6
REMARK    3  A    between atoms: C_6  and  O_7
REMARK    4  A    between atoms: O_7  and  P_8
REMARK    5  A    between atoms: P_8  and  O_9
REMARK    6  A    between atoms: P_8  and  O_10
REMARK    7  A    between atoms: C_12  and  C_13
REMARK    8  A    between atoms: C_13  and  O_14
REMARK    9  A    between atoms: C_15  and  O_16
REMARK                            x       y       z     vdW  Elec       q    Type
REMARK                         _______ _______ _______ _____ _____    ______ ____
ROOT
ATOM      1  C   UNL     1       0.911   0.039   0.036  0.00  0.00    +0.069 C 
ATOM      2  C   UNL     1       2.406  -0.051   0.014  0.00  0.00    +0.080 A 
ATOM      3  C   UNL     1       3.050  -1.289   0.004  0.00  0.00    +0.143 A 
ATOM      4  C   UNL     1       4.456  -1.362   0.054  0.00  0.00    +0.028 A 
ATOM      5  C   UNL     1       5.166  -0.142   0.082  0.00  0.00    +0.006 A 
ATOM      6  C   UNL     1       4.423   1.044   0.054  0.00  0.00    +0.117 A 
ATOM      7  N   UNL     1       3.084   1.118   0.027  0.00  0.00    -0.256 NA
ENDROOT
BRANCH   3   8
ATOM      8  O   UNL     1       2.268  -2.409  -0.067  0.00  0.00    -0.505 OA
ATOM      9  H   UNL     1       2.869  -3.177  -0.202  0.00  0.00    +0.292 HD
ENDBRANCH   3   8
BRANCH   4  10
ATOM     10  C   UNL     1       5.203  -2.673   0.104  0.00  0.00    +0.195 C 
BRANCH  10  11
ATOM     11  O   UNL     1       4.323  -3.797   0.109  0.00  0.00    -0.390 OA
ATOM     12  H   UNL     1       4.433  -4.234   0.975  0.00  0.00    +0.210 HD
ENDBRANCH  10  11
ENDBRANCH   4  10
BRANCH   5  13
ATOM     13  C   UNL     1       6.668  -0.032   0.120  0.00  0.00    +0.209 C 
BRANCH  13  14
ATOM     14  O   UNL     1       6.992   0.983   1.049  0.00  0.00    -0.282 OA
BRANCH  14  15
ATOM     15  P   UNL     1       8.411   1.696   0.927  0.00  0.00    +0.473 P 
ATOM     16  O   UNL     1       9.532   0.831   0.465  0.00  0.00    -0.228 OA
BRANCH  15  17
ATOM     17  O   UNL     1       8.550   2.312   2.392  0.00  0.00    -0.303 OA
ATOM     18  H   UNL     1       8.376   1.647   3.082  0.00  0.00    +0.222 HD
ENDBRANCH  15  17
BRANCH  15  19
ATOM     19  O   UNL     1       8.077   2.977   0.040  0.00  0.00    -0.303 OA
ATOM     20  H   UNL     1       8.016   2.798  -0.911  0.00  0.00    +0.222 HD
ENDBRANCH  15  19
ENDBRANCH  14  15
ENDBRANCH  13  14
ENDBRANCH   5  13
TORSDOF 8
