REMARK  Name = 
REMARK  6 active torsions:
REMARK  status: ('A' for Active; 'I' for Inactive)
REMARK    1  A    between atoms: O_1  and  C_2
REMARK    2  A    between atoms: C_2  and  C_4
REMARK    3  A    between atoms: C_16  and  C_17
REMARK    4  A    between atoms: C_17  and  O_18
REMARK    5  A    between atoms: N_20  and  C_21
REMARK    6  A    between atoms: C_23  and  C_27
REMARK                            x       y       z     vdW  Elec       q    Type
REMARK                         _______ _______ _______ _____ _____    ______ ____
ROOT
ATOM      1  C   UNL     1       3.084   1.317  -0.234  0.00  0.00    +0.103 A 
ATOM      2  C   UNL     1       4.403   1.327  -0.730  0.00  0.00    +0.164 A 
ATOM      3  O   UNL     1       4.990   0.102  -0.905  0.00  0.00    -0.451 OA
ATOM      4  C   UNL     1       6.302   0.042  -1.293  0.00  0.00    +0.164 A 
ATOM      5  C   UNL     1       6.838  -1.250  -1.488  0.00  0.00    +0.103 A 
ATOM      6  C   UNL     1       8.176  -1.408  -1.849  0.00  0.00    +0.019 A 
ATOM      7  C   UNL     1       8.998  -0.296  -1.906  0.00  0.00    +0.003 A 
ATOM      8  C   UNL     1       8.468   0.976  -1.667  0.00  0.00    +0.027 A 
ATOM      9  C   UNL     1       7.090   1.196  -1.464  0.00  0.00    +0.082 A 
ATOM     10  N   UNL     1       6.470   2.515  -1.410  0.00  0.00    -0.263 N 
ATOM     11  C   UNL     1       5.060   2.534  -1.051  0.00  0.00    +0.082 A 
ATOM     12  C   UNL     1       4.272   3.701  -1.003  0.00  0.00    +0.027 A 
ATOM     13  C   UNL     1       2.977   3.705  -0.473  0.00  0.00    +0.003 A 
ATOM     14  C   UNL     1       2.394   2.517  -0.056  0.00  0.00    +0.019 A 
ENDROOT
BRANCH  10  15
ATOM     15  C   UNL     1       7.236   3.737  -1.653  0.00  0.00    +0.040 A 
ATOM     16  C   UNL     1       7.057   4.905  -0.886  0.00  0.00    +0.024 A 
ATOM     17  C   UNL     1       7.808   6.067  -1.113  0.00  0.00    +0.002 A 
ATOM     18  C   UNL     1       8.882   6.039  -1.993  0.00  0.00    +0.012 A 
ATOM     19  C   UNL     1       9.162   4.866  -2.698  0.00  0.00    +0.057 A 
ATOM     20  C   UNL     1       8.258   3.790  -2.621  0.00  0.00    +0.036 A 
BRANCH  19  21
ATOM     21  C   UNL     1      10.488   4.718  -3.408  0.00  0.00    +0.417 C 
ATOM     22  F   UNL     1      11.535   5.010  -2.590  0.00  0.00    -0.166 F 
ATOM     23  F   UNL     1      10.617   5.530  -4.490  0.00  0.00    -0.166 F 
ATOM     24  F   UNL     1      10.720   3.448  -3.851  0.00  0.00    -0.166 F 
ENDBRANCH  19  21
ENDBRANCH  10  15
BRANCH   1  25
ATOM     25  C   UNL     1       2.367   0.080   0.171  0.00  0.00    +0.340 C 
ATOM     26  O   UNL     1       1.571   0.064   1.094  0.00  0.00    -0.245 OA
BRANCH  25  27
ATOM     27  O   UNL     1       2.618  -1.001  -0.586  0.00  0.00    -0.477 OA
ATOM     28  H   UNL     1       3.233  -0.871  -1.338  0.00  0.00    +0.295 HD
ENDBRANCH  25  27
ENDBRANCH   1  25
BRANCH   5  29
ATOM     29  C   UNL     1       6.036  -2.499  -1.395  0.00  0.00    +0.340 C 
ATOM     30  O   UNL     1       6.238  -3.448  -2.132  0.00  0.00    -0.245 OA
BRANCH  29  31
ATOM     31  O   UNL     1       5.125  -2.515  -0.411  0.00  0.00    -0.477 OA
ATOM     32  H   UNL     1       5.102  -1.731   0.185  0.00  0.00    +0.295 HD
ENDBRANCH  29  31
ENDBRANCH   5  29
TORSDOF 6
