REMARK  Name = 
REMARK  11 active torsions:
REMARK  status: ('A' for Active; 'I' for Inactive)
REMARK    1  A    between atoms: C_1  and  C_2
REMARK    2  A    between atoms: C_2  and  C_6
REMARK    3  A    between atoms: C_3  and  C_4
REMARK    4  A    between atoms: C_4  and  O_5
REMARK    5  A    between atoms: C_7  and  C_8
REMARK    6  A    between atoms: C_9  and  C_10
REMARK    7  A    between atoms: C_9  and  C_11
REMARK    8  A    between atoms: C_12  and  C_13
REMARK    9  A    between atoms: C_14  and  C_15
REMARK   10  A    between atoms: C_20  and  C_21
REMARK   11  A    between atoms: C_20  and  C_22
REMARK                            x       y       z     vdW  Elec       q    Type
REMARK                         _______ _______ _______ _____ _____    ______ ____
ROOT
ATOM      1  C   UNL     1       7.416   1.707   3.517  0.00  0.00    +0.003 C 
ATOM      2  C   UNL     1       8.751   1.825   3.647  0.00  0.00    +0.005 C 
ENDROOT
BRANCH   2   3
ATOM      3  C   UNL     1       9.440   2.441   4.786  0.00  0.00    -0.035 C 
ATOM      4  C   UNL     1      10.409   1.515   5.544  0.00  0.00    -0.009 C 
ATOM      5  C   UNL     1       9.671   0.227   5.997  0.00  0.00    +0.016 C 
ATOM      6  C   UNL     1      11.572   1.085   4.613  0.00  0.00    +0.016 C 
ATOM      7  C   UNL     1      11.040   2.131   6.821  0.00  0.00    +0.019 C 
ATOM      8  C   UNL     1      10.891   3.617   7.073  0.00  0.00    +0.080 C 
ATOM      9  C   UNL     1       9.943   4.393   6.210  0.00  0.00    +0.159 C 
ATOM     10  O   UNL     1       9.745   5.586   6.452  0.00  0.00    -0.292 OA
ATOM     11  C   UNL     1       9.254   3.749   5.060  0.00  0.00    -0.004 C 
ATOM     12  C   UNL     1       8.412   4.717   4.262  0.00  0.00    +0.047 C 
ENDBRANCH   2   3
BRANCH   1  14
ATOM     13  C   UNL     1       5.372   1.109   2.321  0.00  0.00    +0.003 C 
ATOM     14  C   UNL     1       6.726   1.138   2.349  0.00  0.00    -0.050 C 
ATOM     15  C   UNL     1       7.616   0.638   1.231  0.00  0.00    +0.044 C 
BRANCH  13  17
ATOM     16  C   UNL     1       3.233   0.558   1.150  0.00  0.00    +0.003 C 
ATOM     17  C   UNL     1       4.573   0.594   1.225  0.00  0.00    +0.001 C 
BRANCH  16  19
ATOM     18  C   UNL     1       3.310  -0.497  -1.170  0.00  0.00    +0.043 C 
ATOM     19  C   UNL     1       2.495   0.021  -0.005  0.00  0.00    -0.052 C 
ATOM     20  C   UNL     1       1.146   0.028  -0.009  0.00  0.00    +0.004 C 
BRANCH  20  21
ATOM     21  C   UNL     1       0.256  -0.484  -1.099  0.00  0.00    +0.183 C 
BRANCH  21  22
ATOM     22  O   UNL     1      -0.931  -1.000  -0.514  0.00  0.00    -0.391 OA
ATOM     23  H   UNL     1      -0.668  -1.775   0.011  0.00  0.00    +0.210 HD
ENDBRANCH  21  22
ENDBRANCH  20  21
ENDBRANCH  16  19
ENDBRANCH  13  17
ENDBRANCH   1  14
TORSDOF 6
