REMARK  Name = 
REMARK  6 active torsions:
REMARK  status: ('A' for Active; 'I' for Inactive)
REMARK    1  A    between atoms: O_1  and  C_2
REMARK    2  A    between atoms: C_2  and  C_3
REMARK    3  A    between atoms: C_3  and  O_4
REMARK    4  A    between atoms: C_7  and  O_9
REMARK    5  A    between atoms: C_10  and  O_12
REMARK    6  A    between atoms: C_13  and  O_15
REMARK                            x       y       z     vdW  Elec       q    Type
REMARK                         _______ _______ _______ _____ _____    ______ ____
ROOT
ATOM      1  C   UNL     1       2.818  -0.315   1.482  0.00  0.00    +0.220 C 
ATOM      2  C   UNL     1       4.326   0.075   1.465  0.00  0.00    +0.207 C 
ATOM      3  C   UNL     1       5.078  -0.868   0.499  0.00  0.00    +0.179 C 
ATOM      4  C   UNL     1       4.814  -2.340   0.845  0.00  0.00    +0.171 C 
ATOM      5  C   UNL     1       3.307  -2.605   0.984  0.00  0.00    +0.197 C 
ATOM      6  O   UNL     1       2.676  -1.693   1.882  0.00  0.00    -0.342 OA
ENDROOT
BRANCH   1   7
ATOM      7  O   UNL     1       2.200  -0.130   0.200  0.00  0.00    -0.361 OA
ATOM      8  H   UNL     1       2.919  -0.019  -0.450  0.00  0.00    +0.213 HD
ENDBRANCH   1   7
BRANCH   2   9
ATOM      9  O   UNL     1       4.884   0.028   2.790  0.00  0.00    -0.384 OA
ATOM     10  H   UNL     1       5.819  -0.242   2.723  0.00  0.00    +0.210 HD
ENDBRANCH   2   9
BRANCH   3  11
ATOM     11  O   UNL     1       4.655  -0.592  -0.846  0.00  0.00    -0.386 OA
ATOM     12  H   UNL     1       5.163  -1.180  -1.437  0.00  0.00    +0.210 HD
ENDBRANCH   3  11
BRANCH   4  13
ATOM     13  O   UNL     1       5.539  -2.679   2.032  0.00  0.00    -0.387 OA
ATOM     14  H   UNL     1       4.941  -3.177   2.622  0.00  0.00    +0.210 HD
ENDBRANCH   4  13
BRANCH   1  15
ATOM     15  C   UNL     1       2.030   0.547   2.494  0.00  0.00    +0.223 C 
BRANCH  15  16
ATOM     16  O   UNL     1       2.158   1.950   2.229  0.00  0.00    -0.390 OA
ATOM     17  H   UNL     1       1.574   2.401   2.860  0.00  0.00    +0.210 HD
ENDBRANCH  15  16
ENDBRANCH   1  15
TORSDOF 6
