REMARK  Name = 
REMARK  12 active torsions:
REMARK  status: ('A' for Active; 'I' for Inactive)
REMARK    1  A    between atoms: N_1  and  C_2
REMARK    2  A    between atoms: C_2  and  C_4
REMARK    3  A    between atoms: C_2  and  C_14
REMARK    4  A    between atoms: C_4  and  C_5
REMARK    5  A    between atoms: C_5  and  S_6
REMARK    6  A    between atoms: S_6  and  C_7
REMARK    7  A    between atoms: C_7  and  C_8
REMARK    8  A    between atoms: C_8  and  C_9
REMARK    9  A    between atoms: C_9  and  C_10
REMARK   10  A    between atoms: C_10  and  C_11
REMARK   11  A    between atoms: C_11  and  O_12
REMARK   12  A    between atoms: C_14  and  O_15
REMARK                            x       y       z     vdW  Elec       q    Type
REMARK                         _______ _______ _______ _____ _____    ______ ____
ROOT
ATOM      1  C   UNK     1       2.524   2.235   1.104  0.00  0.00    +0.071 C 
ENDROOT
BRANCH   1   2
ATOM      2  C   UNK     1       3.032   0.791   1.065  0.00  0.00    +0.040 C 
BRANCH   2   3
ATOM      3  C   UNK     1       2.516  -0.015  -0.133  0.00  0.00    +0.161 C 
BRANCH   3   4
ATOM      4  N   UNK     1       3.006  -1.430  -0.025  0.00  0.00    -0.318 NA
ATOM      5  H   UNK     1       3.925  -1.422   0.434  0.00  0.00    +0.119 HD
ATOM      6  H   UNK     1       2.405  -1.913   0.651  0.00  0.00    +0.119 HD
ENDBRANCH   3   4
BRANCH   3   7
ATOM      7  C   UNK     1       2.996   0.552  -1.484  0.00  0.00    +0.322 C 
ATOM      8  O   UNK     1       2.803   1.688  -1.885  0.00  0.00    -0.249 OA
BRANCH   7   9
ATOM      9  O   UNK     1       3.654  -0.389  -2.209  0.00  0.00    -0.480 OA
ATOM     10  H   UNK     1       3.599  -1.221  -1.674  0.00  0.00    +0.295 HD
ENDBRANCH   7   9
ENDBRANCH   3   7
ENDBRANCH   2   3
ENDBRANCH   1   2
BRANCH   1  11
ATOM     11  S   UNK     1       3.155   3.035   2.616  0.00  0.00    -0.161 S 
BRANCH  11  12
ATOM     12  C   UNK     1       2.531   4.725   2.331  0.00  0.00    +0.069 C 
BRANCH  12  13
ATOM     13  C   UNK     1       3.010   5.619   3.474  0.00  0.00    +0.011 C 
BRANCH  13  14
ATOM     14  C   UNK     1       2.484   7.050   3.347  0.00  0.00    +0.012 C 
BRANCH  14  15
ATOM     15  C   UNK     1       2.976   7.906   4.514  0.00  0.00    +0.120 C 
BRANCH  15  16
ATOM     16  C   UNK     1       2.472   9.328   4.438  0.00  0.00    +0.305 C 
ATOM     17  O   UNK     1       1.751   9.776   3.562  0.00  0.00    -0.251 OA
BRANCH  16  18
ATOM     18  O   UNK     1       2.910  10.081   5.474  0.00  0.00    -0.481 OA
ATOM     19  H   UNK     1       3.479   9.596   6.100  0.00  0.00    +0.295 HD
ENDBRANCH  16  18
ENDBRANCH  15  16
ENDBRANCH  14  15
ENDBRANCH  13  14
ENDBRANCH  12  13
ENDBRANCH  11  12
ENDBRANCH   1  11
TORSDOF 12
