REMARK  Name = 
REMARK  7 active torsions:
REMARK  status: ('A' for Active; 'I' for Inactive)
REMARK    1  A    between atoms: C_1  and  C_2
REMARK    2  A    between atoms: C_2  and  C_4
REMARK    3  A    between atoms: C_2  and  C_6
REMARK    4  A    between atoms: C_6  and  C_7
REMARK    5  A    between atoms: C_7  and  N_9
REMARK    6  A    between atoms: C_7  and  C_10
REMARK    7  A    between atoms: C_10  and  O_11
REMARK                            x       y       z     vdW  Elec       q    Type
REMARK                         _______ _______ _______ _____ _____    ______ ____
ROOT
ATOM      1  C   UNK     1       4.567  -0.923   1.188  0.00  0.00    +0.161 C 
ENDROOT
BRANCH   1   2
ATOM      2  N   UNK     1       4.974   0.429   1.666  0.00  0.00    -0.318 NA
ATOM      3  H   UNK     1       4.495   1.128   1.089  0.00  0.00    +0.119 HD
ATOM      4  H   UNK     1       4.565   0.567   2.598  0.00  0.00    +0.119 HD
ENDBRANCH   1   2
BRANCH   1   5
ATOM      5  C   UNK     1       5.203  -1.971   2.115  0.00  0.00    +0.322 C 
ATOM      6  O   UNK     1       4.809  -3.116   2.257  0.00  0.00    -0.249 OA
BRANCH   5   7
ATOM      7  O   UNK     1       6.304  -1.470   2.738  0.00  0.00    -0.480 OA
ATOM      8  H   UNK     1       6.393  -0.532   2.438  0.00  0.00    +0.295 HD
ENDBRANCH   5   7
ENDBRANCH   1   5
BRANCH   1   9
ATOM      9  C   UNK     1       5.061  -1.195  -0.240  0.00  0.00    +0.035 C 
BRANCH   9  11
ATOM     10  C   UNK     1       2.986  -0.342  -1.452  0.00  0.00    +0.010 C 
ATOM     11  C   UNK     1       4.510  -0.270  -1.343  0.00  0.00    +0.019 C 
BRANCH  11  12
ATOM     12  C   UNK     1       5.142  -0.641  -2.684  0.00  0.00    +0.216 C 
ATOM     13  F   UNK     1       4.708   0.226  -3.638  0.00  0.00    -0.249 F 
ENDBRANCH  11  12
ENDBRANCH   9  11
ENDBRANCH   1   9
TORSDOF 6
