REMARK  Name = 
REMARK  6 active torsions:
REMARK  status: ('A' for Active; 'I' for Inactive)
REMARK    1  A    between atoms: N_1  and  CA_2
REMARK    2  A    between atoms: CA_2  and  C_4
REMARK    3  A    between atoms: CA_2  and  C_10
REMARK    4  A    between atoms: C_4  and  N_5
REMARK    5  A    between atoms: N_8  and  O_9
REMARK    6  A    between atoms: C_10  and  O_11
REMARK                            x       y       z     vdW  Elec       q    Type
REMARK                         _______ _______ _______ _____ _____    ______ ____
ROOT
ATOM      1  C   UNL     1       3.000  -1.255  -0.697  0.00  0.00    +0.273 C 
ENDROOT
BRANCH   1   2
ATOM      2  N   UNL     1       2.418  -2.450  -0.075  0.00  0.00    -0.109 NA
ATOM      3  C   UNL     1       2.796  -3.599  -0.522  0.00  0.00    +0.407 C 
ATOM      4  N   UNL     1       2.299  -4.743   0.048  0.00  0.00    -0.142 N 
ATOM      5  H   UNL     1       1.906  -4.582   0.973  0.00  0.00    +0.299 HD
ATOM      6  N   UNL     1       3.657  -3.847  -1.549  0.00  0.00    -0.287 N 
ATOM      7  H   UNL     1       4.247  -4.648  -1.344  0.00  0.00    +0.255 HD
ATOM      8  H   UNL     1       4.209  -3.061  -1.862  0.00  0.00    +0.255 HD
BRANCH   4   9
ATOM      9  O   UNL     1       3.127  -5.867  -0.051  0.00  0.00    -0.233 OA
ATOM     10  H   UNL     1       2.821  -6.272  -0.887  0.00  0.00    +0.262 HD
ENDBRANCH   4   9
ENDBRANCH   1   2
BRANCH   1  11
ATOM     11  CA  UNL     1       2.482  -0.005   0.024  0.00  0.00    +0.198 C 
BRANCH  11  12
ATOM     12  N   UNL     1       0.983   0.084   0.011  0.00  0.00    -0.316 NA
ATOM     13  H1  UNL     1       0.677  -0.162  -0.938  0.00  0.00    +0.119 HD
ATOM     14  H2  UNL     1       0.673  -0.740   0.545  0.00  0.00    +0.119 HD
ENDBRANCH  11  12
BRANCH  11  15
ATOM     15  C   UNL     1       3.054   1.260  -0.626  0.00  0.00    +0.325 C 
ATOM     16  OXT UNL     1       4.171   1.371  -1.106  0.00  0.00    -0.249 OA
BRANCH  15  17
ATOM     17  O   UNL     1       2.154   2.277  -0.579  0.00  0.00    -0.479 OA
ATOM     18  H   UNL     1       1.335   1.891  -0.174  0.00  0.00    +0.295 HD
ENDBRANCH  15  17
ENDBRANCH  11  15
ENDBRANCH   1  11
TORSDOF 6
