REMARK  Name = 
REMARK  9 active torsions:
REMARK  status: ('A' for Active; 'I' for Inactive)
REMARK    1  A    between atoms: O_1  and  C_2
REMARK    2  A    between atoms: C_5  and  C_7
REMARK    3  A    between atoms: C_7  and  O_8
REMARK    4  A    between atoms: O_8  and  P_9
REMARK    5  A    between atoms: P_9  and  O_10
REMARK    6  A    between atoms: P_9  and  O_11
REMARK    7  A    between atoms: C_13  and  O_15
REMARK    8  A    between atoms: C_16  and  O_18
REMARK    9  A    between atoms: C_19  and  O_21
REMARK                            x       y       z     vdW  Elec       q    Type
REMARK                         _______ _______ _______ _____ _____    ______ ____
ROOT
ATOM      1  C   UNL     1       2.520   0.062  -0.041  0.00  0.00    +0.279 C 
ATOM      2  C   UNL     1       3.056   1.214  -0.919  0.00  0.00    +0.201 C 
ATOM      3  C   UNL     1       2.665   0.990  -2.389  0.00  0.00    +0.179 C 
ATOM      4  C   UNL     1       3.092  -0.412  -2.835  0.00  0.00    +0.177 C 
ATOM      5  C   UNL     1       2.534  -1.506  -1.900  0.00  0.00    +0.179 C 
ATOM      6  O   UNL     1       2.840  -1.244  -0.520  0.00  0.00    -0.341 OA
ENDROOT
BRANCH   1   7
ATOM      7  O   UNL     1       1.110   0.177   0.089  0.00  0.00    -0.365 OA
ATOM      8  H   UNL     1       0.899  -0.279   0.924  0.00  0.00    +0.213 HD
ENDBRANCH   1   7
BRANCH   2   9
ATOM      9  O   UNL     1       4.474   1.364  -0.771  0.00  0.00    -0.384 OA
ATOM     10  H   UNL     1       4.898   0.891  -1.517  0.00  0.00    +0.210 HD
ENDBRANCH   2   9
BRANCH   3  11
ATOM     11  O   UNL     1       1.269   1.200  -2.611  0.00  0.00    -0.386 OA
ATOM     12  H   UNL     1       0.796   1.044  -1.768  0.00  0.00    +0.210 HD
ENDBRANCH   3  11
BRANCH   4  13
ATOM     13  O   UNL     1       4.534  -0.467  -2.819  0.00  0.00    -0.386 OA
ATOM     14  H   UNL     1       4.789  -1.372  -3.082  0.00  0.00    +0.210 HD
ENDBRANCH   4  13
BRANCH   5  15
ATOM     15  C   UNL     1       1.059  -1.859  -2.134  0.00  0.00    +0.206 C 
BRANCH  15  16
ATOM     16  O   UNL     1       0.864  -2.067  -3.521  0.00  0.00    -0.284 OA
BRANCH  16  17
ATOM     17  P   UNL     1      -0.439  -2.845  -4.010  0.00  0.00    +0.472 P 
ATOM     18  O   UNL     1      -1.752  -2.263  -3.618  0.00  0.00    -0.228 OA
BRANCH  17  19
ATOM     19  O   UNL     1      -0.224  -4.325  -3.468  0.00  0.00    -0.303 OA
ATOM     20  H   UNL     1      -0.982  -4.600  -2.919  0.00  0.00    +0.222 HD
ENDBRANCH  17  19
BRANCH  17  21
ATOM     21  O   UNL     1      -0.226  -3.001  -5.583  0.00  0.00    -0.303 OA
ATOM     22  H   UNL     1      -0.373  -2.160  -6.051  0.00  0.00    +0.222 HD
ENDBRANCH  17  21
ENDBRANCH  16  17
ENDBRANCH  15  16
ENDBRANCH   5  15
TORSDOF 9
