REMARK  Name = 
REMARK  4 active torsions:
REMARK  status: ('A' for Active; 'I' for Inactive)
REMARK    1  A    between atoms: O_1  and  C_2
REMARK    2  A    between atoms: C_2  and  C_3
REMARK    3  A    between atoms: C_3  and  C_4
REMARK    4  A    between atoms: C_4  and  O_5
REMARK                            x       y       z     vdW  Elec       q    Type
REMARK                         _______ _______ _______ _____ _____    ______ ____
ROOT
ATOM      1  C   UNL     1       2.857   0.976  -0.931  0.00  0.00    +0.055 C 
ENDROOT
BRANCH   1   2
ATOM      2  C   UNL     1       2.330  -0.053   0.055  0.00  0.00    +0.158 C 
BRANCH   2   3
ATOM      3  O   UNL     1       2.746  -1.353  -0.339  0.00  0.00    -0.395 OA
ATOM      4  H   UNL     1       2.370  -1.981   0.302  0.00  0.00    +0.209 HD
ENDBRANCH   2   3
ENDBRANCH   1   2
BRANCH   1   5
ATOM      5  C   UNL     1       4.379   1.011  -0.966  0.00  0.00    +0.158 C 
BRANCH   5   6
ATOM      6  O   UNL     1       4.810   2.019  -1.874  0.00  0.00    -0.395 OA
ATOM      7  H   UNL     1       4.522   1.744  -2.761  0.00  0.00    +0.209 HD
ENDBRANCH   5   6
ENDBRANCH   1   5
TORSDOF 4
