REMARK  Name = 
REMARK  8 active torsions:
REMARK  status: ('A' for Active; 'I' for Inactive)
REMARK    1  A    between atoms: N_6  and  C_9
REMARK    2  A    between atoms: C_12  and  C_14
REMARK    3  A    between atoms: C_14  and  O_15
REMARK    4  A    between atoms: O_15  and  P_16
REMARK    5  A    between atoms: P_16  and  O_17
REMARK    6  A    between atoms: P_16  and  O_18
REMARK    7  A    between atoms: C_20  and  O_22
REMARK    8  A    between atoms: C_23  and  O_25
REMARK                            x       y       z     vdW  Elec       q    Type
REMARK                         _______ _______ _______ _____ _____    ______ ____
ROOT
ATOM      1  C   UNL     1       6.807  -0.165   0.114  0.00  0.00    +0.255 C 
ATOM      2  C   UNL     1       7.242  -1.423   0.892  0.00  0.00    +0.195 C 
ATOM      3  C   UNL     1       8.536  -1.007   1.592  0.00  0.00    +0.178 C 
ATOM      4  C   UNL     1       8.695   0.487   1.277  0.00  0.00    +0.178 C 
ATOM      5  O   UNL     1       7.416   0.939   0.818  0.00  0.00    -0.346 OA
ENDROOT
BRANCH   1  12
ATOM      6  N   UNL     1       7.829   0.268  -5.299  0.00  0.00    -0.343 N 
ATOM      7  H   UNL     1       8.761   0.081  -5.646  0.00  0.00    +0.144 HD
ATOM      8  H   UNL     1       7.405   1.104  -5.689  0.00  0.00    +0.144 HD
ATOM      9  C   UNL     1       7.610   0.148  -3.955  0.00  0.00    +0.123 A 
ATOM     10  C   UNL     1       8.432  -0.784  -3.170  0.00  0.00    +0.061 A 
ATOM     11  C   UNL     1       8.167  -0.836  -1.865  0.00  0.00    +0.096 A 
ATOM     12  N   UNL     1       7.154  -0.085  -1.307  0.00  0.00    -0.270 N 
ATOM     13  C   UNL     1       6.406   0.801  -2.092  0.00  0.00    +0.352 A 
ATOM     14  O   UNL     1       5.497   1.474  -1.604  0.00  0.00    -0.244 OA
ATOM     15  N   UNL     1       6.683   0.886  -3.436  0.00  0.00    -0.178 NA
ENDBRANCH   1  12
BRANCH   2  16
ATOM     16  O   UNL     1       6.264  -1.778   1.889  0.00  0.00    -0.385 OA
ATOM     17  H   UNL     1       5.985  -0.967   2.346  0.00  0.00    +0.210 HD
ENDBRANCH   2  16
BRANCH   3  18
ATOM     18  O   UNL     1       9.653  -1.751   1.101  0.00  0.00    -0.386 OA
ATOM     19  H   UNL     1      10.395  -1.602   1.716  0.00  0.00    +0.210 HD
ENDBRANCH   3  18
BRANCH   4  20
ATOM     20  C   UNL     1       9.150   1.244   2.525  0.00  0.00    +0.206 C 
BRANCH  20  21
ATOM     21  O   UNL     1       9.388   2.645   2.290  0.00  0.00    -0.284 OA
BRANCH  21  22
ATOM     22  P   UNL     1       9.991   3.598   3.602  0.00  0.00    +0.472 P 
ATOM     23  O   UNL     1      10.530   4.451   4.776  0.00  0.00    -0.228 OA
BRANCH  22  24
ATOM     24  O   UNL     1      11.035   2.381   3.928  0.00  0.00    -0.303 OA
ATOM     25  H   UNL     1      11.916   2.761   4.092  0.00  0.00    +0.222 HD
ENDBRANCH  22  24
BRANCH  22  26
ATOM     26  O   UNL     1       8.699   3.082   4.466  0.00  0.00    -0.303 OA
ATOM     27  H   UNL     1       7.930   3.658   4.310  0.00  0.00    +0.222 HD
ENDBRANCH  22  26
ENDBRANCH  21  22
ENDBRANCH  20  21
ENDBRANCH   4  20
TORSDOF 8
