REMARK  Name = 
REMARK  12 active torsions:
REMARK  status: ('A' for Active; 'I' for Inactive)
REMARK    1  A    between atoms: CB_1  and  CA_2
REMARK    2  A    between atoms: CA_2  and  N_4
REMARK    3  A    between atoms: CA_2  and  C_15
REMARK    4  A    between atoms: N_4  and  CE_5
REMARK    5  A    between atoms: CE_5  and  CD_6
REMARK    6  A    between atoms: CD_6  and  CG_7
REMARK    7  A    between atoms: CG_7  and  CB_8
REMARK    8  A    between atoms: CB_8  and  CA_9
REMARK    9  A    between atoms: CA_9  and  N_11
REMARK   10  A    between atoms: CA_9  and  C_12
REMARK   11  A    between atoms: C_12  and  O_13
REMARK   12  A    between atoms: C_15  and  O_16
REMARK                            x       y       z     vdW  Elec       q    Type
REMARK                         _______ _______ _______ _____ _____    ______ ____
ROOT
ATOM      1  CD  LYS A   1       2.757  -6.174   4.161  0.00  0.00    +0.015 C 
ENDROOT
BRANCH   1   2
ATOM      2  CE  LYS A   1       1.983  -5.138   4.983  0.00  0.00    +0.081 C 
BRANCH   2   3
ATOM      3  N   LYS A   1       0.538  -5.416   4.988  0.00  0.00    -0.304 NA
ATOM      4  H   LYS A   1       0.228  -5.445   4.012  0.00  0.00    +0.123 HD
BRANCH   3   6
ATOM      5  CB  LYS A   1       0.125  -4.147   7.119  0.00  0.00    +0.036 C 
ATOM      6  CA  LYS A   1      -0.223  -4.309   5.644  0.00  0.00    +0.160 C 
BRANCH   6   7
ATOM      7  C   LYS A   1      -1.719  -4.639   5.536  0.00  0.00    +0.322 C 
ATOM      8  OXT LYS A   1      -2.619  -3.814   5.543  0.00  0.00    -0.249 OA
BRANCH   7   9
ATOM      9  O   LYS A   1      -1.934  -5.978   5.445  0.00  0.00    -0.480 OA
ATOM     10  H   LYS A   1      -1.048  -6.414   5.458  0.00  0.00    +0.295 HD
ENDBRANCH   7   9
ENDBRANCH   6   7
ENDBRANCH   3   6
ENDBRANCH   2   3
ENDBRANCH   1   2
BRANCH   1  11
ATOM     11  CG  LYS A   1       2.325  -6.314   2.698  0.00  0.00    +0.003 C 
BRANCH  11  12
ATOM     12  CB  LYS A   1       2.445  -5.011   1.891  0.00  0.00    +0.030 C 
BRANCH  12  13
ATOM     13  CA  LYS A   1       1.963  -5.133   0.438  0.00  0.00    +0.161 C 
BRANCH  13  14
ATOM     14  N   LYS A   1       0.524  -5.515   0.385  0.00  0.00    -0.318 NA
ATOM     15  H1  LYS A   1      -0.015  -4.797   0.873  0.00  0.00    +0.119 HD
ATOM     16  H2  LYS A   1       0.213  -5.428  -0.592  0.00  0.00    +0.119 HD
ENDBRANCH  13  14
BRANCH  13  17
ATOM     17  C   LYS A   1       2.792  -6.182  -0.315  0.00  0.00    +0.322 C 
ATOM     18  OXT LYS A   1       3.919  -6.006  -0.749  0.00  0.00    -0.249 OA
BRANCH  17  19
ATOM     19  O   LYS A   1       2.127  -7.364  -0.398  0.00  0.00    -0.480 OA
ATOM     20  H   LYS A   1       1.254  -7.226   0.046  0.00  0.00    +0.295 HD
ENDBRANCH  17  19
ENDBRANCH  13  17
ENDBRANCH  12  13
ENDBRANCH  11  12
ENDBRANCH   1  11
TORSDOF 11
