REMARK  Name = 
REMARK  12 active torsions:
REMARK  status: ('A' for Active; 'I' for Inactive)
REMARK    1  A    between atoms: C_1  and  C_2
REMARK    2  A    between atoms: C_5  and  C_6
REMARK    3  A    between atoms: C_6  and  O_7
REMARK    4  A    between atoms: O_7  and  P_8
REMARK    5  A    between atoms: P_8  and  O_9
REMARK    6  A    between atoms: P_8  and  O_10
REMARK    7  A    between atoms: C_12  and  C_13
REMARK    8  A    between atoms: C_13  and  N_14
REMARK    9  A    between atoms: N_14  and  C_15
REMARK   10  A    between atoms: C_15  and  C_18
REMARK   11  A    between atoms: C_18  and  O_19
REMARK   12  A    between atoms: C_21  and  O_22
REMARK                            x       y       z     vdW  Elec       q    Type
REMARK                         _______ _______ _______ _____ _____    ______ ____
ROOT
ATOM      1  C   UNL     1       0.902   0.141  -0.044  0.00  0.00    +0.069 C 
ATOM      2  C   UNL     1       2.397   0.057  -0.138  0.00  0.00    +0.080 A 
ATOM      3  C   UNL     1       3.039  -1.176  -0.288  0.00  0.00    +0.142 A 
ATOM      4  C   UNL     1       4.447  -1.235  -0.310  0.00  0.00    +0.016 A 
ATOM      5  C   UNL     1       5.174  -0.028  -0.124  0.00  0.00    +0.005 A 
ATOM      6  C   UNL     1       4.432   1.151  -0.014  0.00  0.00    +0.117 A 
ATOM      7  N   UNL     1       3.081   1.216  -0.020  0.00  0.00    -0.256 NA
ENDROOT
BRANCH   3   8
ATOM      8  O   UNL     1       2.258  -2.297  -0.369  0.00  0.00    -0.505 OA
ATOM      9  H   UNL     1       2.816  -3.088  -0.449  0.00  0.00    +0.292 HD
ENDBRANCH   3   8
BRANCH   4  10
ATOM     10  C   UNL     1       5.153  -2.566  -0.398  0.00  0.00    +0.121 C 
BRANCH  10  11
ATOM     11  N   UNL     1       4.920  -3.322  -1.641  0.00  0.00    -0.297 NA
ATOM     12  H   UNL     1       5.248  -2.745  -2.425  0.00  0.00    +0.123 HD
BRANCH  11  13
ATOM     13  C   UNL     1       5.678  -4.647  -1.673  0.00  0.00    +0.117 C 
ATOM     14  C   UNL     1       6.526  -5.091  -0.488  0.00  0.00    +0.036 C 
ATOM     15  C   UNL     1       7.197  -4.627  -1.747  0.00  0.00    +0.036 C 
BRANCH  13  16
ATOM     16  C   UNL     1       4.975  -5.721  -2.496  0.00  0.00    +0.325 C 
ATOM     17  O   UNL     1       5.423  -6.840  -2.652  0.00  0.00    -0.249 OA
BRANCH  16  18
ATOM     18  O   UNL     1       3.810  -5.282  -3.034  0.00  0.00    -0.479 OA
ATOM     19  H   UNL     1       3.682  -4.355  -2.745  0.00  0.00    +0.295 HD
ENDBRANCH  16  18
ENDBRANCH  13  16
ENDBRANCH  11  13
ENDBRANCH  10  11
ENDBRANCH   4  10
BRANCH   5  20
ATOM     20  C   UNL     1       6.687   0.045  -0.086  0.00  0.00    +0.209 C 
BRANCH  20  21
ATOM     21  O   UNL     1       7.132   1.094   0.751  0.00  0.00    -0.282 OA
BRANCH  21  22
ATOM     22  P   UNL     1       8.848   1.276   0.869  0.00  0.00    +0.473 P 
ATOM     23  O   UNL     1      10.385   1.438   0.974  0.00  0.00    -0.228 OA
BRANCH  22  24
ATOM     24  O   UNL     1       8.532   2.436   1.976  0.00  0.00    -0.303 OA
ATOM     25  H   UNL     1       8.475   2.088   2.880  0.00  0.00    +0.222 HD
ENDBRANCH  22  24
BRANCH  22  26
ATOM     26  O   UNL     1       8.704   2.230  -0.454  0.00  0.00    -0.303 OA
ATOM     27  H   UNL     1       9.243   1.916  -1.197  0.00  0.00    +0.222 HD
ENDBRANCH  22  26
ENDBRANCH  21  22
ENDBRANCH  20  21
ENDBRANCH   5  20
TORSDOF 11
