REMARK  Name = 
REMARK  13 active torsions:
REMARK  status: ('A' for Active; 'I' for Inactive)
REMARK    1  A    between atoms: O_1  and  C_2
REMARK    2  A    between atoms: C_5  and  C_7
REMARK    3  A    between atoms: C_7  and  O_8
REMARK    4  A    between atoms: O_8  and  S_9
REMARK    5  A    between atoms: C_13  and  O_15
REMARK    6  A    between atoms: O_15  and  C_16
REMARK    7  A    between atoms: C_19  and  C_31
REMARK    8  A    between atoms: C_21  and  O_23
REMARK    9  A    between atoms: C_24  and  O_26
REMARK   10  A    between atoms: O_26  and  S_27
REMARK   11  A    between atoms: C_34  and  O_36
REMARK   12  A    between atoms: C_37  and  N_39
REMARK   13  A    between atoms: N_39  and  S_40
REMARK                            x       y       z     vdW  Elec       q    Type
REMARK                         _______ _______ _______ _____ _____    ______ ____
ROOT
ATOM      1  C   UNL     1       9.409   0.697  -4.350  0.00  0.00    +0.269 C 
ATOM      2  C   UNL     1       8.785  -0.358  -5.304  0.00  0.00    +0.162 C 
ATOM      3  C   UNL     1       7.618   0.272  -6.094  0.00  0.00    +0.169 C 
ATOM      4  C   UNL     1       6.633   1.008  -5.148  0.00  0.00    +0.184 C 
ATOM      5  C   UNL     1       7.392   2.076  -4.333  0.00  0.00    +0.181 C 
ATOM      6  O   UNL     1       8.483   1.472  -3.613  0.00  0.00    -0.342 OA
ENDROOT
BRANCH   1   7
ATOM      7  O   UNL     1      10.278   1.571  -5.054  0.00  0.00    -0.366 OA
ATOM      8  H   UNL     1      10.547   2.206  -4.363  0.00  0.00    +0.213 HD
ENDBRANCH   1   7
BRANCH   2   9
ATOM      9  N   UNL     1       8.367  -1.547  -4.496  0.00  0.00    -0.193 NA
ATOM     10  H   UNL     1       7.565  -1.311  -3.896  0.00  0.00    +0.147 HD
BRANCH   9  11
ATOM     11  S   UNL     1       7.995  -2.973  -5.319  0.00  0.00    -0.016 S 
ATOM     12  O   UNL     1       9.173  -3.210  -6.149  0.00  0.00    -0.169 OA
ATOM     13  O   UNL     1       6.777  -2.677  -6.058  0.00  0.00    -0.169 OA
ATOM     14  O   UNL     1       7.825  -3.923  -4.231  0.00  0.00    -0.710 OA
ENDBRANCH   9  11
ENDBRANCH   2   9
BRANCH   3  15
ATOM     15  O   UNL     1       8.103   1.053  -7.192  0.00  0.00    -0.387 OA
ATOM     16  H   UNL     1       8.732   1.728  -6.876  0.00  0.00    +0.210 HD
ENDBRANCH   3  15
BRANCH   4  17
ATOM     17  O   UNL     1       6.076  -0.038  -4.276  0.00  0.00    -0.331 OA
BRANCH  17  18
ATOM     18  C   UNL     1       4.910   0.345  -3.477  0.00  0.00    +0.342 C 
ATOM     19  C   UNL     1       4.170  -0.940  -2.970  0.00  0.00    +0.248 C 
ATOM     20  C   UNL     1       4.570  -1.326  -1.526  0.00  0.00    +0.178 C 
ATOM     21  C   UNL     1       5.749  -0.603  -1.001  0.00  0.00    +0.054 C 
ATOM     22  C   UNL     1       5.975   0.664  -1.374  0.00  0.00    +0.145 C 
ATOM     23  O   UNL     1       5.259   1.243  -2.416  0.00  0.00    -0.459 OA
BRANCH  22  24
ATOM     24  C   UNL     1       6.886   1.575  -0.475  0.00  0.00    +0.106 C 
ATOM     25  O   UNL     1       6.754   2.823  -0.634  0.00  0.00    -0.542 OA
ATOM     26  O   UNL     1       7.638   0.963   0.349  0.00  0.00    -0.542 OA
ENDBRANCH  22  24
BRANCH  20  27
ATOM     27  O   UNL     1       3.566  -1.026  -0.543  0.00  0.00    -0.385 OA
ATOM     28  H   UNL     1       2.767  -1.525  -0.820  0.00  0.00    +0.210 HD
ENDBRANCH  20  27
BRANCH  19  29
ATOM     29  O   UNL     1       2.745  -0.794  -3.102  0.00  0.00    -0.242 OA
BRANCH  29  30
ATOM     30  S   UNL     1       1.808  -2.132  -3.070  0.00  0.00    -0.000 S 
ATOM     31  O   UNL     1       2.373  -3.001  -4.096  0.00  0.00    -0.345 OA
ATOM     32  O   UNL     1       0.467  -1.639  -3.359  0.00  0.00    -0.345 OA
ATOM     33  O   UNL     1       1.964  -2.639  -1.708  0.00  0.00    -0.268 OA
ENDBRANCH  29  30
ENDBRANCH  19  29
ENDBRANCH  17  18
ENDBRANCH   4  17
BRANCH   5  34
ATOM     34  C   UNL     1       7.823   3.369  -5.050  0.00  0.00    +0.226 C 
BRANCH  34  35
ATOM     35  O   UNL     1       6.803   3.890  -5.882  0.00  0.00    -0.252 OA
BRANCH  35  36
ATOM     36  S   UNL     1       7.134   5.279  -6.678  0.00  0.00    -0.001 S 
ATOM     37  O   UNL     1       5.916   5.554  -7.433  0.00  0.00    -0.345 OA
ATOM     38  O   UNL     1       8.289   4.939  -7.507  0.00  0.00    -0.345 OA
ATOM     39  O   UNL     1       7.424   6.247  -5.624  0.00  0.00    -0.268 OA
ENDBRANCH  35  36
ENDBRANCH  34  35
ENDBRANCH   5  34
TORSDOF 13
