REMARK  Name = 
REMARK  12 active torsions:
REMARK  status: ('A' for Active; 'I' for Inactive)
REMARK    1  A    between atoms: O_1  and  C_2
REMARK    2  A    between atoms: C_2  and  C_3
REMARK    3  A    between atoms: C_3  and  O_5
REMARK    4  A    between atoms: C_3  and  C_6
REMARK    5  A    between atoms: C_6  and  O_8
REMARK    6  A    between atoms: C_6  and  C_9
REMARK    7  A    between atoms: C_9  and  O_11
REMARK    8  A    between atoms: C_9  and  C_12
REMARK    9  A    between atoms: C_12  and  O_13
REMARK   10  A    between atoms: O_13  and  P_14
REMARK   11  A    between atoms: P_14  and  O_15
REMARK   12  A    between atoms: P_14  and  O_16
REMARK                            x       y       z     vdW  Elec       q    Type
REMARK                         _______ _______ _______ _____ _____    ______ ____
ROOT
ATOM      1  C   UNL     1       4.752   2.567   1.171  0.00  0.00    +0.172 C 
ENDROOT
BRANCH   1   2
ATOM      2  O   UNL     1       4.485   2.571   2.573  0.00  0.00    -0.387 OA
ATOM      3  H   UNL     1       3.634   2.090   2.687  0.00  0.00    +0.210 HD
ENDBRANCH   1   2
BRANCH   1   4
ATOM      4  C   UNL     1       4.348   1.218   0.515  0.00  0.00    +0.176 C 
BRANCH   4   5
ATOM      5  O   UNL     1       4.955   0.097   1.177  0.00  0.00    -0.387 OA
ATOM      6  H   UNL     1       5.916   0.214   1.161  0.00  0.00    +0.210 HD
ENDBRANCH   4   5
BRANCH   4   7
ATOM      7  C   UNL     1       2.816   1.039   0.525  0.00  0.00    +0.171 C 
BRANCH   7   8
ATOM      8  O   UNL     1       2.300   1.114   1.869  0.00  0.00    -0.387 OA
ATOM      9  H   UNL     1       1.410   0.705   1.814  0.00  0.00    +0.210 HD
ENDBRANCH   7   8
BRANCH   7  10
ATOM     10  C   UNL     1       2.383  -0.295  -0.097  0.00  0.00    +0.189 C 
BRANCH  10  11
ATOM     11  O   UNL     1       0.952  -0.342  -0.098  0.00  0.00    -0.392 OA
ATOM     12  H   UNL     1       0.702  -1.169  -0.548  0.00  0.00    +0.210 HD
ENDBRANCH  10  11
ENDBRANCH   7  10
ENDBRANCH   4   7
ENDBRANCH   1   4
BRANCH   1  13
ATOM     13  C   UNL     1       6.227   2.911   0.958  0.00  0.00    +0.206 C 
BRANCH  13  14
ATOM     14  O   UNL     1       6.456   3.114  -0.425  0.00  0.00    -0.284 OA
BRANCH  14  15
ATOM     15  P   UNL     1       7.954   2.980  -0.954  0.00  0.00    +0.472 P 
ATOM     16  O   UNL     1       8.966   3.849  -0.306  0.00  0.00    -0.228 OA
BRANCH  15  17
ATOM     17  O   UNL     1       7.842   3.163  -2.532  0.00  0.00    -0.303 OA
ATOM     18  H   UNL     1       7.754   4.106  -2.775  0.00  0.00    +0.222 HD
ENDBRANCH  15  17
BRANCH  15  19
ATOM     19  O   UNL     1       8.273   1.424  -0.785  0.00  0.00    -0.303 OA
ATOM     20  H   UNL     1       9.121   1.305  -0.318  0.00  0.00    +0.222 HD
ENDBRANCH  15  19
ENDBRANCH  14  15
ENDBRANCH  13  14
ENDBRANCH   1  13
TORSDOF 12
