REMARK  Name = 
REMARK  5 active torsions:
REMARK  status: ('A' for Active; 'I' for Inactive)
REMARK    1  A    between atoms: C_1  and  O_2
REMARK    2  A    between atoms: O_2  and  C_3
REMARK    3  A    between atoms: C_5  and  N_9
REMARK    4  A    between atoms: C_15  and  S_17
REMARK    5  A    between atoms: S_17  and  N_18
REMARK                            x       y       z     vdW  Elec       q    Type
REMARK                         _______ _______ _______ _____ _____    ______ ____
ROOT
ATOM      1  N   UNL     1       6.495  -2.321   0.378  0.00  0.00    -0.202 N 
ATOM      2  S   UNL     1       7.030  -0.758  -0.103  0.00  0.00    +0.081 S 
ATOM      3  O   UNL     1       6.765   0.184   0.961  0.00  0.00    -0.149 OA
ATOM      4  O   UNL     1       6.649  -0.522  -1.479  0.00  0.00    -0.149 OA
ATOM      5  C   UNL     1       8.777  -0.947  -0.187  0.00  0.00    +0.151 A 
ATOM      6  S   UNL     1       9.748   0.431  -0.335  0.00  0.00    -0.048 S 
ATOM      7  C   UNL     1      11.168  -0.522  -0.439  0.00  0.00    +0.144 A 
ATOM      8  C   UNL     1      10.880  -1.875  -0.363  0.00  0.00    +0.042 A 
ATOM      9  C   UNL     1       9.477  -2.128  -0.214  0.00  0.00    -0.010 A 
ATOM     10  C   UNL     1       8.806  -3.462  -0.090  0.00  0.00    +0.058 C 
ATOM     11  C   UNL     1       7.255  -3.499  -0.161  0.00  0.00    +0.136 C 
ENDROOT
BRANCH   1  16
ATOM     12  C   UNL     1       3.023  -2.781  -1.038  0.00  0.00    +0.122 A 
ATOM     13  C   UNL     1       2.253  -2.401   0.058  0.00  0.00    +0.046 A 
ATOM     14  C   UNL     1       2.876  -2.010   1.248  0.00  0.00    +0.005 A 
ATOM     15  C   UNL     1       4.269  -2.012   1.353  0.00  0.00    +0.025 A 
ATOM     16  C   UNL     1       5.048  -2.422   0.273  0.00  0.00    +0.055 A 
ATOM     17  C   UNL     1       4.418  -2.768  -0.931  0.00  0.00    +0.070 A 
BRANCH  12  19
ATOM     18  C   UNL     1       1.139  -3.238  -2.423  0.00  0.00    +0.277 C 
ATOM     19  O   UNL     1       2.551  -3.177  -2.260  0.00  0.00    -0.495 OA
ENDBRANCH  12  19
ENDBRANCH   1  16
BRANCH   7  20
ATOM     20  S   UNL     1      12.686   0.373  -0.657  0.00  0.00    +0.062 S 
ATOM     21  O   UNL     1      13.667  -0.638  -0.956  0.00  0.00    -0.153 OA
ATOM     22  O   UNL     1      12.785   1.272   0.467  0.00  0.00    -0.153 OA
BRANCH  20  23
ATOM     23  N   UNL     1      12.498   1.290  -2.055  0.00  0.00    -0.203 NA
ATOM     24  H   UNL     1      12.444   0.717  -2.896  0.00  0.00    +0.144 HD
ATOM     25  H   UNL     1      11.756   1.989  -1.962  0.00  0.00    +0.144 HD
ENDBRANCH  20  23
ENDBRANCH   7  20
TORSDOF 4
