REMARK  Name = 
REMARK  7 active torsions:
REMARK  status: ('A' for Active; 'I' for Inactive)
REMARK    1  A    between atoms: C_1  and  O_2
REMARK    2  A    between atoms: O_2  and  C_3
REMARK    3  A    between atoms: C_5  and  O_7
REMARK    4  A    between atoms: C_8  and  O_10
REMARK    5  A    between atoms: C_11  and  O_13
REMARK    6  A    between atoms: C_15  and  C_17
REMARK    7  A    between atoms: C_17  and  O_18
REMARK                            x       y       z     vdW  Elec       q    Type
REMARK                         _______ _______ _______ _____ _____    ______ ____
ROOT
ATOM      1  C   UNL     1       3.039   0.387   1.316  0.00  0.00    +0.189 C 
ATOM      2  C   UNL     1       3.962   1.614   1.462  0.00  0.00    +0.260 C 
ATOM      3  O   UNL     1       5.178   1.500   0.719  0.00  0.00    -0.332 OA
ATOM      4  C   UNL     1       5.902   0.285   0.866  0.00  0.00    +0.280 C 
ATOM      5  C   UNL     1       5.062  -0.989   0.688  0.00  0.00    +0.201 C 
ATOM      6  C   UNL     1       3.819  -0.915   1.588  0.00  0.00    +0.180 C 
ENDROOT
BRANCH   1   8
ATOM      7  C   UNL     1       1.568   1.265  -0.377  0.00  0.00    +0.194 C 
ATOM      8  O   UNL     1       2.537   0.279  -0.039  0.00  0.00    -0.374 OA
ENDBRANCH   1   8
BRANCH   2   9
ATOM      9  C   UNL     1       4.084   2.043   2.930  0.00  0.00    +0.337 C 
ATOM     10  O   UNL     1       3.125   2.202   3.677  0.00  0.00    -0.248 OA
BRANCH   9  11
ATOM     11  O   UNL     1       5.350   2.294   3.327  0.00  0.00    -0.479 OA
ATOM     12  H   UNL     1       5.994   2.014   2.635  0.00  0.00    +0.295 HD
ENDBRANCH   9  11
ENDBRANCH   2   9
BRANCH   4  13
ATOM     13  O   UNL     1       6.515   0.307   2.149  0.00  0.00    -0.365 OA
ATOM     14  H   UNL     1       7.285  -0.293   2.090  0.00  0.00    +0.213 HD
ENDBRANCH   4  13
BRANCH   5  15
ATOM     15  O   UNL     1       4.716  -1.166  -0.689  0.00  0.00    -0.384 OA
ATOM     16  H   UNL     1       3.916  -0.622  -0.863  0.00  0.00    +0.210 HD
ENDBRANCH   5  15
BRANCH   6  17
ATOM     17  O   UNL     1       4.157  -1.048   2.970  0.00  0.00    -0.386 OA
ATOM     18  H   UNL     1       4.937  -0.499   3.184  0.00  0.00    +0.210 HD
ENDBRANCH   6  17
TORSDOF 6
