REMARK  Name = 
REMARK  10 active torsions:
REMARK  status: ('A' for Active; 'I' for Inactive)
REMARK    1  A    between atoms: C_1  and  C_2
REMARK    2  A    between atoms: C_2  and  C_3
REMARK    3  A    between atoms: C_3  and  C_4
REMARK    4  A    between atoms: C_4  and  N_5
REMARK    5  A    between atoms: C_9  and  C_10
REMARK    6  A    between atoms: C_10  and  C_11
REMARK    7  A    between atoms: C_14  and  N_15
REMARK    8  A    between atoms: C_16  and  C_17
REMARK    9  A    between atoms: N_24  and  C_25
REMARK   10  A    between atoms: C_25  and  C_26
REMARK                            x       y       z     vdW  Elec       q    Type
REMARK                         _______ _______ _______ _____ _____    ______ ____
ROOT
ATOM      1  N   UNL     1       5.126   0.640   2.694  0.00  0.00    -0.276 N 
ATOM      2  C   UNL     1       5.438  -0.432   3.537  0.00  0.00    +0.334 A 
ATOM      3  O   UNL     1       5.312  -1.602   3.162  0.00  0.00    -0.246 OA
ATOM      4  N   UNL     1       5.895  -0.123   4.836  0.00  0.00    -0.255 N 
ATOM      5  C   UNL     1       5.970   1.164   5.384  0.00  0.00    +0.283 A 
ATOM      6  O   UNL     1       6.306   1.423   6.534  0.00  0.00    -0.265 OA
ATOM      7  C   UNL     1       5.575   2.175   4.469  0.00  0.00    +0.149 A 
ATOM      8  N   UNL     1       5.474   3.531   4.611  0.00  0.00    -0.336 N 
ATOM      9  H   UNL     1       5.691   4.062   5.445  0.00  0.00    +0.167 HD
ATOM     10  C   UNL     1       4.970   4.024   3.422  0.00  0.00    +0.114 A 
ATOM     11  N   UNL     1       4.803   3.048   2.547  0.00  0.00    -0.214 NA
ATOM     12  C   UNL     1       5.173   1.916   3.199  0.00  0.00    +0.168 A 
ENDROOT
BRANCH   1  13
ATOM     13  C   UNL     1       4.663   0.402   1.326  0.00  0.00    +0.128 C 
BRANCH  13  14
ATOM     14  C   UNL     1       5.530   1.053   0.240  0.00  0.00    +0.021 C 
BRANCH  14  16
ATOM     15  C   UNL     1       7.803   1.258  -0.821  0.00  0.00    +0.004 C 
ATOM     16  C   UNL     1       6.976   0.556   0.246  0.00  0.00    -0.002 C 
ENDBRANCH  14  16
ENDBRANCH  13  14
ENDBRANCH   1  13
BRANCH   4  17
ATOM     17  C   UNL     1       6.258  -1.238   5.707  0.00  0.00    +0.168 C 
BRANCH  17  18
ATOM     18  C   UNL     1       7.740  -1.539   5.690  0.00  0.00    +0.008 A 
ATOM     19  C   UNL     1       8.515  -1.347   6.837  0.00  0.00    +0.128 A 
ATOM     20  F   UNL     1       7.945  -0.909   7.968  0.00  0.00    -0.205 F 
ATOM     21  C   UNL     1       9.882  -1.618   6.846  0.00  0.00    +0.039 A 
ATOM     22  C   UNL     1      10.499  -2.098   5.693  0.00  0.00    +0.003 A 
ATOM     23  C   UNL     1       9.742  -2.311   4.542  0.00  0.00    +0.000 A 
ATOM     24  C   UNL     1       8.371  -2.038   4.540  0.00  0.00    +0.008 A 
ENDBRANCH  17  18
ENDBRANCH   4  17
BRANCH  10  25
ATOM     25  C   UNL     1       4.610   5.461   3.201  0.00  0.00    +0.109 C 
BRANCH  25  26
ATOM     26  C   UNL     1       5.767   6.387   2.894  0.00  0.00    -0.040 A 
ATOM     27  C   UNL     1       5.675   7.742   3.242  0.00  0.00    +0.006 A 
ATOM     28  C   UNL     1       6.748   8.615   3.022  0.00  0.00    +0.023 A 
ATOM     29  C   UNL     1       7.930   8.155   2.432  0.00  0.00    +0.033 A 
ATOM     30  C   UNL     1       7.986   6.829   2.000  0.00  0.00    +0.023 A 
ATOM     31  C   UNL     1       6.913   5.957   2.217  0.00  0.00    +0.006 A 
BRANCH  29  32
ATOM     32  N   UNL     1       9.018   9.050   2.351  0.00  0.00    -0.286 N 
ATOM     33  H   UNL     1       8.894   9.948   2.799  0.00  0.00    +0.155 HD
ATOM     34  C   UNL     1      10.244   8.810   1.752  0.00  0.00    +0.214 C 
ATOM     35  O   UNL     1      10.541   7.854   1.041  0.00  0.00    -0.276 OA
ATOM     36  C   UNL     1      11.256   9.889   2.043  0.00  0.00    +0.109 C 
ENDBRANCH  29  32
ENDBRANCH  25  26
ENDBRANCH  10  25
TORSDOF 8
