REMARK  Name = 
REMARK  5 active torsions:
REMARK  status: ('A' for Active; 'I' for Inactive)
REMARK    1  A    between atoms: C_1  and  C_2
REMARK    2  A    between atoms: C_2  and  C_3
REMARK    3  A    between atoms: C_2  and  N_4
REMARK    4  A    between atoms: C_2  and  C_5
REMARK    5  A    between atoms: C_5  and  O_6
REMARK                            x       y       z     vdW  Elec       q    Type
REMARK                         _______ _______ _______ _____ _____    ______ ____
ROOT
ATOM      1  C   UNL     1       0.916   0.009  -0.081  0.00  0.00    +0.039 C 
ATOM      2  C   UNL     1       2.443   0.030  -0.082  0.00  0.00    +0.109 C 
ATOM      3  C   UNL     1       3.000  -0.002   1.341  0.00  0.00    +0.039 C 
ENDROOT
BRANCH   2   4
ATOM      4  N   UNL     1       2.942  -1.154  -0.849  0.00  0.00    -0.316 NA
ATOM      5  H   UNL     1       3.953  -1.232  -0.692  0.00  0.00    +0.119 HD
ATOM      6  H   UNL     1       2.559  -1.998  -0.411  0.00  0.00    +0.119 HD
ENDBRANCH   2   4
BRANCH   2   7
ATOM      7  C   UNL     1       2.909   1.305  -0.821  0.00  0.00    +0.324 C 
ATOM      8  O   UNL     1       2.995   2.422  -0.337  0.00  0.00    -0.249 OA
BRANCH   7   9
ATOM      9  O   UNL     1       3.198   1.032  -2.123  0.00  0.00    -0.479 OA
ATOM     10  H   UNL     1       3.054   0.057  -2.230  0.00  0.00    +0.295 HD
ENDBRANCH   7   9
ENDBRANCH   2   7
TORSDOF 3
