REMARK  Name = 
REMARK  1 active torsions:
REMARK  status: ('A' for Active; 'I' for Inactive)
REMARK    1  A    between atoms: N_1  and  C_2
REMARK                            x       y       z     vdW  Elec       q    Type
REMARK                         _______ _______ _______ _____ _____    ______ ____
ROOT
ATOM      1  C   UNL     1       2.400   0.105  -0.018  0.00  0.00    +0.025 A 
ATOM      2  C   UNL     1       3.126  -1.089   0.027  0.00  0.00    +0.036 A 
ATOM      3  C   UNL     1       4.524  -1.070   0.131  0.00  0.00    +0.055 A 
ATOM      4  C   UNL     1       5.206   0.144   0.159  0.00  0.00    +0.053 A 
ATOM      5  C   UNL     1       6.679   0.170   0.258  0.00  0.00    +0.271 A 
ATOM      6  N   UNL     1       7.318  -1.046   0.287  0.00  0.00    -0.263 N 
ATOM      7  H   UNL     1       8.332  -1.045   0.348  0.00  0.00    +0.190 HD
ATOM      8  N   UNL     1       6.641  -2.254   0.237  0.00  0.00    -0.263 N 
ATOM      9  H   UNL     1       7.169  -3.121   0.271  0.00  0.00    +0.190 HD
ATOM     10  O   UNL     1       7.300   1.225   0.309  0.00  0.00    -0.266 OA
ATOM     11  C   UNL     1       4.492   1.342   0.067  0.00  0.00    +0.016 A 
ATOM     12  C   UNL     1       5.271  -2.342   0.185  0.00  0.00    +0.271 A 
ATOM     13  O   UNL     1       4.698  -3.425   0.180  0.00  0.00    -0.266 OA
ATOM     14  C   UNL     1       3.099   1.316  -0.046  0.00  0.00    +0.023 A 
ENDROOT
BRANCH   1  15
ATOM     15  N   UNL     1       1.026   0.082  -0.272  0.00  0.00    -0.358 N 
ATOM     16  H   UNL     1       0.554  -0.757   0.052  0.00  0.00    +0.142 HD
ATOM     17  H   UNL     1       0.534   0.928  -0.002  0.00  0.00    +0.142 HD
ENDBRANCH   1  15
TORSDOF 1
