REMARK  Name = 
REMARK  15 active torsions:
REMARK  status: ('A' for Active; 'I' for Inactive)
REMARK    1  A    between atoms: C_1  and  C_2
REMARK    2  A    between atoms: C_2  and  C_3
REMARK    3  A    between atoms: C_2  and  C_4
REMARK    4  A    between atoms: C_4  and  N_6
REMARK    5  A    between atoms: C_4  and  C_23
REMARK    6  A    between atoms: C_7  and  C_9
REMARK    7  A    between atoms: C_12  and  C_15
REMARK    8  A    between atoms: C_29  and  C_31
REMARK    9  A    between atoms: N_33  and  C_34
REMARK   10  A    between atoms: C_34  and  C_36
REMARK   11  A    between atoms: C_34  and  C_39
REMARK   12  A    between atoms: C_36  and  C_37
REMARK   13  A    between atoms: C_36  and  C_38
REMARK   14  A    between atoms: C_39  and  C_41
REMARK   15  A    between atoms: C_41  and  C_44
REMARK                            x       y       z     vdW  Elec       q    Type
REMARK                         _______ _______ _______ _____ _____    ______ ____
ROOT
ATOM      1  C   UNL     1       5.874   0.001   1.276  0.00  0.00    +0.237 C 
ATOM      2  N   UNL     1       5.235   1.162   0.894  0.00  0.00    -0.288 N 
ATOM      3  C   UNL     1       5.448   1.814  -0.412  0.00  0.00    +0.162 C 
ATOM      4  C   UNL     1       4.132   2.641  -0.568  0.00  0.00    +0.033 C 
ATOM      5  C   UNL     1       3.300   2.345   0.684  0.00  0.00    +0.021 C 
ATOM      6  C   UNL     1       4.354   2.002   1.697  0.00  0.00    +0.109 C 
ATOM      7  O   UNL     1       6.699  -0.540   0.537  0.00  0.00    -0.274 OA
ENDROOT
BRANCH   3   8
ATOM      8  C   UNL     1       5.760   0.999  -1.709  0.00  0.00    +0.234 C 
ATOM      9  N   UNL     1       7.033   0.464  -1.783  0.00  0.00    -0.304 N 
ATOM     10  H   UNL     1       7.514   0.333  -0.887  0.00  0.00    +0.149 HD
ATOM     11  O   UNL     1       4.980   0.920  -2.658  0.00  0.00    -0.274 OA
BRANCH   9  12
ATOM     12  C   UNL     1       7.549  -0.259  -2.947  0.00  0.00    +0.148 C 
BRANCH  12  13
ATOM     13  C   UNL     1       7.363  -1.801  -2.876  0.00  0.00    +0.011 C 
ATOM     14  C   UNL     1       5.911  -2.207  -2.616  0.00  0.00    +0.009 C 
ATOM     15  C   UNL     1       8.295  -2.511  -1.890  0.00  0.00    +0.009 C 
ENDBRANCH  12  13
BRANCH  12  16
ATOM     16  C   UNL     1       9.023   0.140  -3.164  0.00  0.00    +0.231 C 
ATOM     17  O   UNL     1       9.703   0.633  -2.256  0.00  0.00    -0.289 OA
BRANCH  16  18
ATOM     18  C   UNL     1       9.598  -0.070  -4.550  0.00  0.00    +0.400 C 
ATOM     19  F   UNL     1       9.153  -1.232  -5.121  0.00  0.00    -0.187 F 
ATOM     20  F   UNL     1      10.959  -0.221  -4.506  0.00  0.00    -0.187 F 
BRANCH  18  21
ATOM     21  C   UNL     1       9.231   1.120  -5.432  0.00  0.00    +0.462 C 
ATOM     22  F   UNL     1       8.453   0.732  -6.477  0.00  0.00    -0.165 F 
ATOM     23  F   UNL     1      10.324   1.714  -5.973  0.00  0.00    -0.165 F 
ATOM     24  F   UNL     1       8.539   2.084  -4.781  0.00  0.00    -0.165 F 
ENDBRANCH  18  21
ENDBRANCH  16  18
ENDBRANCH  12  16
ENDBRANCH   9  12
ENDBRANCH   3   8
BRANCH   1  25
ATOM     25  C   UNL     1       5.434  -0.676   2.609  0.00  0.00    +0.162 C 
BRANCH  25  26
ATOM     26  N   UNL     1       6.495  -0.907   3.601  0.00  0.00    -0.300 N 
ATOM     27  H   UNL     1       6.192  -1.234   4.508  0.00  0.00    +0.150 HD
ATOM     28  C   UNL     1       7.729  -0.309   3.512  0.00  0.00    +0.245 C 
ATOM     29  O   UNL     1       8.093   0.425   2.606  0.00  0.00    -0.270 OA
BRANCH  28  30
ATOM     30  C   UNL     1       8.671  -0.530   4.639  0.00  0.00    +0.037 A 
ATOM     31  C   UNL     1       9.659   0.444   4.822  0.00  0.00    +0.014 A 
ATOM     32  C   UNL     1      10.540   0.352   5.891  0.00  0.00    +0.014 A 
ATOM     33  C   UNL     1      10.454  -0.724   6.779  0.00  0.00    +0.037 A 
ATOM     34  C   UNL     1       9.551  -1.767   6.515  0.00  0.00    +0.014 A 
ATOM     35  C   UNL     1       8.629  -1.651   5.466  0.00  0.00    +0.014 A 
BRANCH  33  36
ATOM     36  C   UNL     1      11.389  -0.722   7.929  0.00  0.00    +0.247 C 
ATOM     37  N   UNL     1      10.970  -1.124   9.192  0.00  0.00    -0.293 N 
ATOM     38  C   UNL     1      11.957  -1.183  10.271  0.00  0.00    +0.136 C 
ATOM     39  C   UNL     1      12.049  -2.618  10.805  0.00  0.00    +0.179 C 
ATOM     40  O   UNL     1      10.761  -3.126  11.194  0.00  0.00    -0.377 OA
ATOM     41  C   UNL     1       9.824  -3.071  10.102  0.00  0.00    +0.179 C 
ATOM     42  C   UNL     1       9.660  -1.626   9.615  0.00  0.00    +0.136 C 
ATOM     43  O   UNL     1      12.527  -0.304   7.719  0.00  0.00    -0.270 OA
ENDBRANCH  33  36
ENDBRANCH  28  30
ENDBRANCH  25  26
BRANCH  25  45
ATOM     44  C   UNL     1       3.599  -1.857   1.244  0.00  0.00    +0.009 C 
ATOM     45  C   UNL     1       4.705  -2.016   2.297  0.00  0.00    +0.012 C 
ATOM     46  C   UNL     1       5.667  -3.140   1.889  0.00  0.00    +0.009 C 
ENDBRANCH  25  45
ENDBRANCH   1  25
TORSDOF 11
