REMARK  Name = 
REMARK  5 active torsions:
REMARK  status: ('A' for Active; 'I' for Inactive)
REMARK    1  A    between atoms: N_1  and  CA_2
REMARK    2  A    between atoms: CA_2  and  C_4
REMARK    3  A    between atoms: CA_2  and  C_14
REMARK    4  A    between atoms: C_4  and  N_5
REMARK    5  A    between atoms: C_14  and  O_15
REMARK                            x       y       z     vdW  Elec       q    Type
REMARK                         _______ _______ _______ _____ _____    ______ ____
ROOT
ATOM      1  N   UNL     1       2.524   2.466   0.241  0.00  0.00    -0.296 N 
ATOM      2  C   UNL     1       3.256   3.017  -0.806  0.00  0.00    +0.330 A 
ATOM      3  O   UNL     1       4.199   2.444  -1.347  0.00  0.00    -0.246 OA
ATOM      4  N   UNL     1       2.834   4.244  -1.250  0.00  0.00    -0.273 N 
ATOM      5  H   UNL     1       3.338   4.648  -2.023  0.00  0.00    +0.174 HD
ATOM      6  C   UNL     1       1.735   4.933  -0.805  0.00  0.00    +0.289 A 
ATOM      7  O   UNL     1       1.379   5.989  -1.314  0.00  0.00    -0.265 OA
ATOM      8  C   UNL     1       1.017   4.300   0.315  0.00  0.00    +0.204 A 
ATOM      9  F   UNL     1      -0.045   4.950   0.824  0.00  0.00    -0.198 F 
ATOM     10  C   UNL     1       1.432   3.122   0.785  0.00  0.00    +0.134 A 
ENDROOT
BRANCH   1  11
ATOM     11  C   UNL     1       2.928   1.167   0.801  0.00  0.00    +0.156 C 
BRANCH  11  12
ATOM     12  CA  UNL     1       2.389  -0.071   0.053  0.00  0.00    +0.181 C 
BRANCH  12  13
ATOM     13  N   UNL     1       2.752  -0.164  -1.395  0.00  0.00    -0.317 NA
ATOM     14  H1  UNL     1       2.591   0.757  -1.822  0.00  0.00    +0.119 HD
ATOM     15  H2  UNL     1       3.776  -0.234  -1.451  0.00  0.00    +0.119 HD
ENDBRANCH  12  13
BRANCH  12  16
ATOM     16  C   UNL     1       0.864  -0.181   0.177  0.00  0.00    +0.323 C 
ATOM     17  OXT UNL     1       0.204   0.157   1.146  0.00  0.00    -0.249 OA
BRANCH  16  18
ATOM     18  O   UNL     1       0.325  -0.755  -0.932  0.00  0.00    -0.479 OA
ATOM     19  H   UNL     1       1.079  -0.910  -1.556  0.00  0.00    +0.295 HD
ENDBRANCH  16  18
ENDBRANCH  12  16
ENDBRANCH  11  12
ENDBRANCH   1  11
TORSDOF 5
