REMARK  Name = 
REMARK  1 active torsions:
REMARK  status: ('A' for Active; 'I' for Inactive)
REMARK    1  A    between atoms: N_1  and  C_2
REMARK                            x       y       z     vdW  Elec       q    Type
REMARK                         _______ _______ _______ _____ _____    ______ ____
ROOT
ATOM      1  C   UNL     1       2.351   0.108  -0.050  0.00  0.00    +0.060 A 
ATOM      2  C   UNL     1       3.087  -1.085  -0.084  0.00  0.00    +0.144 A 
ATOM      3  F   UNL     1       2.445  -2.261  -0.001  0.00  0.00    -0.204 F 
ATOM      4  C   UNL     1       4.472  -1.085  -0.228  0.00  0.00    +0.040 A 
ATOM      5  C   UNL     1       5.154   0.128  -0.301  0.00  0.00    +0.003 A 
ATOM      6  C   UNL     1       4.446   1.327  -0.213  0.00  0.00    +0.002 A 
ATOM      7  C   UNL     1       3.054   1.315  -0.068  0.00  0.00    +0.025 A 
ENDROOT
BRANCH   1   8
ATOM      8  N   UNL     1       0.972   0.100   0.224  0.00  0.00    -0.356 N 
ATOM      9  H   UNL     1       0.534  -0.781  -0.040  0.00  0.00    +0.142 HD
ATOM     10  H   UNL     1       0.476   0.910  -0.130  0.00  0.00    +0.142 HD
ENDBRANCH   1   8
TORSDOF 1
