REMARK  Name = 
REMARK  5 active torsions:
REMARK  status: ('A' for Active; 'I' for Inactive)
REMARK    1  A    between atoms: C_2  and  C_11
REMARK    2  A    between atoms: C_5  and  C_7
REMARK    3  A    between atoms: C_7  and  N_8
REMARK    4  A    between atoms: C_9  and  C_10
REMARK    5  A    between atoms: C_11  and  O_12
REMARK                            x       y       z     vdW  Elec       q    Type
REMARK                         _______ _______ _______ _____ _____    ______ ____
ROOT
ATOM      1  C   UNK     1       2.096   0.091   0.099  0.00  0.00    +0.224 C 
ATOM      2  N   UNK     1       2.719   1.176   0.929  0.00  0.00    -0.260 NA
ATOM      3  C   UNK     1       2.959   0.708   2.114  0.00  0.00    +0.113 C 
ATOM      4  S   UNK     1       2.686  -1.011   2.363  0.00  0.00    -0.102 S 
ATOM      5  C   UNK     1       2.562  -1.266   0.585  0.00  0.00    +0.114 C 
ENDROOT
BRANCH   3   6
ATOM      6  C   UNK     1       3.518   1.482   3.294  0.00  0.00    +0.052 C 
ATOM      7  C   UNK     1       3.671   2.806   3.117  0.00  0.00    -0.005 C 
ATOM      8  C   UNK     1       4.175   3.793   4.123  0.00  0.00    +0.037 C 
BRANCH   6   9
ATOM      9  N   UNK     1       3.821   0.806   4.462  0.00  0.00    -0.356 N 
ATOM     10  H   UNK     1       4.576   1.222   5.000  0.00  0.00    +0.142 HD
ATOM     11  H   UNK     1       3.945  -0.196   4.316  0.00  0.00    +0.142 HD
ENDBRANCH   6   9
ENDBRANCH   3   6
BRANCH   1  12
ATOM     12  C   UNK     1       2.530   0.290  -1.346  0.00  0.00    +0.330 C 
ATOM     13  O   UNK     1       2.249  -0.463  -2.266  0.00  0.00    -0.249 OA
BRANCH  12  14
ATOM     14  O   UNK     1       3.285   1.406  -1.501  0.00  0.00    -0.479 OA
ATOM     15  H   UNK     1       3.357   1.826  -0.608  0.00  0.00    +0.295 HD
ENDBRANCH  12  14
ENDBRANCH   1  12
TORSDOF 4
