REMARK  Name = 
REMARK  15 active torsions:
REMARK  status: ('A' for Active; 'I' for Inactive)
REMARK    1  A    between atoms: C_1  and  C_2
REMARK    2  A    between atoms: C_2  and  C_3
REMARK    3  A    between atoms: C_3  and  C_5
REMARK    4  A    between atoms: C_3  and  C_6
REMARK    5  A    between atoms: C_8  and  C_13
REMARK    6  A    between atoms: C_11  and  O_12
REMARK    7  A    between atoms: N_15  and  C_16
REMARK    8  A    between atoms: C_23  and  O_25
REMARK    9  A    between atoms: O_25  and  C_26
REMARK   10  A    between atoms: C_26  and  C_28
REMARK   11  A    between atoms: C_31  and  C_34
REMARK   12  A    between atoms: C_34  and  C_36
REMARK   13  A    between atoms: C_38  and  O_39
REMARK   14  A    between atoms: O_39  and  C_40
REMARK   15  A    between atoms: C_43  and  O_44
REMARK                            x       y       z     vdW  Elec       q    Type
REMARK                         _______ _______ _______ _____ _____    ______ ____
ROOT
ATOM      1  C   UNL     1       7.388  -1.491   6.215  0.00  0.00    +0.128 C 
ATOM      2  C   UNL     1       8.600  -0.473   6.142  0.00  0.00    +0.198 C 
ATOM      3  C   UNL     1       9.017  -0.131   7.589  0.00  0.00    +0.048 C 
ATOM      4  C   UNL     1      10.018  -1.078   8.245  0.00  0.00    +0.019 C 
ATOM      5  C   UNL     1       9.892  -2.557   7.884  0.00  0.00    +0.081 C 
ATOM      6  N   UNL     1       8.516  -3.065   7.915  0.00  0.00    -0.314 NA
ATOM      7  H   UNL     1       8.578  -4.067   8.109  0.00  0.00    +0.122 HD
ATOM      8  C   UNL     1       7.835  -2.929   6.604  0.00  0.00    +0.106 C 
ENDROOT
BRANCH   1  10
ATOM      9  C   UNL     1       6.932  -1.786   3.761  0.00  0.00    +0.244 C 
ATOM     10  N   UNL     1       6.494  -1.432   5.019  0.00  0.00    -0.304 N 
ATOM     11  H   UNL     1       5.587  -1.001   5.135  0.00  0.00    +0.149 HD
ATOM     12  O   UNL     1       7.944  -2.465   3.603  0.00  0.00    -0.270 OA
BRANCH   9  17
ATOM     13  C   UNL     1       6.563  -0.664   0.170  0.00  0.00    -0.002 A 
ATOM     14  C   UNL     1       5.212  -0.305   0.100  0.00  0.00    +0.120 A 
ATOM     15  C   UNL     1       4.362  -0.444   1.203  0.00  0.00    +0.046 A 
ATOM     16  C   UNL     1       4.871  -0.940   2.429  0.00  0.00    +0.016 A 
ATOM     17  C   UNL     1       6.231  -1.261   2.534  0.00  0.00    +0.037 A 
ATOM     18  C   UNL     1       7.049  -1.124   1.406  0.00  0.00    +0.020 A 
BRANCH  13  19
ATOM     19  C   UNL     1       7.423  -0.712  -1.091  0.00  0.00    +0.019 C 
ATOM     20  C   UNL     1       7.202  -2.081  -1.750  0.00  0.00    +0.012 C 
BRANCH  19  22
ATOM     21  C   UNL     1       9.692  -0.331  -2.205  0.00  0.00    +0.004 C 
ATOM     22  C   UNL     1       8.927  -0.419  -0.886  0.00  0.00    +0.004 C 
ENDBRANCH  19  22
ENDBRANCH  13  19
BRANCH  14  23
ATOM     23  O   UNL     1       4.732   0.158  -1.095  0.00  0.00    -0.506 OA
ATOM     24  H   UNL     1       3.764   0.211  -1.064  0.00  0.00    +0.292 HD
ENDBRANCH  14  23
ENDBRANCH   9  17
ENDBRANCH   1  10
BRANCH   2  25
ATOM     25  O   UNL     1       9.711  -1.039   5.357  0.00  0.00    -0.456 OA
BRANCH  25  26
ATOM     26  C   UNL     1      10.781  -0.333   4.887  0.00  0.00    +0.340 C 
ATOM     27  O   UNL     1      10.969   0.862   5.046  0.00  0.00    -0.245 OA
BRANCH  26  28
ATOM     28  C   UNL     1      11.758  -1.281   4.167  0.00  0.00    +0.059 A 
ATOM     29  C   UNL     1      11.500  -2.651   4.116  0.00  0.00    +0.015 A 
ATOM     30  C   UNL     1      12.405  -3.555   3.519  0.00  0.00    +0.012 A 
ATOM     31  C   UNL     1      13.616  -3.158   2.913  0.00  0.00    +0.022 A 
ATOM     32  C   UNL     1      13.877  -1.776   2.932  0.00  0.00    +0.012 A 
ATOM     33  C   UNL     1      12.959  -0.849   3.555  0.00  0.00    +0.015 A 
BRANCH  31  34
ATOM     34  C   UNL     1      14.520  -4.305   2.441  0.00  0.00    +0.197 C 
ATOM     35  O   UNL     1      14.335  -5.387   3.014  0.00  0.00    -0.287 OA
BRANCH  34  36
ATOM     36  C   UNL     1      15.617  -4.318   1.421  0.00  0.00    +0.067 A 
ATOM     37  C   UNL     1      15.665  -3.458   0.326  0.00  0.00    +0.128 A 
ATOM     38  C   UNL     1      16.739  -3.500  -0.573  0.00  0.00    +0.050 A 
ATOM     39  C   UNL     1      17.756  -4.440  -0.414  0.00  0.00    +0.049 A 
ATOM     40  C   UNL     1      17.690  -5.399   0.595  0.00  0.00    +0.121 A 
ATOM     41  C   UNL     1      16.611  -5.355   1.491  0.00  0.00    +0.061 A 
BRANCH  37  42
ATOM     42  O   UNL     1      14.633  -2.607   0.056  0.00  0.00    -0.506 OA
ATOM     43  H   UNL     1      14.609  -2.463  -0.907  0.00  0.00    +0.292 HD
ENDBRANCH  37  42
BRANCH  40  44
ATOM     44  O   UNL     1      18.736  -6.275   0.541  0.00  0.00    -0.495 OA
ATOM     45  C   UNL     1      18.913  -7.266   1.539  0.00  0.00    +0.277 C 
ENDBRANCH  40  44
ENDBRANCH  34  36
ENDBRANCH  31  34
ENDBRANCH  26  28
ENDBRANCH  25  26
ENDBRANCH   2  25
TORSDOF 12
