REMARK  Name = 
REMARK  9 active torsions:
REMARK  status: ('A' for Active; 'I' for Inactive)
REMARK    1  A    between atoms: N_1  and  C_2
REMARK    2  A    between atoms: C_4  and  O_6
REMARK    3  A    between atoms: C_8  and  C_10
REMARK    4  A    between atoms: C_10  and  O_11
REMARK    5  A    between atoms: O_11  and  P_12
REMARK    6  A    between atoms: P_12  and  O_13
REMARK    7  A    between atoms: P_12  and  O_14
REMARK    8  A    between atoms: C_16  and  O_18
REMARK    9  A    between atoms: C_19  and  O_21
REMARK                            x       y       z     vdW  Elec       q    Type
REMARK                         _______ _______ _______ _____ _____    ______ ____
ROOT
ATOM      1  C   UNL     1       2.205   0.068   0.055  0.00  0.00    +0.139 C 
ATOM      2  C   UNL     1       2.763   1.124  -0.916  0.00  0.00    +0.167 C 
ATOM      3  C   UNL     1       2.549   0.718  -2.380  0.00  0.00    +0.176 C 
ATOM      4  C   UNL     1       3.048  -0.719  -2.655  0.00  0.00    +0.178 C 
ATOM      5  O   UNL     1       2.534  -1.649  -1.695  0.00  0.00    -0.342 OA
ATOM      6  C   UNL     1       2.788  -1.324  -0.326  0.00  0.00    +0.267 C 
ENDROOT
BRANCH   1   7
ATOM      7  N   UNL     1       0.725   0.078   0.062  0.00  0.00    -0.321 NA
ATOM      8  H   UNL     1       0.382  -0.415  -0.766  0.00  0.00    +0.119 HD
ATOM      9  H   UNL     1       0.401  -0.487   0.850  0.00  0.00    +0.119 HD
ENDBRANCH   1   7
BRANCH   2  10
ATOM     10  O   UNL     1       4.172   1.301  -0.667  0.00  0.00    -0.387 OA
ATOM     11  H   UNL     1       4.476   1.920  -1.361  0.00  0.00    +0.210 HD
ENDBRANCH   2  10
BRANCH   3  12
ATOM     12  O   UNL     1       3.154   1.704  -3.224  0.00  0.00    -0.387 OA
ATOM     13  H   UNL     1       3.055   1.390  -4.143  0.00  0.00    +0.210 HD
ENDBRANCH   3  12
BRANCH   6  14
ATOM     14  O   UNL     1       4.162  -1.448  -0.004  0.00  0.00    -0.366 OA
ATOM     15  H   UNL     1       4.532  -0.542   0.032  0.00  0.00    +0.213 HD
ENDBRANCH   6  14
BRANCH   4  16
ATOM     16  C   UNL     1       4.561  -0.875  -2.877  0.00  0.00    +0.206 C 
BRANCH  16  17
ATOM     17  O   UNL     1       4.938  -0.194  -4.065  0.00  0.00    -0.284 OA
BRANCH  17  18
ATOM     18  P   UNL     1       6.473   0.218  -4.200  0.00  0.00    +0.472 P 
ATOM     19  O   UNL     1       7.504  -0.822  -3.955  0.00  0.00    -0.228 OA
BRANCH  18  20
ATOM     20  O   UNL     1       6.606   1.589  -3.400  0.00  0.00    -0.303 OA
ATOM     21  H   UNL     1       6.334   2.334  -3.969  0.00  0.00    +0.222 HD
ENDBRANCH  18  20
BRANCH  18  22
ATOM     22  O   UNL     1       6.510   0.776  -5.699  0.00  0.00    -0.303 OA
ATOM     23  H   UNL     1       6.540   0.025  -6.321  0.00  0.00    +0.222 HD
ENDBRANCH  18  22
ENDBRANCH  17  18
ENDBRANCH  16  17
ENDBRANCH   4  16
TORSDOF 9
