REMARK  Name = 
REMARK  13 active torsions:
REMARK  status: ('A' for Active; 'I' for Inactive)
REMARK    1  A    between atoms: O_1  and  C_2
REMARK    2  A    between atoms: C_2  and  C_3
REMARK    3  A    between atoms: C_6  and  C_7
REMARK    4  A    between atoms: C_6  and  O_9
REMARK    5  A    between atoms: C_7  and  O_8
REMARK    6  A    between atoms: O_9  and  C_10
REMARK    7  A    between atoms: C_13  and  C_15
REMARK    8  A    between atoms: C_15  and  O_16
REMARK    9  A    between atoms: C_17  and  O_19
REMARK   10  A    between atoms: C_20  and  O_22
REMARK   11  A    between atoms: C_23  and  O_25
REMARK   12  A    between atoms: C_26  and  O_28
REMARK   13  A    between atoms: C_29  and  O_31
REMARK                            x       y       z     vdW  Elec       q    Type
REMARK                         _______ _______ _______ _____ _____    ______ ____
ROOT
ATOM      1  O   UNL     1       3.495   4.346  -1.390  0.00  0.00    -0.313 OA
ENDROOT
BRANCH   1   2
ATOM      2  C   UNL     1       4.670   5.131  -1.619  0.00  0.00    +0.285 C 
ATOM      3  C   UNL     1       4.433   6.148  -2.777  0.00  0.00    +0.201 C 
ATOM      4  C   UNL     1       4.626   5.511  -4.168  0.00  0.00    +0.179 C 
ATOM      5  C   UNL     1       5.926   4.701  -4.222  0.00  0.00    +0.177 C 
ATOM      6  C   UNL     1       5.995   3.676  -3.083  0.00  0.00    +0.178 C 
ATOM      7  O   UNL     1       5.833   4.312  -1.812  0.00  0.00    -0.340 OA
BRANCH   3   8
ATOM      8  O   UNL     1       5.304   7.284  -2.606  0.00  0.00    -0.384 OA
ATOM      9  H   UNL     1       5.835   7.395  -3.418  0.00  0.00    +0.210 HD
ENDBRANCH   3   8
BRANCH   4  10
ATOM     10  O   UNL     1       3.508   4.722  -4.567  0.00  0.00    -0.386 OA
ATOM     11  H   UNL     1       3.010   4.434  -3.782  0.00  0.00    +0.210 HD
ENDBRANCH   4  10
BRANCH   5  12
ATOM     12  O   UNL     1       7.035   5.620  -4.127  0.00  0.00    -0.386 OA
ATOM     13  H   UNL     1       7.597   5.353  -3.373  0.00  0.00    +0.210 HD
ENDBRANCH   5  12
BRANCH   6  14
ATOM     14  C   UNL     1       5.118   2.429  -3.273  0.00  0.00    +0.190 C 
BRANCH  14  15
ATOM     15  O   UNL     1       5.282   1.828  -4.552  0.00  0.00    -0.392 OA
ATOM     16  H   UNL     1       6.220   1.859  -4.806  0.00  0.00    +0.210 HD
ENDBRANCH  14  15
ENDBRANCH   6  14
ENDBRANCH   1   2
BRANCH   1  20
ATOM     17  C   UNL     1       2.248   5.175   1.486  0.00  0.00    +0.178 C 
ATOM     18  C   UNL     1       1.279   4.037   1.189  0.00  0.00    +0.179 C 
ATOM     19  C   UNL     1       1.974   3.164   0.146  0.00  0.00    +0.207 C 
ATOM     20  C   UNL     1       3.381   3.796  -0.058  0.00  0.00    +0.225 C 
ATOM     21  O   UNL     1       3.533   4.802   0.959  0.00  0.00    -0.336 OA
BRANCH  18  22
ATOM     22  O   UNL     1       1.037   3.274   2.383  0.00  0.00    -0.386 OA
ATOM     23  H   UNL     1       1.884   2.920   2.701  0.00  0.00    +0.210 HD
ENDBRANCH  18  22
BRANCH  19  24
ATOM     24  O   UNL     1       1.180   3.109  -1.045  0.00  0.00    -0.384 OA
ATOM     25  H   UNL     1       1.220   2.191  -1.369  0.00  0.00    +0.210 HD
ENDBRANCH  19  24
BRANCH  17  26
ATOM     26  C   UNL     1       1.791   6.497   0.859  0.00  0.00    +0.190 C 
BRANCH  26  27
ATOM     27  O   UNL     1       2.687   7.540   1.256  0.00  0.00    -0.392 OA
ATOM     28  H   UNL     1       2.444   8.337   0.755  0.00  0.00    +0.210 HD
ENDBRANCH  26  27
ENDBRANCH  17  26
BRANCH  20  29
ATOM     29  C   UNL     1       4.463   2.725   0.228  0.00  0.00    +0.223 C 
BRANCH  29  30
ATOM     30  O   UNL     1       4.331   2.177   1.541  0.00  0.00    -0.390 OA
ATOM     31  H   UNL     1       4.706   2.849   2.142  0.00  0.00    +0.210 HD
ENDBRANCH  29  30
ENDBRANCH  20  29
ENDBRANCH   1  20
TORSDOF 13
