REMARK  Name = 
REMARK  16 active torsions:
REMARK  status: ('A' for Active; 'I' for Inactive)
REMARK    1  A    between atoms: C_2  and  C_4
REMARK    2  A    between atoms: N_8  and  C_10
REMARK    3  A    between atoms: C_13  and  C_15
REMARK    4  A    between atoms: C_15  and  O_16
REMARK    5  A    between atoms: O_16  and  P_17
REMARK    6  A    between atoms: P_17  and  O_20
REMARK    7  A    between atoms: O_20  and  P_21
REMARK    8  A    between atoms: P_21  and  O_22
REMARK    9  A    between atoms: P_21  and  O_24
REMARK   10  A    between atoms: O_24  and  C_25
REMARK   11  A    between atoms: C_25  and  C_26
REMARK   12  A    between atoms: C_29  and  N_37
REMARK   13  A    between atoms: C_31  and  O_33
REMARK   14  A    between atoms: C_34  and  O_36
REMARK   15  A    between atoms: C_47  and  O_49
REMARK   16  A    between atoms: C_50  and  O_52
REMARK                            x       y       z     vdW  Elec       q    Type
REMARK                         _______ _______ _______ _____ _____    ______ ____
ROOT
ATOM      1  P   UNL     1      14.829   6.793   1.502  0.00  0.00    +0.480 P 
ATOM      2  O   UNL     1      13.815   6.083   0.597  0.00  0.00    -0.227 OA
ENDROOT
BRANCH   1   3
ATOM      3  O   UNL     1      14.594   8.343   0.993  0.00  0.00    -0.302 OA
ATOM      4  H   UNL     1      14.004   8.221   0.222  0.00  0.00    +0.222 HD
ENDBRANCH   1   3
BRANCH   1   5
ATOM      5  O   UNL     1      13.571   6.932   2.681  0.00  0.00    -0.284 OA
BRANCH   5   6
ATOM      6  C   UNL     1      13.679   8.085   3.519  0.00  0.00    +0.206 C 
BRANCH   6   7
ATOM      7  C   UNL     1      12.512   8.140   4.506  0.00  0.00    +0.178 C 
ATOM      8  C   UNL     1      12.514   9.436   5.320  0.00  0.00    +0.178 C 
ATOM      9  C   UNL     1      11.484  10.345   4.637  0.00  0.00    +0.195 C 
ATOM     10  C   UNL     1      10.972   9.517   3.454  0.00  0.00    +0.253 C 
ATOM     11  O   UNL     1      11.253   8.150   3.801  0.00  0.00    -0.346 OA
BRANCH  10  12
ATOM     12  N   UNL     1       9.558   9.640   3.162  0.00  0.00    -0.286 N 
ATOM     13  C   UNL     1       8.806  10.785   3.201  0.00  0.00    +0.167 A 
ATOM     14  N   UNL     1       9.190  12.022   3.567  0.00  0.00    -0.216 NA
ATOM     15  C   UNL     1       8.149  12.883   3.494  0.00  0.00    +0.225 A 
ATOM     16  N   UNL     1       6.879  12.641   3.103  0.00  0.00    -0.219 NA
ATOM     17  C   UNL     1       6.548  11.380   2.748  0.00  0.00    +0.147 A 
ATOM     18  N   UNL     1       5.244  11.124   2.339  0.00  0.00    -0.341 N 
ATOM     19  H   UNL     1       5.163  10.276   1.786  0.00  0.00    +0.144 HD
ATOM     20  H   UNL     1       4.786  11.955   1.992  0.00  0.00    +0.144 HD
ATOM     21  C   UNL     1       7.543  10.391   2.784  0.00  0.00    +0.147 A 
ATOM     22  N   UNL     1       7.526   9.054   2.452  0.00  0.00    -0.231 NA
ATOM     23  C   UNL     1       8.755   8.639   2.676  0.00  0.00    +0.203 A 
ENDBRANCH  10  12
BRANCH   9  24
ATOM     24  O   UNL     1      12.083  11.567   4.196  0.00  0.00    -0.385 OA
ATOM     25  H   UNL     1      11.340  12.140   3.910  0.00  0.00    +0.210 HD
ENDBRANCH   9  24
BRANCH   8  26
ATOM     26  O   UNL     1      12.084   9.161   6.663  0.00  0.00    -0.386 OA
ATOM     27  H   UNL     1      11.286   8.603   6.617  0.00  0.00    +0.210 HD
ENDBRANCH   8  26
ENDBRANCH   6   7
ENDBRANCH   5   6
ENDBRANCH   1   5
BRANCH   1  28
ATOM     28  O   UNL     1      16.088   6.653   0.323  0.00  0.00    -0.229 OA
BRANCH  28  29
ATOM     29  P   UNL     1      16.455   5.139  -0.098  0.00  0.00    +0.222 P 
ATOM     30  O   UNL     1      16.477   4.288   1.143  0.00  0.00    -0.437 OA
ATOM     31  O   UNL     1      15.741   4.749  -1.369  0.00  0.00    -0.517 OA
BRANCH  29  32
ATOM     32  O   UNL     1      18.015   5.331  -0.550  0.00  0.00    -0.327 OA
BRANCH  32  33
ATOM     33  C   UNL     1      18.772   4.130  -0.640  0.00  0.00    +0.174 C 
BRANCH  33  37
ATOM     34  C   UNL     1      19.403   3.540  -3.610  0.00  0.00    +0.298 C 
ATOM     35  C   UNL     1      19.842   2.150  -3.108  0.00  0.00    +0.212 C 
ATOM     36  C   UNL     1      19.047   1.883  -1.816  0.00  0.00    +0.155 C 
ATOM     37  C   UNL     1      18.152   3.103  -1.611  0.00  0.00    +0.053 C 
ATOM     38  C   UNL     1      18.004   3.670  -3.025  0.00  0.00    +0.087 C 
BRANCH  34  41
ATOM     39  C   UNL     1      20.466   3.146  -7.213  0.00  0.00    +0.100 A 
ATOM     40  C   UNL     1      20.429   3.072  -5.821  0.00  0.00    +0.322 A 
ATOM     41  N   UNL     1      19.424   3.654  -5.111  0.00  0.00    -0.198 N 
ATOM     42  C   UNL     1      18.505   4.416  -5.760  0.00  0.00    +0.309 A 
ATOM     43  C   UNL     1      18.527   4.544  -7.146  0.00  0.00    +0.071 A 
ATOM     44  C   UNL     1      19.505   3.892  -7.886  0.00  0.00    +0.025 A 
BRANCH  39  48
ATOM     45  N   UNL     1      21.357   2.056  -9.193  0.00  0.00    -0.325 N 
ATOM     46  H   UNL     1      20.461   2.065  -9.659  0.00  0.00    +0.145 HD
ATOM     47  H   UNL     1      22.086   1.500  -9.629  0.00  0.00    +0.145 HD
ATOM     48  C   UNL     1      21.561   2.433  -7.899  0.00  0.00    +0.247 C 
ATOM     49  O   UNL     1      22.592   2.154  -7.298  0.00  0.00    -0.270 OA
ENDBRANCH  39  48
ENDBRANCH  34  41
BRANCH  36  50
ATOM     50  O   UNL     1      18.282   0.701  -2.072  0.00  0.00    -0.389 OA
ATOM     51  H   UNL     1      17.329   0.901  -1.983  0.00  0.00    +0.210 HD
ENDBRANCH  36  50
BRANCH  35  52
ATOM     52  O   UNL     1      21.248   2.118  -2.873  0.00  0.00    -0.383 OA
ATOM     53  H   UNL     1      21.439   1.291  -2.385  0.00  0.00    +0.210 HD
ENDBRANCH  35  52
ENDBRANCH  33  37
ENDBRANCH  32  33
ENDBRANCH  29  32
ENDBRANCH  28  29
ENDBRANCH   1  28
TORSDOF 16
