REMARK  Name = 
REMARK  5 active torsions:
REMARK  status: ('A' for Active; 'I' for Inactive)
REMARK    1  A    between atoms: C_2  and  C_4
REMARK    2  A    between atoms: C_7  and  C_8
REMARK    3  A    between atoms: C_8  and  C_9
REMARK    4  A    between atoms: C_9  and  C_11
REMARK    5  A    between atoms: C_11  and  O_12
REMARK                            x       y       z     vdW  Elec       q    Type
REMARK                         _______ _______ _______ _____ _____    ______ ____
ROOT
ATOM      1  C   UNL     1       3.208  -0.738   1.050  0.00  0.00    +0.065 A 
ATOM      2  C   UNL     1       2.792  -2.069   1.118  0.00  0.00    +0.016 A 
ATOM      3  C   UNL     1       3.461  -2.972   1.950  0.00  0.00    +0.005 A 
ATOM      4  C   UNL     1       4.546  -2.554   2.737  0.00  0.00    -0.040 A 
ATOM      5  C   UNL     1       4.936  -1.207   2.686  0.00  0.00    +0.005 A 
ATOM      6  C   UNL     1       4.272  -0.303   1.847  0.00  0.00    +0.016 A 
ENDROOT
BRANCH   1  10
ATOM      7  N   UNL     1       3.213   1.237  -0.447  0.00  0.00    -0.247 N 
ATOM      8  H   UNL     1       4.214   1.096  -0.536  0.00  0.00    +0.288 HD
ATOM      9  H   UNL     1       2.816   1.611  -1.301  0.00  0.00    +0.288 HD
ATOM     10  C   UNL     1       2.525   0.197   0.110  0.00  0.00    +0.308 C 
ATOM     11  N   UNL     1       1.286  -0.002  -0.197  0.00  0.00    -0.099 NA
ATOM     12  H   UNL     1       0.960   0.738  -0.821  0.00  0.00    +0.363 HD
ENDBRANCH   1  10
BRANCH   4  13
ATOM     13  C   UNL     1       5.332  -3.572   3.532  0.00  0.00    +0.121 C 
BRANCH  13  14
ATOM     14  C   UNL     1       5.460  -3.326   5.013  0.00  0.00    +0.243 C 
ATOM     15  O   UNL     1       5.006  -2.393   5.668  0.00  0.00    -0.285 OA
BRANCH  14  16
ATOM     16  C   UNL     1       6.269  -4.377   5.773  0.00  0.00    +0.373 C 
ATOM     17  O   UNL     1       6.783  -5.334   5.233  0.00  0.00    -0.242 OA
BRANCH  16  18
ATOM     18  O   UNL     1       6.332  -4.083   7.084  0.00  0.00    -0.475 OA
ATOM     19  H   UNL     1       5.829  -3.252   7.257  0.00  0.00    +0.295 HD
ENDBRANCH  16  18
ENDBRANCH  14  16
ENDBRANCH  13  14
ENDBRANCH   4  13
TORSDOF 5
