REMARK  Name = 
REMARK  0 active torsions:
REMARK  status: ('A' for Active; 'I' for Inactive)
REMARK                            x       y       z     vdW  Elec       q    Type
REMARK                         _______ _______ _______ _____ _____    ______ ____
ROOT
ATOM      1  N   UNL     1       1.173   0.007  -0.070  0.00  0.00    -0.329 N 
ATOM      2  H   UNL     1       0.701   0.805   0.333  0.00  0.00    +0.145 HD
ATOM      3  H   UNL     1       0.727  -0.881   0.138  0.00  0.00    +0.145 HD
ATOM      4  C   UNL     1       2.525  -0.046   0.010  0.00  0.00    +0.195 A 
ATOM      5  N   UNL     1       3.183   1.169   0.056  0.00  0.00    -0.293 N 
ATOM      6  H   UNL     1       2.665   2.028  -0.001  0.00  0.00    +0.172 HD
ATOM      7  C   UNL     1       4.563   1.320   0.113  0.00  0.00    +0.280 A 
ATOM      8  O   UNL     1       5.094   2.426   0.135  0.00  0.00    -0.265 OA
ATOM      9  C   UNL     1       5.250   0.047   0.136  0.00  0.00    +0.172 A 
ATOM     10  C   UNL     1       4.479  -1.091   0.101  0.00  0.00    +0.167 A 
ATOM     11  N   UNL     1       5.367  -2.123   0.116  0.00  0.00    -0.329 N 
ATOM     12  H   UNL     1       5.134  -3.104   0.091  0.00  0.00    +0.168 HD
ATOM     13  C   UNL     1       6.623  -1.573   0.149  0.00  0.00    +0.199 A 
ATOM     14  N   UNL     1       6.588  -0.256   0.169  0.00  0.00    -0.229 NA
ATOM     15  N   UNL     1       3.133  -1.203   0.043  0.00  0.00    -0.197 NA
ENDROOT
TORSDOF 0
