REMARK  Name = 
REMARK  10 active torsions:
REMARK  status: ('A' for Active; 'I' for Inactive)
REMARK    1  A    between atoms: C_1  and  C_2
REMARK    2  A    between atoms: C_2  and  C_3
REMARK    3  A    between atoms: C_4  and  C_5
REMARK    4  A    between atoms: C_5  and  C_7
REMARK    5  A    between atoms: C_11  and  O_12
REMARK    6  A    between atoms: C_20  and  S_23
REMARK    7  A    between atoms: S_23  and  N_26
REMARK    8  A    between atoms: N_26  and  C_27
REMARK    9  A    between atoms: C_30  and  S_33
REMARK   10  A    between atoms: S_33  and  N_34
REMARK                            x       y       z     vdW  Elec       q    Type
REMARK                         _______ _______ _______ _____ _____    ______ ____
ROOT
ATOM      1  C   UNL     1       2.949   1.104  -1.072  0.00  0.00    +0.117 A 
ATOM      2  O   UNL     1       2.693   2.415  -0.803  0.00  0.00    -0.459 OA
ATOM      3  C   UNL     1       3.091   3.141  -1.877  0.00  0.00    +0.138 A 
ATOM      4  C   UNL     1       3.030   4.529  -1.974  0.00  0.00    +0.075 A 
ATOM      5  C   UNL     1       3.420   5.068  -3.206  0.00  0.00    +0.112 A 
ATOM      6  C   UNL     1       3.838   4.254  -4.268  0.00  0.00    +0.029 A 
ATOM      7  C   UNL     1       3.901   2.859  -4.118  0.00  0.00    +0.014 A 
ATOM      8  C   UNL     1       3.556   2.296  -2.875  0.00  0.00    +0.031 A 
ATOM      9  C   UNL     1       3.577   0.982  -2.305  0.00  0.00    +0.071 A 
ENDROOT
BRANCH   5  10
ATOM     10  S   UNL     1       3.424   6.838  -3.430  0.00  0.00    +0.072 S 
ATOM     11  O   UNL     1       4.416   7.127  -4.446  0.00  0.00    -0.150 OA
ATOM     12  O   UNL     1       3.480   7.457  -2.125  0.00  0.00    -0.150 OA
BRANCH  10  13
ATOM     13  N   UNL     1       1.914   7.132  -4.146  0.00  0.00    -0.216 N 
ATOM     14  H   UNL     1       1.898   6.839  -5.121  0.00  0.00    +0.174 HD
BRANCH  13  15
ATOM     15  C   UNL     1       0.761   6.853  -3.363  0.00  0.00    +0.048 A 
ATOM     16  C   UNL     1       0.149   5.600  -3.434  0.00  0.00    +0.026 A 
ATOM     17  C   UNL     1      -0.878   5.279  -2.545  0.00  0.00    +0.030 A 
ATOM     18  C   UNL     1      -1.306   6.231  -1.614  0.00  0.00    +0.105 A 
ATOM     19  C   UNL     1      -0.713   7.496  -1.560  0.00  0.00    +0.030 A 
ATOM     20  C   UNL     1       0.330   7.801  -2.434  0.00  0.00    +0.026 A 
BRANCH  18  21
ATOM     21  S   UNL     1      -2.549   5.805  -0.430  0.00  0.00    +0.056 S 
ATOM     22  O   UNL     1      -2.395   6.635   0.740  0.00  0.00    -0.153 OA
ATOM     23  O   UNL     1      -2.658   4.367  -0.355  0.00  0.00    -0.153 OA
BRANCH  21  24
ATOM     24  N   UNL     1      -3.943   6.334  -1.197  0.00  0.00    -0.204 NA
ATOM     25  H   UNL     1      -4.373   7.082  -0.651  0.00  0.00    +0.144 HD
ATOM     26  H   UNL     1      -4.562   5.542  -1.370  0.00  0.00    +0.144 HD
ENDBRANCH  21  24
ENDBRANCH  18  21
ENDBRANCH  13  15
ENDBRANCH  10  13
ENDBRANCH   5  10
BRANCH   1  28
ATOM     27  C   UNL     1       2.508   0.671   1.380  0.00  0.00    +0.012 C 
ATOM     28  C   UNL     1       2.506   0.117  -0.039  0.00  0.00    +0.072 C 
ENDBRANCH   1  28
BRANCH   9  29
ATOM     29  C   UNL     1       4.091  -0.264  -2.856  0.00  0.00    +0.197 C 
ATOM     30  O   UNL     1       3.531  -1.339  -2.649  0.00  0.00    -0.287 OA
BRANCH  29  31
ATOM     31  C   UNL     1       5.366  -0.276  -3.643  0.00  0.00    +0.025 A 
ATOM     32  C   UNL     1       6.356   0.708  -3.500  0.00  0.00    +0.030 A 
ATOM     33  C   UNL     1       7.567   0.599  -4.195  0.00  0.00    +0.061 A 
ATOM     34 BR   UNL     1       8.842   1.991  -3.997  0.00  0.00    -0.046 Br
ATOM     35  C   UNL     1       7.825  -0.516  -4.994  0.00  0.00    +0.145 A 
ATOM     36  C   UNL     1       6.840  -1.496  -5.141  0.00  0.00    +0.061 A 
ATOM     37 BR   UNL     1       7.155  -3.030  -6.210  0.00  0.00    -0.046 Br
ATOM     38  C   UNL     1       5.613  -1.372  -4.484  0.00  0.00    +0.030 A 
BRANCH  35  39
ATOM     39  O   UNL     1       9.046  -0.644  -5.599  0.00  0.00    -0.505 OA
ATOM     40  H   UNL     1       9.099  -1.533  -5.996  0.00  0.00    +0.292 HD
ENDBRANCH  35  39
ENDBRANCH  29  31
ENDBRANCH   9  29
TORSDOF 9
