REMARK  Name = 
REMARK  8 active torsions:
REMARK  status: ('A' for Active; 'I' for Inactive)
REMARK    1  A    between atoms: C_1  and  C_2
REMARK    2  A    between atoms: N_4  and  CA_5
REMARK    3  A    between atoms: CA_5  and  C_7
REMARK    4  A    between atoms: CA_5  and  C_14
REMARK    5  A    between atoms: C_7  and  C_8
REMARK    6  A    between atoms: C_8  and  C_9
REMARK    7  A    between atoms: C_9  and  N_10
REMARK    8  A    between atoms: C_14  and  O_15
REMARK                            x       y       z     vdW  Elec       q    Type
REMARK                         _______ _______ _______ _____ _____    ______ ____
ROOT
ATOM      1  CA  UNL     1       4.652  -0.324   1.142  0.00  0.00    +0.182 C 
ENDROOT
BRANCH   1   4
ATOM      2  C   UNL     1       4.851  -1.752   4.664  0.00  0.00    +0.109 C 
ATOM      3  C   UNL     1       4.355  -1.551   3.257  0.00  0.00    +0.211 C 
ATOM      4  N   UNL     1       5.130  -0.701   2.490  0.00  0.00    -0.303 N 
ATOM      5  H   UNL     1       5.718  -0.037   2.988  0.00  0.00    +0.149 HD
ATOM      6  O   UNL     1       3.377  -2.141   2.815  0.00  0.00    -0.276 OA
ENDBRANCH   1   4
BRANCH   1   7
ATOM      7  C   UNL     1       5.074  -1.390   0.110  0.00  0.00    +0.325 C 
ATOM      8  OXT UNL     1       4.614  -1.479  -1.020  0.00  0.00    -0.249 OA
BRANCH   7   9
ATOM      9  O   UNL     1       6.126  -2.140   0.524  0.00  0.00    -0.479 OA
ATOM     10  H   UNL     1       6.328  -1.920   1.455  0.00  0.00    +0.295 HD
ENDBRANCH   7   9
ENDBRANCH   1   7
BRANCH   1  11
ATOM     11  C   UNL     1       5.219   1.050   0.755  0.00  0.00    +0.035 C 
BRANCH  11  12
ATOM     12  C   UNL     1       4.823   1.562  -0.635  0.00  0.00    +0.021 C 
BRANCH  12  13
ATOM     13  C   UNL     1       3.314   1.646  -0.859  0.00  0.00    +0.106 C 
BRANCH  13  14
ATOM     14  N   UNL     1       3.006   2.005  -2.226  0.00  0.00    -0.300 N 
ATOM     15  H   UNL     1       3.170   1.304  -2.935  0.00  0.00    +0.150 HD
ATOM     16  C   UNL     1       2.971   3.300  -2.639  0.00  0.00    +0.297 C 
ATOM     17  O   UNL     1       3.096   4.281  -1.921  0.00  0.00    -0.253 OA
ATOM     18  N   UNL     1       2.776   3.408  -3.977  0.00  0.00    -0.313 N 
ATOM     19  H   UNL     1       2.597   4.353  -4.289  0.00  0.00    +0.146 HD
ATOM     20  H   UNL     1       2.234   2.689  -4.432  0.00  0.00    +0.146 HD
ENDBRANCH  13  14
ENDBRANCH  12  13
ENDBRANCH  11  12
ENDBRANCH   1  11
TORSDOF 7
