REMARK  Name = 
REMARK  8 active torsions:
REMARK  status: ('A' for Active; 'I' for Inactive)
REMARK    1  A    between atoms: O_1  and  C_2
REMARK    2  A    between atoms: C_2  and  C_3
REMARK    3  A    between atoms: C_6  and  N_18
REMARK    4  A    between atoms: C_8  and  O_10
REMARK    5  A    between atoms: C_11  and  O_13
REMARK    6  A    between atoms: O_13  and  P_14
REMARK    7  A    between atoms: P_14  and  O_15
REMARK    8  A    between atoms: P_14  and  O_16
REMARK                            x       y       z     vdW  Elec       q    Type
REMARK                         _______ _______ _______ _____ _____    ______ ____
ROOT
ATOM      1  C   UNL     1       3.149   1.449   0.845  0.00  0.00    +0.178 C 
ATOM      2  C   UNL     1       2.265   1.524   2.089  0.00  0.00    +0.194 C 
ATOM      3  C   UNL     1       1.900   2.996   2.226  0.00  0.00    +0.196 C 
ATOM      4  C   UNL     1       2.851   3.710   1.254  0.00  0.00    +0.255 C 
ATOM      5  O   UNL     1       3.106   2.749   0.215  0.00  0.00    -0.346 OA
ENDROOT
BRANCH   4   6
ATOM      6  N   UNL     1       2.289   4.948   0.705  0.00  0.00    -0.271 N 
ATOM      7  C   UNL     1       2.103   5.996   1.600  0.00  0.00    +0.331 A 
ATOM      8  O   UNL     1       2.335   5.904   2.802  0.00  0.00    -0.246 OA
ATOM      9  N   UNL     1       1.624   7.160   1.069  0.00  0.00    -0.275 N 
ATOM     10  H   UNL     1       1.503   7.936   1.700  0.00  0.00    +0.173 HD
ATOM     11  C   UNL     1       1.391   7.400  -0.254  0.00  0.00    +0.254 A 
ATOM     12  O   UNL     1       1.061   8.497  -0.686  0.00  0.00    -0.268 OA
ATOM     13  C   UNL     1       1.578   6.251  -1.151  0.00  0.00    +0.088 A 
ATOM     14  C   UNL     1       2.013   5.095  -0.640  0.00  0.00    +0.098 A 
ENDBRANCH   4   6
BRANCH   3  15
ATOM     15  O   UNL     1       1.987   3.380   3.606  0.00  0.00    -0.385 OA
ATOM     16  H   UNL     1       2.219   4.340   3.621  0.00  0.00    +0.210 HD
ENDBRANCH   3  15
BRANCH   1  17
ATOM     17  C   UNL     1       4.605   1.118   1.210  0.00  0.00    +0.190 C 
BRANCH  17  18
ATOM     18  O   UNL     1       5.079   1.985   2.240  0.00  0.00    -0.392 OA
ATOM     19  H   UNL     1       5.955   1.661   2.514  0.00  0.00    +0.210 HD
ENDBRANCH  17  18
ENDBRANCH   1  17
BRANCH   2  20
ATOM     20  O   UNL     1       1.092   0.736   1.913  0.00  0.00    -0.278 OA
BRANCH  20  21
ATOM     21  P   UNL     1      -0.011   0.724   3.079  0.00  0.00    +0.473 P 
ATOM     22  O   UNL     1      -1.265   1.467   2.783  0.00  0.00    -0.228 OA
BRANCH  21  23
ATOM     23  O   UNL     1       0.743   1.139   4.422  0.00  0.00    -0.303 OA
ATOM     24  H   UNL     1       0.983   2.095   4.443  0.00  0.00    +0.222 HD
ENDBRANCH  21  23
BRANCH  21  25
ATOM     25  O   UNL     1      -0.229  -0.845   3.281  0.00  0.00    -0.303 OA
ATOM     26  H   UNL     1      -0.861  -1.196   2.630  0.00  0.00    +0.222 HD
ENDBRANCH  21  25
ENDBRANCH  20  21
ENDBRANCH   2  20
TORSDOF 8
