REMARK  Name = 
REMARK  0 active torsions:
REMARK  status: ('A' for Active; 'I' for Inactive)
REMARK                            x       y       z     vdW  Elec       q    Type
REMARK                         _______ _______ _______ _____ _____    ______ ____
ROOT
ATOM      1  O   UNL     1       1.224   0.467   0.051  0.00  0.00    -0.266 OA
ATOM      2  C   UNL     1       2.401   0.188   0.051  0.00  0.00    +0.289 C 
ATOM      3  C   UNL     1       3.014  -1.242   0.052  0.00  0.00    +0.249 C 
ATOM      4  O   UNL     1       2.424  -2.297   0.052  0.00  0.00    -0.282 OA
ATOM      5  C   UNL     1       4.463  -1.036   0.051  0.00  0.00    +0.048 A 
ATOM      6  C   UNL     1       4.681   0.340   0.050  0.00  0.00    +0.045 A 
ATOM      7  C   UNL     1       5.957   0.861   0.050  0.00  0.00    +0.024 A 
ATOM      8  C   UNL     1       7.023  -0.048   0.050  0.00  0.00    +0.002 A 
ATOM      9  C   UNL     1       6.795  -1.441   0.051  0.00  0.00    +0.001 A 
ATOM     10  C   UNL     1       5.495  -1.952   0.051  0.00  0.00    +0.014 A 
ATOM     11  N   UNL     1       3.483   1.047   0.050  0.00  0.00    -0.278 N 
ATOM     12  H   UNL     1       3.383   2.052   0.050  0.00  0.00    +0.155 HD
ENDROOT
TORSDOF 0
