REMARK  Name = 
REMARK  9 active torsions:
REMARK  status: ('A' for Active; 'I' for Inactive)
REMARK    1  A    between atoms: O_1  and  C_2
REMARK    2  A    between atoms: C_5  and  C_7
REMARK    3  A    between atoms: C_7  and  O_8
REMARK    4  A    between atoms: O_8  and  P_9
REMARK    5  A    between atoms: P_9  and  O_10
REMARK    6  A    between atoms: P_9  and  O_11
REMARK    7  A    between atoms: C_13  and  O_15
REMARK    8  A    between atoms: C_16  and  O_18
REMARK    9  A    between atoms: C_19  and  O_21
REMARK                            x       y       z     vdW  Elec       q    Type
REMARK                         _______ _______ _______ _____ _____    ______ ____
ROOT
ATOM      1  C   UNL     1       2.499   0.018   0.050  0.00  0.00    +0.279 C 
ATOM      2  C   UNL     1       3.050   1.133  -0.871  0.00  0.00    +0.201 C 
ATOM      3  C   UNL     1       2.763   0.829  -2.354  0.00  0.00    +0.179 C 
ATOM      4  C   UNL     1       3.160  -0.612  -2.696  0.00  0.00    +0.177 C 
ATOM      5  C   UNL     1       2.520  -1.631  -1.732  0.00  0.00    +0.179 C 
ATOM      6  O   UNL     1       2.808  -1.309  -0.364  0.00  0.00    -0.341 OA
ENDROOT
BRANCH   1   7
ATOM      7  O   UNL     1       1.089   0.151   0.172  0.00  0.00    -0.365 OA
ATOM      8  H   UNL     1       0.871  -0.239   1.038  0.00  0.00    +0.213 HD
ENDBRANCH   1   7
BRANCH   2   9
ATOM      9  O   UNL     1       4.453   1.337  -0.644  0.00  0.00    -0.384 OA
ATOM     10  H   UNL     1       4.939   0.867  -1.352  0.00  0.00    +0.210 HD
ENDBRANCH   2   9
BRANCH   3  11
ATOM     11  O   UNL     1       1.406   1.073  -2.711  0.00  0.00    -0.386 OA
ATOM     12  H   UNL     1       0.856   1.002  -1.907  0.00  0.00    +0.210 HD
ENDBRANCH   3  11
BRANCH   4  13
ATOM     13  O   UNL     1       4.598  -0.709  -2.602  0.00  0.00    -0.386 OA
ATOM     14  H   UNL     1       4.835  -1.637  -2.804  0.00  0.00    +0.210 HD
ENDBRANCH   4  13
BRANCH   5  15
ATOM     15  C   UNL     1       1.032  -1.926  -1.988  0.00  0.00    +0.206 C 
BRANCH  15  16
ATOM     16  O   UNL     1       0.845  -2.215  -3.364  0.00  0.00    -0.284 OA
BRANCH  16  17
ATOM     17  P   UNL     1      -0.510  -2.931  -3.798  0.00  0.00    +0.472 P 
ATOM     18  O   UNL     1      -1.794  -2.273  -3.458  0.00  0.00    -0.228 OA
BRANCH  17  19
ATOM     19  O   UNL     1      -0.330  -4.441  -3.311  0.00  0.00    -0.303 OA
ATOM     20  H   UNL     1       0.295  -4.901  -3.898  0.00  0.00    +0.222 HD
ENDBRANCH  17  19
BRANCH  17  21
ATOM     21  O   UNL     1      -0.312  -3.131  -5.374  0.00  0.00    -0.303 OA
ATOM     22  H   UNL     1      -0.587  -2.323  -5.850  0.00  0.00    +0.222 HD
ENDBRANCH  17  21
ENDBRANCH  16  17
ENDBRANCH  15  16
ENDBRANCH   5  15
TORSDOF 9
