REMARK  Name = 
REMARK  16 active torsions:
REMARK  status: ('A' for Active; 'I' for Inactive)
REMARK    1  A    between atoms: O_1  and  C_2
REMARK    2  A    between atoms: C_6  and  C_7
REMARK    3  A    between atoms: C_12  and  C_13
REMARK    4  A    between atoms: C_16  and  O_18
REMARK    5  A    between atoms: C_23  and  O_25
REMARK    6  A    between atoms: O_25  and  C_26
REMARK    7  A    between atoms: C_26  and  C_28
REMARK    8  A    between atoms: C_30  and  C_31
REMARK    9  A    between atoms: C_32  and  C_33
REMARK   10  A    between atoms: C_32  and  C_39
REMARK   11  A    between atoms: C_33  and  C_34
REMARK   12  A    between atoms: C_34  and  C_35
REMARK   13  A    between atoms: C_36  and  C_37
REMARK   14  A    between atoms: C_36  and  C_38
REMARK   15  A    between atoms: C_39  and  O_40
REMARK   16  A    between atoms: C_42  and  C_44
REMARK                            x       y       z     vdW  Elec       q    Type
REMARK                         _______ _______ _______ _____ _____    ______ ____
ROOT
ATOM      1  C   UNL     1      -0.000  -0.000  -0.000  0.00  0.00    +0.118 C 
ATOM      2  C   UNL     1      -0.000  -0.000  -0.000  0.00  0.00    +0.018 C 
ATOM      3  C   UNL     1      -0.000  -0.000  -0.000  0.00  0.00    +0.010 C 
ATOM      4  C   UNL     1      -0.000  -0.000  -0.000  0.00  0.00    +0.001 C 
ATOM      5  C   UNL     1      -0.000  -0.000  -0.000  0.00  0.00    +0.005 C 
ATOM      6  C   UNL     1      -0.000  -0.000  -0.000  0.00  0.00    +0.008 C 
ATOM      7  C   UNL     1      -0.000  -0.000  -0.000  0.00  0.00    -0.020 C 
ATOM      8  C   UNL     1      -0.000  -0.000  -0.000  0.00  0.00    -0.016 C 
ATOM      9  C   UNL     1      -0.000  -0.000  -0.000  0.00  0.00    +0.012 C 
ATOM     10  C   UNL     1      -0.000  -0.000  -0.000  0.00  0.00    +0.028 C 
ATOM     11  C   UNL     1      -0.000  -0.000  -0.000  0.00  0.00    -0.016 C 
ATOM     12  C   UNL     1      -0.000  -0.000  -0.000  0.00  0.00    +0.040 C 
ATOM     13  C   UNL     1       0.000  -0.000  -0.000  0.00  0.00    +0.204 C 
ATOM     14  C   UNL     1      -0.000  -0.000  -0.000  0.00  0.00    +0.040 C 
ATOM     15  C   UNL     1      -0.000  -0.000  -0.000  0.00  0.00    +0.119 C 
ATOM     16  C   UNL     1      -0.000  -0.000   0.000  0.00  0.00    +0.057 C 
ATOM     17  C   UNL     1      -0.000  -0.000  -0.000  0.00  0.00    +0.030 C 
ATOM     18  C   UNL     1      -0.000  -0.000  -0.000  0.00  0.00    +0.012 C 
ATOM     19  C   UNL     1      -0.000  -0.000  -0.000  0.00  0.00    -0.023 C 
ATOM     20  C   UNL     1      -0.000  -0.000  -0.000  0.00  0.00    +0.012 C 
ATOM     21  C   UNL     1      -0.000  -0.000  -0.000  0.00  0.00    +0.010 C 
ATOM     22  C   UNL     1      -0.000  -0.000  -0.000  0.00  0.00    +0.032 C 
ENDROOT
BRANCH   1  23
ATOM     23  O   UNL     1       0.000   0.000  -0.000  0.00  0.00    -0.392 OA
ATOM     24  H   UNL     1       0.000   0.000   0.000  0.00  0.00    +0.210 HD
ENDBRANCH   1  23
BRANCH  12  25
ATOM     25  C   UNL     1      -0.000  -0.000  -0.000  0.00  0.00    +0.333 C 
ATOM     26  O   UNL     1      -0.000  -0.000  -0.000  0.00  0.00    -0.245 OA
BRANCH  25  27
ATOM     27  O   UNL     1      -0.000  -0.000  -0.000  0.00  0.00    -0.477 OA
ATOM     28  H   UNL     1      -0.000  -0.000  -0.000  0.00  0.00    +0.295 HD
ENDBRANCH  25  27
ENDBRANCH  12  25
BRANCH  15  29
ATOM     29  O   UNL     1      -0.000  -0.000  -0.000  0.00  0.00    -0.391 OA
ATOM     30  H   UNL     1       0.000   0.000   0.000  0.00  0.00    +0.210 HD
ENDBRANCH  15  29
BRANCH  12  31
ATOM     31  C   UNL     1      -0.000  -0.000  -0.000  0.00  0.00    +0.046 C 
BRANCH  31  32
ATOM     32  C   UNL     1      -0.000  -0.000  -0.000  0.00  0.00    +0.032 C 
BRANCH  32  33
ATOM     33  C   UNL     1      -0.000  -0.000  -0.000  0.00  0.00    -0.028 C 
ATOM     34  C   UNL     1      -0.000  -0.000  -0.000  0.00  0.00    -0.080 C 
ATOM     35  C   UNL     1      -0.000  -0.000  -0.000  0.00  0.00    +0.038 C 
ATOM     36  C   UNL     1      -0.000  -0.000  -0.000  0.00  0.00    +0.038 C 
ENDBRANCH  32  33
ENDBRANCH  31  32
ENDBRANCH  12  31
BRANCH  13  37
ATOM     37  O   UNL     1      -0.000  -0.000  -0.000  0.00  0.00    -0.457 OA
BRANCH  37  38
ATOM     38  C   UNL     1       0.000  -0.000  -0.000  0.00  0.00    +0.305 C 
ATOM     39  C   UNL     1       0.000  -0.000  -0.000  0.00  0.00    +0.136 C 
ATOM     40  O   UNL     1       0.000  -0.000  -0.000  0.00  0.00    -0.251 OA
ENDBRANCH  37  38
ENDBRANCH  13  37
TORSDOF 9
