REMARK  Name = 
REMARK  6 active torsions:
REMARK  status: ('A' for Active; 'I' for Inactive)
REMARK    1  A    between atoms: C_1  and  O_2
REMARK    2  A    between atoms: O_2  and  C_3
REMARK    3  A    between atoms: C_4  and  O_5
REMARK    4  A    between atoms: C_11  and  N_24
REMARK    5  A    between atoms: C_20  and  C_21
REMARK    6  A    between atoms: C_21  and  O_22
REMARK                            x       y       z     vdW  Elec       q    Type
REMARK                         _______ _______ _______ _____ _____    ______ ____
ROOT
ATOM      1  C   UNL     1       3.138  -0.894   1.006  0.00  0.00    +0.169 A 
ATOM      2  C   UNL     1       4.191  -0.297   1.773  0.00  0.00    +0.035 A 
ATOM      3  C   UNL     1       4.578   1.035   1.584  0.00  0.00    +0.097 A 
ATOM      4  C   UNL     1       5.583   1.628   2.373  0.00  0.00    +0.282 A 
ATOM      5  C   UNL     1       6.301   0.929   3.391  0.00  0.00    +0.077 A 
ATOM      6  C   UNL     1       7.273   1.491   4.325  0.00  0.00    +0.077 A 
ATOM      7  C   UNL     1       8.068   0.690   5.155  0.00  0.00    +0.065 A 
ATOM      8  C   UNL     1       7.890  -0.660   5.073  0.00  0.00    +0.168 A 
ATOM      9  O   UNL     1       8.613  -1.573   5.772  0.00  0.00    -0.453 OA
ATOM     10  C   UNL     1       8.009  -2.797   5.328  0.00  0.00    +0.466 C 
ATOM     11  O   UNL     1       6.933  -2.580   4.402  0.00  0.00    -0.452 OA
ATOM     12  C   UNL     1       6.900  -1.214   4.297  0.00  0.00    +0.175 A 
ATOM     13  C   UNL     1       6.019  -0.465   3.480  0.00  0.00    +0.043 A 
ATOM     14  C   UNL     1       4.899  -1.046   2.752  0.00  0.00    -0.002 A 
ATOM     15  C   UNL     1       4.421  -2.361   2.986  0.00  0.00    +0.013 A 
ATOM     16  C   UNL     1       3.374  -2.932   2.268  0.00  0.00    +0.050 A 
ATOM     17  C   UNL     1       2.769  -2.219   1.254  0.00  0.00    +0.159 A 
ENDROOT
BRANCH   4  18
ATOM     18  N   UNL     1       6.023   2.950   1.920  0.00  0.00    +0.080 N 
ATOM     19  O   UNL     1       7.239   3.085   1.713  0.00  0.00    +0.041 OA
ATOM     20  O   UNL     1       5.152   3.794   1.683  0.00  0.00    -0.576 OA
ENDBRANCH   4  18
BRANCH   1  22
ATOM     21  C   UNL     1       1.204  -0.296  -0.274  0.00  0.00    +0.277 C 
ATOM     22  O   UNL     1       2.592  -0.122   0.006  0.00  0.00    -0.491 OA
ENDBRANCH   1  22
BRANCH   6  23
ATOM     23  C   UNL     1       7.292   2.945   4.634  0.00  0.00    +0.338 C 
ATOM     24  O   UNL     1       6.260   3.590   4.705  0.00  0.00    -0.245 OA
BRANCH  23  25
ATOM     25  O   UNL     1       8.511   3.458   4.890  0.00  0.00    -0.477 OA
ATOM     26  H   UNL     1       9.271   2.890   4.663  0.00  0.00    +0.295 HD
ENDBRANCH  23  25
ENDBRANCH   6  23
BRANCH  17  27
ATOM     27  O   UNL     1       1.863  -2.915   0.512  0.00  0.00    -0.503 OA
ATOM     28  H   UNL     1       2.095  -2.741  -0.416  0.00  0.00    +0.292 HD
ENDBRANCH  17  27
TORSDOF 5
