REMARK  Name = 
REMARK  19 active torsions:
REMARK  status: ('A' for Active; 'I' for Inactive)
REMARK    1  A    between atoms: C_1  and  C_2
REMARK    2  A    between atoms: C_2  and  C_3
REMARK    3  A    between atoms: C_2  and  C_4
REMARK    4  A    between atoms: C_4  and  C_5
REMARK    5  A    between atoms: C_5  and  N_7
REMARK    6  A    between atoms: C_5  and  C_27
REMARK    7  A    between atoms: N_7  and  P_8
REMARK    8  A    between atoms: P_8  and  O_9
REMARK    9  A    between atoms: P_8  and  O_11
REMARK   10  A    between atoms: O_11  and  C_12
REMARK   11  A    between atoms: C_15  and  C_17
REMARK   12  A    between atoms: C_18  and  O_20
REMARK   13  A    between atoms: C_21  and  O_23
REMARK   14  A    between atoms: C_24  and  O_26
REMARK   15  A    between atoms: N_29  and  CA_30
REMARK   16  A    between atoms: CA_30  and  CB_32
REMARK   17  A    between atoms: CA_30  and  C_42
REMARK   18  A    between atoms: CB_32  and  CG_33
REMARK   19  A    between atoms: C_42  and  O_43
REMARK                            x       y       z     vdW  Elec       q    Type
REMARK                         _______ _______ _______ _____ _____    ______ ____
ROOT
ATOM      1  C   UNK A   0       2.256   1.239   4.627  0.00  0.00    +0.150 C 
ENDROOT
BRANCH   1   2
ATOM      2  C   UNK A   0       1.332   2.069   5.584  0.00  0.00    +0.231 C 
ATOM      3  N   TRP A   1       1.873   3.269   5.959  0.00  0.00    -0.301 N 
ATOM      4  H   TRP A   1       2.790   3.533   5.609  0.00  0.00    +0.150 HD
ATOM      5  O   UNK A   0       0.195   1.716   5.914  0.00  0.00    -0.274 OA
BRANCH   3   6
ATOM      6  CA  TRP A   1       1.227   4.265   6.817  0.00  0.00    +0.186 C 
BRANCH   6   7
ATOM      7  C   TRP A   1       2.279   5.359   7.069  0.00  0.00    +0.326 C 
ATOM      8  OXT TRP A   1       3.384   5.361   6.534  0.00  0.00    -0.249 OA
BRANCH   7   9
ATOM      9  O   TRP A   1       1.927   6.310   7.964  0.00  0.00    -0.479 OA
ATOM     10  H   TRP A   1       1.044   6.205   8.363  0.00  0.00    +0.295 HD
ENDBRANCH   7   9
ENDBRANCH   6   7
BRANCH   6  11
ATOM     11  CB  TRP A   1      -0.080   4.859   6.259  0.00  0.00    +0.071 C 
BRANCH  11  12
ATOM     12  CG  TRP A   1       0.064   5.531   4.928  0.00  0.00    -0.020 A 
ATOM     13  CD2 TRP A   1      -0.171   4.938   3.648  0.00  0.00    +0.003 A 
ATOM     14  CE2 TRP A   1       0.112   5.899   2.679  0.00  0.00    +0.047 A 
ATOM     15  CZ2 TRP A   1       0.010   5.645   1.307  0.00  0.00    +0.026 A 
ATOM     16  CH2 TRP A   1      -0.387   4.363   0.913  0.00  0.00    +0.002 A 
ATOM     17  CZ3 TRP A   1      -0.686   3.384   1.854  0.00  0.00    +0.001 A 
ATOM     18  NE1 TRP A   1       0.479   7.045   3.344  0.00  0.00    -0.360 N 
ATOM     19  HE1 TRP A   1       0.742   7.911   2.892  0.00  0.00    +0.165 HD
ATOM     20  CE3 TRP A   1      -0.594   3.663   3.220  0.00  0.00    +0.010 A 
ATOM     21  CD1 TRP A   1       0.445   6.841   4.699  0.00  0.00    +0.087 A 
ENDBRANCH  11  12
ENDBRANCH   6  11
ENDBRANCH   3   6
ENDBRANCH   1   2
BRANCH   1  22
ATOM     22  N   UNK A   0       1.530   0.077   4.111  0.00  0.00    -0.211 NA
ATOM     23  H   UNK A   0       2.024  -0.347   3.340  0.00  0.00    +0.134 HD
BRANCH  22  24
ATOM     24  P   UNK A   0       0.931  -0.995   5.173  0.00  0.00    +0.408 P 
ATOM     25  O   UNK A   0       1.353  -0.879   6.599  0.00  0.00    -0.240 OA
BRANCH  24  26
ATOM     26  O   UNK A   0      -0.643  -0.752   5.006  0.00  0.00    -0.312 OA
ATOM     27  H   UNK A   0      -0.827   0.141   5.371  0.00  0.00    +0.221 HD
ENDBRANCH  24  26
BRANCH  24  28
ATOM     28  O   UNK A   0       1.140  -2.446   4.507  0.00  0.00    -0.264 OA
BRANCH  28  29
ATOM     29  C   UNK A   0       1.942  -3.367   5.231  0.00  0.00    +0.292 C 
ATOM     30  C   UNK A   0       2.192  -4.656   4.411  0.00  0.00    +0.202 C 
ATOM     31  C   UNK A   0       0.951  -5.577   4.408  0.00  0.00    +0.179 C 
ATOM     32  C   UNK A   0       0.360  -5.752   5.819  0.00  0.00    +0.174 C 
ATOM     33  C   UNK A   0       0.194  -4.412   6.550  0.00  0.00    +0.149 C 
ATOM     34  C   UNK A   0      -1.012  -3.601   6.095  0.00  0.00    +0.041 C 
ATOM     35  O   UNK A   0       1.419  -3.677   6.523  0.00  0.00    -0.343 OA
BRANCH  32  36
ATOM     36  O   UNK A   0       1.232  -6.608   6.580  0.00  0.00    -0.387 OA
ATOM     37  H   UNK A   0       1.688  -6.050   7.240  0.00  0.00    +0.210 HD
ENDBRANCH  32  36
BRANCH  31  38
ATOM     38  O   UNK A   0      -0.062  -5.128   3.504  0.00  0.00    -0.386 OA
ATOM     39  H   UNK A   0       0.278  -4.388   2.972  0.00  0.00    +0.210 HD
ENDBRANCH  31  38
BRANCH  30  40
ATOM     40  O   UNK A   0       3.345  -5.339   4.936  0.00  0.00    -0.384 OA
ATOM     41  H   UNK A   0       3.228  -6.298   4.807  0.00  0.00    +0.210 HD
ENDBRANCH  30  40
ENDBRANCH  28  29
ENDBRANCH  24  28
ENDBRANCH  22  24
ENDBRANCH   1  22
BRANCH   1  42
ATOM     42  C   UNK A   0       3.588   0.845   5.303  0.00  0.00    +0.031 C 
BRANCH  42  44
ATOM     43  C   UNK A   0       4.964   0.417   3.191  0.00  0.00    +0.007 C 
ATOM     44  C   UNK A   0       4.457  -0.160   4.512  0.00  0.00    -0.015 C 
ATOM     45  C   UNK A   0       5.635  -0.636   5.364  0.00  0.00    +0.007 C 
ENDBRANCH  42  44
ENDBRANCH   1  42
TORSDOF 16
