REMARK  Name = 
REMARK  23 active torsions:
REMARK  status: ('A' for Active; 'I' for Inactive)
REMARK    1  A    between atoms: C_1  and  C_2
REMARK    2  A    between atoms: C_2  and  C_3
REMARK    3  A    between atoms: C_3  and  C_4
REMARK    4  A    between atoms: C_4  and  C_5
REMARK    5  A    between atoms: C_5  and  C_6
REMARK    6  A    between atoms: C_6  and  C_7
REMARK    7  A    between atoms: C_7  and  C_8
REMARK    8  A    between atoms: C_8  and  C_9
REMARK    9  A    between atoms: C_9  and  C_10
REMARK   10  A    between atoms: C_10  and  C_11
REMARK   11  A    between atoms: C_11  and  O_12
REMARK   12  A    between atoms: O_12  and  C_13
REMARK   13  A    between atoms: C_16  and  C_18
REMARK   14  A    between atoms: C_18  and  O_19
REMARK   15  A    between atoms: C_20  and  O_22
REMARK   16  A    between atoms: O_22  and  C_23
REMARK   17  A    between atoms: C_26  and  C_28
REMARK   18  A    between atoms: C_28  and  O_29
REMARK   19  A    between atoms: C_30  and  O_32
REMARK   20  A    between atoms: C_33  and  O_35
REMARK   21  A    between atoms: C_36  and  O_38
REMARK   22  A    between atoms: C_39  and  O_41
REMARK   23  A    between atoms: C_42  and  O_44
REMARK                            x       y       z     vdW  Elec       q    Type
REMARK                         _______ _______ _______ _____ _____    ______ ____
ROOT
ATOM      1  C   UNL     1      12.977   8.770  -0.205  0.00  0.00    +0.282 C 
ATOM      2  C   UNL     1      13.582   8.345   1.164  0.00  0.00    +0.201 C 
ATOM      3  C   UNL     1      13.083   9.254   2.309  0.00  0.00    +0.179 C 
ATOM      4  C   UNL     1      13.228  10.742   1.901  0.00  0.00    +0.183 C 
ATOM      5  C   UNL     1      12.548  11.024   0.546  0.00  0.00    +0.178 C 
ATOM      6  O   UNL     1      13.060  10.167  -0.473  0.00  0.00    -0.341 OA
ENDROOT
BRANCH   3   7
ATOM      7  O   UNL     1      11.774   8.894   2.745  0.00  0.00    -0.386 OA
ATOM      8  H   UNL     1      11.118   9.134   2.055  0.00  0.00    +0.210 HD
ENDBRANCH   3   7
BRANCH   2   9
ATOM      9  O   UNL     1      15.019   8.417   1.158  0.00  0.00    -0.384 OA
ATOM     10  H   UNL     1      15.331   7.864   1.897  0.00  0.00    +0.210 HD
ENDBRANCH   2   9
BRANCH   1  11
ATOM     11  O   UNL     1      13.450   7.966  -1.289  0.00  0.00    -0.349 OA
BRANCH  11  12
ATOM     12  C   UNL     1      14.278   8.608  -2.254  0.00  0.00    +0.163 C 
BRANCH  12  13
ATOM     13  C   UNL     1      15.716   8.167  -2.068  0.00  0.00    +0.028 C 
BRANCH  13  14
ATOM     14  C   UNL     1      16.642   8.833  -3.076  0.00  0.00    +0.002 C 
BRANCH  14  15
ATOM     15  C   UNL     1      18.054   8.302  -2.902  0.00  0.00    +0.000 C 
BRANCH  15  16
ATOM     16  C   UNL     1      19.032   8.943  -3.878  0.00  0.00    +0.000 C 
BRANCH  16  17
ATOM     17  C   UNL     1      20.423   8.361  -3.660  0.00  0.00    +0.000 C 
BRANCH  17  18
ATOM     18  C   UNL     1      21.452   8.962  -4.608  0.00  0.00    -0.000 C 
BRANCH  18  19
ATOM     19  C   UNL     1      22.820   8.339  -4.338  0.00  0.00    -0.000 C 
BRANCH  19  20
ATOM     20  C   UNL     1      23.896   8.903  -5.259  0.00  0.00    -0.000 C 
BRANCH  20  22
ATOM     21  C   UNL     1      26.340   8.798  -5.863  0.00  0.00    +0.004 C 
ATOM     22  C   UNL     1      25.246   8.253  -4.961  0.00  0.00    -0.003 C 
ENDBRANCH  20  22
ENDBRANCH  19  20
ENDBRANCH  18  19
ENDBRANCH  17  18
ENDBRANCH  16  17
ENDBRANCH  15  16
ENDBRANCH  14  15
ENDBRANCH  13  14
ENDBRANCH  12  13
ENDBRANCH  11  12
ENDBRANCH   1  11
BRANCH   4  23
ATOM     23  O   UNL     1      12.813  11.750   2.836  0.00  0.00    -0.340 OA
BRANCH  23  24
ATOM     24  C   UNL     1      13.341  11.625   4.164  0.00  0.00    +0.282 C 
ATOM     25  C   UNL     1      12.655  12.703   5.048  0.00  0.00    +0.201 C 
ATOM     26  C   UNL     1      13.396  14.047   4.999  0.00  0.00    +0.179 C 
ATOM     27  C   UNL     1      14.879  13.826   5.307  0.00  0.00    +0.177 C 
ATOM     28  C   UNL     1      15.501  12.841   4.306  0.00  0.00    +0.178 C 
ATOM     29  O   UNL     1      14.774  11.604   4.192  0.00  0.00    -0.341 OA
BRANCH  27  30
ATOM     30  O   UNL     1      15.000  13.298   6.643  0.00  0.00    -0.386 OA
ATOM     31  H   UNL     1      15.950  13.158   6.818  0.00  0.00    +0.210 HD
ENDBRANCH  27  30
BRANCH  26  32
ATOM     32  O   UNL     1      13.252  14.731   3.753  0.00  0.00    -0.386 OA
ATOM     33  H   UNL     1      12.633  14.231   3.189  0.00  0.00    +0.210 HD
ENDBRANCH  26  32
BRANCH  25  34
ATOM     34  O   UNL     1      12.533  12.256   6.408  0.00  0.00    -0.384 OA
ATOM     35  H   UNL     1      13.359  12.513   6.872  0.00  0.00    +0.210 HD
ENDBRANCH  25  34
BRANCH  28  36
ATOM     36  C   UNL     1      15.799  13.478   2.939  0.00  0.00    +0.190 C 
BRANCH  36  37
ATOM     37  O   UNL     1      16.691  12.648   2.193  0.00  0.00    -0.392 OA
ATOM     38  H   UNL     1      16.309  11.753   2.193  0.00  0.00    +0.210 HD
ENDBRANCH  36  37
ENDBRANCH  28  36
ENDBRANCH  23  24
ENDBRANCH   4  23
BRANCH   5  39
ATOM     39  C   UNL     1      11.005  11.074   0.515  0.00  0.00    +0.190 C 
BRANCH  39  40
ATOM     40  O   UNL     1      10.386   9.809   0.755  0.00  0.00    -0.392 OA
ATOM     41  H   UNL     1      10.017   9.510  -0.101  0.00  0.00    +0.210 HD
ENDBRANCH  39  40
ENDBRANCH   5  39
TORSDOF 22
