REMARK  Name = 
REMARK  12 active torsions:
REMARK  status: ('A' for Active; 'I' for Inactive)
REMARK    1  A    between atoms: C_1  and  C_2
REMARK    2  A    between atoms: C_2  and  C_4
REMARK    3  A    between atoms: C_2  and  C_24
REMARK    4  A    between atoms: C_5  and  C_6
REMARK    5  A    between atoms: C_7  and  C_8
REMARK    6  A    between atoms: C_7  and  C_9
REMARK    7  A    between atoms: CA_13  and  C_21
REMARK    8  A    between atoms: C_15  and  C_17
REMARK    9  A    between atoms: C_17  and  C_18
REMARK   10  A    between atoms: C_18  and  O_19
REMARK   11  A    between atoms: C_21  and  O_22
REMARK   12  A    between atoms: C_24  and  O_25
REMARK                            x       y       z     vdW  Elec       q    Type
REMARK                         _______ _______ _______ _____ _____    ______ ____
ROOT
ATOM      1  C   UNL     1       3.273  -5.401  -3.297  0.00  0.00    +0.034 C 
ATOM      2  C   UNL     1       2.831  -6.869  -3.035  0.00  0.00    +0.036 C 
ATOM      3  CA  UNL     1       3.909  -7.713  -3.748  0.00  0.00    +0.168 C 
ATOM      4  N   UNL     1       4.915  -6.772  -4.313  0.00  0.00    -0.303 NA
ATOM      5  H   UNL     1       5.857  -7.152  -4.165  0.00  0.00    +0.123 HD
ATOM      6  C   UNL     1       4.782  -5.537  -3.522  0.00  0.00    +0.089 C 
ENDROOT
BRANCH   1   8
ATOM      7  C   UNL     1       3.561  -3.466  -1.660  0.00  0.00    -0.001 C 
ATOM      8  C   UNL     1       2.768  -4.338  -2.323  0.00  0.00    -0.068 C 
ATOM      9  C   UNL     1       1.253  -4.244  -2.246  0.00  0.00    +0.039 C 
BRANCH   7  11
ATOM     10  C   UNL     1       3.620  -1.352  -0.358  0.00  0.00    -0.013 C 
ATOM     11  C   UNL     1       3.057  -2.524  -0.683  0.00  0.00    -0.003 C 
BRANCH  10  13
ATOM     12  C   UNL     1       2.603   0.910   0.036  0.00  0.00    +0.023 C 
ATOM     13  C   UNL     1       2.993  -0.426   0.666  0.00  0.00    +0.117 C 
BRANCH  13  14
ATOM     14  C   UNL     1       3.931  -0.234   1.856  0.00  0.00    +0.311 C 
ATOM     15  O   UNL     1       4.316   0.846   2.281  0.00  0.00    -0.250 OA
BRANCH  14  16
ATOM     16  O   UNL     1       4.283  -1.398   2.455  0.00  0.00    -0.480 OA
ATOM     17  H   UNL     1       3.919  -2.188   2.010  0.00  0.00    +0.295 HD
ENDBRANCH  14  16
ENDBRANCH  13  14
ENDBRANCH  10  13
ENDBRANCH   7  11
ENDBRANCH   1   8
BRANCH   3  18
ATOM     18  C   UNL     1       3.252  -8.500  -4.881  0.00  0.00    +0.322 C 
ATOM     19  OXT UNL     1       2.290  -9.237  -4.712  0.00  0.00    -0.249 OA
BRANCH  18  20
ATOM     20  O   UNL     1       3.801  -8.235  -6.087  0.00  0.00    -0.480 OA
ATOM     21  H   UNL     1       4.476  -7.528  -5.939  0.00  0.00    +0.295 HD
ENDBRANCH  18  20
ENDBRANCH   3  18
BRANCH   2  22
ATOM     22  C   UNL     1       2.716  -7.277  -1.562  0.00  0.00    +0.126 C 
BRANCH  22  23
ATOM     23  C   UNL     1       2.348  -8.712  -1.245  0.00  0.00    +0.305 C 
ATOM     24  O   UNL     1       2.678  -9.224  -0.183  0.00  0.00    -0.251 OA
BRANCH  23  25
ATOM     25  O   UNL     1       1.580  -9.375  -2.122  0.00  0.00    -0.481 OA
ATOM     26  H   UNL     1       1.425  -9.032  -3.027  0.00  0.00    +0.295 HD
ENDBRANCH  23  25
ENDBRANCH  22  23
ENDBRANCH   2  22
TORSDOF 10
