REMARK  Name = 
REMARK  9 active torsions:
REMARK  status: ('A' for Active; 'I' for Inactive)
REMARK    1  A    between atoms: C_2  and  C_4
REMARK    2  A    between atoms: C_6  and  O_7
REMARK    3  A    between atoms: O_7  and  C_8
REMARK    4  A    between atoms: C_11  and  C_13
REMARK    5  A    between atoms: C_13  and  O_14
REMARK    6  A    between atoms: C_15  and  O_17
REMARK    7  A    between atoms: C_18  and  O_20
REMARK    8  A    between atoms: C_21  and  O_23
REMARK    9  A    between atoms: C_25  and  N_27
REMARK                            x       y       z     vdW  Elec       q    Type
REMARK                         _______ _______ _______ _____ _____    ______ ____
ROOT
ATOM      1  O   UNL     1       6.865   2.243  -4.824  0.00  0.00    -0.461 OA
ENDROOT
BRANCH   1   6
ATOM      2  C   UNL     1       7.785   1.382  -1.336  0.00  0.00    +0.046 A 
ATOM      3  C   UNL     1       8.691   2.416  -1.077  0.00  0.00    +0.097 A 
ATOM      4  C   UNL     1       8.971   3.347  -2.088  0.00  0.00    +0.277 A 
ATOM      5  C   UNL     1       8.347   3.258  -3.337  0.00  0.00    +0.130 A 
ATOM      6  C   UNL     1       7.419   2.243  -3.577  0.00  0.00    +0.131 A 
ATOM      7  C   UNL     1       7.150   1.299  -2.584  0.00  0.00    +0.059 A 
BRANCH   2  11
ATOM      8  N   UNL     1       8.379   0.087   0.641  0.00  0.00    -0.325 N 
ATOM      9  H   UNL     1       9.345   0.385   0.583  0.00  0.00    +0.145 HD
ATOM     10  H   UNL     1       8.177  -0.674   1.276  0.00  0.00    +0.145 HD
ATOM     11  C   UNL     1       7.443   0.363  -0.309  0.00  0.00    +0.242 C 
ATOM     12  O   UNL     1       6.368  -0.223  -0.336  0.00  0.00    -0.270 OA
ENDBRANCH   2  11
BRANCH   4  13
ATOM     13  N   UNL     1       9.927   4.431  -1.827  0.00  0.00    +0.080 N 
ATOM     14  O   UNL     1      10.482   4.448  -0.719  0.00  0.00    +0.041 OA
ATOM     15  O   UNL     1      10.125   5.258  -2.727  0.00  0.00    -0.576 OA
ENDBRANCH   4  13
ENDBRANCH   1   6
BRANCH   1  16
ATOM     16  C   UNL     1       5.539   1.705  -4.940  0.00  0.00    +0.339 C 
ATOM     17  C   UNL     1       4.798   2.518  -6.024  0.00  0.00    +0.214 C 
ATOM     18  C   UNL     1       3.412   1.898  -6.263  0.00  0.00    +0.180 C 
ATOM     19  C   UNL     1       3.530   0.401  -6.566  0.00  0.00    +0.177 C 
ATOM     20  C   UNL     1       4.326  -0.293  -5.455  0.00  0.00    +0.179 C 
ATOM     21  O   UNL     1       5.614   0.319  -5.293  0.00  0.00    -0.331 OA
BRANCH  17  22
ATOM     22  O   UNL     1       4.688   3.895  -5.612  0.00  0.00    -0.383 OA
ATOM     23  H   UNL     1       3.795   4.055  -5.265  0.00  0.00    +0.210 HD
ENDBRANCH  17  22
BRANCH  18  24
ATOM     24  O   UNL     1       2.741   2.560  -7.341  0.00  0.00    -0.386 OA
ATOM     25  H   UNL     1       2.044   1.949  -7.654  0.00  0.00    +0.210 HD
ENDBRANCH  18  24
BRANCH  19  26
ATOM     26  O   UNL     1       2.214  -0.141  -6.721  0.00  0.00    -0.386 OA
ATOM     27  H   UNL     1       1.797  -0.231  -5.845  0.00  0.00    +0.210 HD
ENDBRANCH  19  26
BRANCH  20  28
ATOM     28  C   UNL     1       4.553  -1.773  -5.782  0.00  0.00    +0.190 C 
BRANCH  28  29
ATOM     29  O   UNL     1       5.228  -2.403  -4.694  0.00  0.00    -0.392 OA
ATOM     30  H   UNL     1       6.054  -1.900  -4.562  0.00  0.00    +0.210 HD
ENDBRANCH  28  29
ENDBRANCH  20  28
ENDBRANCH   1  16
TORSDOF 9
