REMARK  Name = 
REMARK  0 active torsions:
REMARK  status: ('A' for Active; 'I' for Inactive)
REMARK                            x       y       z     vdW  Elec       q    Type
REMARK                         _______ _______ _______ _____ _____    ______ ____
ROOT
ATOM      1  C   UNL     1       2.081   0.099  -0.008  0.00  0.00    +0.104 C 
ATOM      2  C   UNL     1       2.745   0.367  -1.327  0.00  0.00    +0.045 A 
ATOM      3  N   UNL     1       2.786   1.585  -1.954  0.00  0.00    -0.356 N 
ATOM      4  H   UNL     1       2.409   2.450  -1.591  0.00  0.00    +0.166 HD
ATOM      5  C   UNL     1       3.372   1.463  -3.193  0.00  0.00    +0.047 A 
ATOM      6  C   UNL     1       3.589   2.434  -4.179  0.00  0.00    +0.026 A 
ATOM      7  C   UNL     1       4.184   2.023  -5.374  0.00  0.00    +0.002 A 
ATOM      8  C   UNL     1       4.552   0.694  -5.571  0.00  0.00    +0.001 A 
ATOM      9  C   UNL     1       4.327  -0.267  -4.575  0.00  0.00    +0.011 A 
ATOM     10  C   UNL     1       3.725   0.122  -3.361  0.00  0.00    +0.011 A 
ATOM     11  C   UNL     1       3.290  -0.564  -2.187  0.00  0.00    +0.048 A 
ATOM     12  C   UNL     1       3.257  -1.968  -1.823  0.00  0.00    +0.179 C 
ATOM     13  O   UNL     1       3.877  -2.832  -2.436  0.00  0.00    -0.291 OA
ATOM     14  C   UNL     1       2.264  -2.301  -0.690  0.00  0.00    +0.164 C 
ATOM     15  N   UNL     1       2.250  -1.309   0.425  0.00  0.00    -0.287 NA
ATOM     16  C   UNL     1       3.307  -1.614   1.392  0.00  0.00    +0.085 C 
ATOM     17  C   UNL     1       3.533  -0.550   2.459  0.00  0.00    +0.015 C 
ATOM     18  C   UNL     1       3.738   0.799   1.800  0.00  0.00    +0.003 C 
ATOM     19  C   UNL     1       2.460   1.151   1.054  0.00  0.00    +0.025 C 
ENDROOT
TORSDOF 0
