REMARK  Name = 
REMARK  3 active torsions:
REMARK  status: ('A' for Active; 'I' for Inactive)
REMARK    1  A    between atoms: O_1  and  C_2
REMARK    2  A    between atoms: C_3  and  O_4
REMARK    3  A    between atoms: C_5  and  C_9
REMARK                            x       y       z     vdW  Elec       q    Type
REMARK                         _______ _______ _______ _____ _____    ______ ____
ROOT
ATOM      1  C   UNL     1       2.333  -0.003   0.088  0.00  0.00    +0.159 A 
ATOM      2  C   UNL     1       3.025   1.185   0.244  0.00  0.00    +0.049 A 
ATOM      3  C   UNL     1       4.413   1.144   0.323  0.00  0.00    +0.004 A 
ATOM      4  C   UNL     1       5.091  -0.083   0.239  0.00  0.00    +0.012 A 
ATOM      5  C   UNL     1       4.407  -1.310   0.094  0.00  0.00    +0.027 A 
ATOM      6  C   UNL     1       3.004  -1.230   0.039  0.00  0.00    +0.166 A 
ENDROOT
BRANCH   5   7
ATOM      7  C   UNL     1       5.160  -2.590   0.018  0.00  0.00    -0.014 A 
ATOM      8  C   UNL     1       6.334  -2.804   0.768  0.00  0.00    +0.008 A 
ATOM      9  C   UNL     1       7.046  -4.006   0.691  0.00  0.00    +0.001 A 
ATOM     10  C   UNL     1       6.594  -5.035  -0.130  0.00  0.00    +0.000 A 
ATOM     11  C   UNL     1       5.440  -4.854  -0.883  0.00  0.00    +0.001 A 
ATOM     12  C   UNL     1       4.743  -3.643  -0.817  0.00  0.00    +0.008 A 
ENDBRANCH   5   7
BRANCH   1  13
ATOM     13  O   UNL     1       0.973   0.042  -0.045  0.00  0.00    -0.503 OA
ATOM     14  H   UNL     1       0.732  -0.767  -0.533  0.00  0.00    +0.292 HD
ENDBRANCH   1  13
BRANCH   6  15
ATOM     15  O   UNL     1       2.220  -2.355  -0.021  0.00  0.00    -0.503 OA
ATOM     16  H   UNL     1       1.668  -2.323   0.783  0.00  0.00    +0.292 HD
ENDBRANCH   6  15
TORSDOF 3
