REMARK  Name = 
REMARK  9 active torsions:
REMARK  status: ('A' for Active; 'I' for Inactive)
REMARK    1  A    between atoms: C_2  and  C_3
REMARK    2  A    between atoms: C_3  and  O_4
REMARK    3  A    between atoms: C_6  and  O_8
REMARK    4  A    between atoms: O_8  and  C_9
REMARK    5  A    between atoms: C_15  and  C_20
REMARK    6  A    between atoms: C_23  and  O_24
REMARK    7  A    between atoms: C_27  and  O_29
REMARK    8  A    between atoms: C_30  and  O_32
REMARK    9  A    between atoms: C_33  and  O_35
REMARK                            x       y       z     vdW  Elec       q    Type
REMARK                         _______ _______ _______ _____ _____    ______ ____
ROOT
ATOM      1  C   UNL     1       0.212  -2.287  -2.879  0.00  0.00    +0.128 A 
ATOM      2  C   UNL     1      -1.172  -2.119  -2.998  0.00  0.00    +0.092 A 
ATOM      3  C   UNL     1      -1.851  -2.644  -4.096  0.00  0.00    +0.142 A 
ATOM      4  C   UNL     1      -1.147  -3.328  -5.083  0.00  0.00    +0.065 A 
ATOM      5  C   UNL     1      -1.865  -3.830  -6.265  0.00  0.00    +0.200 A 
ATOM      6  C   UNL     1      -3.322  -3.549  -6.314  0.00  0.00    +0.064 A 
ATOM      7  C   UNL     1      -3.867  -2.897  -5.276  0.00  0.00    +0.208 A 
ATOM      8  O   UNL     1      -1.275  -4.425  -7.156  0.00  0.00    -0.286 OA
ATOM      9  C   UNL     1       0.236  -3.501  -4.968  0.00  0.00    +0.019 A 
ATOM     10  O   UNL     1      -3.207  -2.446  -4.156  0.00  0.00    -0.462 OA
ATOM     11  C   UNL     1       0.917  -2.972  -3.870  0.00  0.00    +0.047 A 
ENDROOT
BRANCH   6  12
ATOM     12  C   UNL     1      -4.145  -3.912  -7.469  0.00  0.00    -0.011 A 
ATOM     13  C   UNL     1      -4.896  -5.095  -7.470  0.00  0.00    +0.012 A 
ATOM     14  C   UNL     1      -5.739  -5.386  -8.544  0.00  0.00    +0.046 A 
ATOM     15  C   UNL     1      -5.837  -4.494  -9.606  0.00  0.00    +0.117 A 
ATOM     16  C   UNL     1      -5.071  -3.334  -9.638  0.00  0.00    +0.046 A 
ATOM     17  C   UNL     1      -4.222  -3.045  -8.568  0.00  0.00    +0.012 A 
BRANCH  15  18
ATOM     18  O   UNL     1      -6.717  -4.789 -10.605  0.00  0.00    -0.507 OA
ATOM     19  H   UNL     1      -6.785  -4.019 -11.193  0.00  0.00    +0.292 HD
ENDBRANCH  15  18
ENDBRANCH   6  12
BRANCH   1  20
ATOM     20  O   UNL     1       0.784  -1.662  -1.812  0.00  0.00    -0.461 OA
BRANCH  20  25
ATOM     21  C   UNL     1       1.456  -1.521   1.078  0.00  0.00    +0.179 C 
ATOM     22  C   UNL     1       2.624  -0.518   1.026  0.00  0.00    +0.177 C 
ATOM     23  C   UNL     1       2.932  -0.081  -0.415  0.00  0.00    +0.180 C 
ATOM     24  C   UNL     1       3.132  -1.315  -1.317  0.00  0.00    +0.214 C 
ATOM     25  C   UNL     1       1.923  -2.272  -1.199  0.00  0.00    +0.339 C 
ATOM     26  O   UNL     1       1.650  -2.618   0.166  0.00  0.00    -0.331 OA
BRANCH  22  27
ATOM     27  O   UNL     1       3.791  -1.123   1.611  0.00  0.00    -0.386 OA
ATOM     28  H   UNL     1       4.165  -1.742   0.949  0.00  0.00    +0.210 HD
ENDBRANCH  22  27
BRANCH  23  29
ATOM     29  O   UNL     1       1.916   0.805  -0.898  0.00  0.00    -0.386 OA
ATOM     30  H   UNL     1       1.341   0.330  -1.527  0.00  0.00    +0.210 HD
ENDBRANCH  23  29
BRANCH  24  31
ATOM     31  O   UNL     1       4.345  -1.983  -0.928  0.00  0.00    -0.383 OA
ATOM     32  H   UNL     1       4.521  -2.693  -1.571  0.00  0.00    +0.210 HD
ENDBRANCH  24  31
BRANCH  21  33
ATOM     33  C   UNL     1       0.056  -0.892   0.933  0.00  0.00    +0.190 C 
BRANCH  33  34
ATOM     34  O   UNL     1      -0.163   0.172   1.850  0.00  0.00    -0.392 OA
ATOM     35  H   UNL     1       0.230   0.975   1.460  0.00  0.00    +0.210 HD
ENDBRANCH  33  34
ENDBRANCH  21  33
ENDBRANCH  20  25
ENDBRANCH   1  20
TORSDOF 9
