REMARK  Name = 
REMARK  17 active torsions:
REMARK  status: ('A' for Active; 'I' for Inactive)
REMARK    1  A    between atoms: O_1  and  C_2
REMARK    2  A    between atoms: C_2  and  C_4
REMARK    3  A    between atoms: C_2  and  C_10
REMARK    4  A    between atoms: C_4  and  O_5
REMARK    5  A    between atoms: O_5  and  P_6
REMARK    6  A    between atoms: P_6  and  O_7
REMARK    7  A    between atoms: P_6  and  O_8
REMARK    8  A    between atoms: C_10  and  O_12
REMARK    9  A    between atoms: C_10  and  C_13
REMARK   10  A    between atoms: C_13  and  O_15
REMARK   11  A    between atoms: C_13  and  C_16
REMARK   12  A    between atoms: C_16  and  O_18
REMARK   13  A    between atoms: C_16  and  C_19
REMARK   14  A    between atoms: C_19  and  O_20
REMARK   15  A    between atoms: O_20  and  P_21
REMARK   16  A    between atoms: P_21  and  O_22
REMARK   17  A    between atoms: P_21  and  O_23
REMARK                            x       y       z     vdW  Elec       q    Type
REMARK                         _______ _______ _______ _____ _____    ______ ____
ROOT
ATOM      1  C   UNL     1       4.990  -2.060  -3.712  0.00  0.00    +0.176 C 
ENDROOT
BRANCH   1   2
ATOM      2  O   UNL     1       6.228  -2.017  -4.424  0.00  0.00    -0.386 OA
ATOM      3  H   UNL     1       6.109  -1.339  -5.132  0.00  0.00    +0.210 HD
ENDBRANCH   1   2
BRANCH   1   4
ATOM      4  C   UNL     1       4.287  -0.670  -3.741  0.00  0.00    +0.176 C 
BRANCH   4   5
ATOM      5  O   UNL     1       5.120   0.357  -3.166  0.00  0.00    -0.386 OA
ATOM      6  H   UNL     1       5.625  -0.062  -2.435  0.00  0.00    +0.210 HD
ENDBRANCH   4   5
BRANCH   4   7
ATOM      7  C   UNL     1       3.875  -0.250  -5.180  0.00  0.00    +0.172 C 
BRANCH   7   8
ATOM      8  O   UNL     1       5.018  -0.297  -6.053  0.00  0.00    -0.387 OA
ATOM      9  H   UNL     1       4.798   0.279  -6.816  0.00  0.00    +0.210 HD
ENDBRANCH   7   8
BRANCH   7  10
ATOM     10  C   UNL     1       3.249   1.152  -5.248  0.00  0.00    +0.206 C 
BRANCH  10  11
ATOM     11  O   UNL     1       2.843   1.418  -6.605  0.00  0.00    -0.284 OA
BRANCH  11  12
ATOM     12  P   UNL     1       2.038   2.938  -6.789  0.00  0.00    +0.472 P 
ATOM     13  O   UNL     1       1.317   4.298  -6.953  0.00  0.00    -0.228 OA
BRANCH  12  14
ATOM     14  O   UNL     1       3.516   3.630  -6.795  0.00  0.00    -0.303 OA
ATOM     15  H   UNL     1       3.403   4.482  -7.260  0.00  0.00    +0.222 HD
ENDBRANCH  12  14
BRANCH  12  16
ATOM     16  O   UNL     1       1.996   2.562  -8.377  0.00  0.00    -0.303 OA
ATOM     17  H   UNL     1       1.249   1.977  -8.588  0.00  0.00    +0.222 HD
ENDBRANCH  12  16
ENDBRANCH  11  12
ENDBRANCH  10  11
ENDBRANCH   7  10
ENDBRANCH   4   7
ENDBRANCH   1   4
BRANCH   1  18
ATOM     18  C   UNL     1       5.311  -2.578  -2.303  0.00  0.00    +0.172 C 
BRANCH  18  19
ATOM     19  O   UNL     1       6.250  -1.685  -1.682  0.00  0.00    -0.387 OA
ATOM     20  H   UNL     1       7.095  -1.820  -2.160  0.00  0.00    +0.210 HD
ENDBRANCH  18  19
BRANCH  18  21
ATOM     21  C   UNL     1       5.884  -4.008  -2.382  0.00  0.00    +0.206 C 
BRANCH  21  22
ATOM     22  O   UNL     1       6.113  -4.613  -1.101  0.00  0.00    -0.284 OA
BRANCH  22  23
ATOM     23  P   UNL     1       6.648  -6.246  -1.294  0.00  0.00    +0.472 P 
ATOM     24  O   UNL     1       7.127  -7.709  -1.466  0.00  0.00    -0.228 OA
BRANCH  23  25
ATOM     25  O   UNL     1       8.141  -5.621  -1.514  0.00  0.00    -0.303 OA
ATOM     26  H   UNL     1       8.723  -6.337  -1.831  0.00  0.00    +0.222 HD
ENDBRANCH  23  25
BRANCH  23  27
ATOM     27  O   UNL     1       6.637  -6.335   0.334  0.00  0.00    -0.303 OA
ATOM     28  H   UNL     1       5.775  -6.617   0.685  0.00  0.00    +0.222 HD
ENDBRANCH  23  27
ENDBRANCH  22  23
ENDBRANCH  21  22
ENDBRANCH  18  21
ENDBRANCH   1  18
TORSDOF 17
