REMARK  Name = 
REMARK  15 active torsions:
REMARK  status: ('A' for Active; 'I' for Inactive)
REMARK    1  A    between atoms: CA_2  and  CB_3
REMARK    2  A    between atoms: CA_2  and  N_4
REMARK    3  A    between atoms: CA_2  and  C_27
REMARK    4  A    between atoms: C_5  and  CA_7
REMARK    5  A    between atoms: CA_7  and  CB_9
REMARK    6  A    between atoms: CA_7  and  N_16
REMARK    7  A    between atoms: CB_9  and  CG_10
REMARK    8  A    between atoms: C_17  and  C_19
REMARK    9  A    between atoms: C_19  and  S_21
REMARK   10  A    between atoms: C_19  and  C_22
REMARK   11  A    between atoms: C_22  and  C_23
REMARK   12  A    between atoms: C_23  and  C_24
REMARK   13  A    between atoms: C_24  and  C_25
REMARK   14  A    between atoms: C_25  and  C_26
REMARK   15  A    between atoms: C_27  and  O_28
REMARK                            x       y       z     vdW  Elec       q    Type
REMARK                         _______ _______ _______ _____ _____    ______ ____
ROOT
ATOM      1  CA  PHE A   1       2.875   0.376  -3.992  0.00  0.00    +0.163 C 
ENDROOT
BRANCH   1   4
ATOM      2  N   PHE A   1       1.993   2.478  -3.030  0.00  0.00    -0.301 N 
ATOM      3  H   PHE A   1       2.307   2.112  -2.140  0.00  0.00    +0.150 HD
ATOM      4  C   PHE A   1       1.982   1.631  -4.118  0.00  0.00    +0.234 C 
ATOM      5  O   PHE A   1       1.300   1.881  -5.113  0.00  0.00    -0.274 OA
BRANCH   2   6
ATOM      6  CA  PHE A   1       1.214   3.714  -3.000  0.00  0.00    +0.179 C 
ATOM      7  CB  PHE A   1       1.620   4.740  -4.058  0.00  0.00    +0.040 C 
BRANCH   6   8
ATOM      8  C   PHE A   1      -0.291   3.421  -2.970  0.00  0.00    +0.325 C 
ATOM      9  OXT PHE A   1      -0.917   3.262  -1.930  0.00  0.00    -0.249 OA
BRANCH   8  10
ATOM     10  O   PHE A   1      -0.857   3.234  -4.184  0.00  0.00    -0.479 OA
ATOM     11  H   PHE A   1      -0.187   3.065  -4.887  0.00  0.00    +0.295 HD
ENDBRANCH   8  10
ENDBRANCH   6   8
ENDBRANCH   2   6
ENDBRANCH   1   4
BRANCH   1  12
ATOM     12  N   PHE A   1       2.601  -0.536  -5.096  0.00  0.00    -0.303 N 
ATOM     13  H   PHE A   1       2.078  -0.177  -5.892  0.00  0.00    +0.149 HD
ATOM     14  C   UNK A   0       2.907  -1.874  -5.037  0.00  0.00    +0.226 C 
ATOM     15  O   UNK A   0       3.471  -2.371  -4.063  0.00  0.00    -0.275 OA
BRANCH  14  16
ATOM     16  C   UNK A   0       2.581  -2.702  -6.284  0.00  0.00    +0.129 C 
BRANCH  16  17
ATOM     17  S   UNK A   0       0.898  -2.292  -6.893  0.00  0.00    -0.166 S 
ATOM     18  H   UNK A   0       0.258  -2.541  -5.740  0.00  0.00    +0.102 HD
ENDBRANCH  16  17
BRANCH  16  19
ATOM     19  C   UNK A   0       3.598  -2.480  -7.408  0.00  0.00    +0.023 C 
BRANCH  19  20
ATOM     20  C   UNK A   0       5.009  -2.939  -7.017  0.00  0.00    +0.002 C 
BRANCH  20  21
ATOM     21  C   UNK A   0       5.998  -2.731  -8.165  0.00  0.00    -0.000 C 
BRANCH  21  22
ATOM     22  C   UNK A   0       7.420  -3.112  -7.753  0.00  0.00    -0.003 C 
ATOM     23  C   UNK A   0       8.402  -2.913  -8.897  0.00  0.00    +0.004 C 
ENDBRANCH  21  22
ENDBRANCH  20  21
ENDBRANCH  19  20
ENDBRANCH  16  19
ENDBRANCH  14  16
ENDBRANCH   1  12
BRANCH   1  24
ATOM     24  CB  PHE A   1       4.372   0.723  -3.858  0.00  0.00    +0.067 C 
BRANCH  24  25
ATOM     25  CG  PHE A   1       5.020   1.318  -5.091  0.00  0.00    -0.045 A 
ATOM     26  CD2 PHE A   1       6.001   0.604  -5.792  0.00  0.00    +0.004 A 
ATOM     27  CE2 PHE A   1       6.610   1.147  -6.926  0.00  0.00    +0.000 A 
ATOM     28  CZ  PHE A   1       6.249   2.417  -7.370  0.00  0.00    +0.000 A 
ATOM     29  CE1 PHE A   1       5.287   3.145  -6.676  0.00  0.00    +0.000 A 
ATOM     30  CD1 PHE A   1       4.686   2.602  -5.539  0.00  0.00    +0.004 A 
ENDBRANCH  24  25
ENDBRANCH   1  24
TORSDOF 13
