REMARK  Name = 
REMARK  9 active torsions:
REMARK  status: ('A' for Active; 'I' for Inactive)
REMARK    1  A    between atoms: O_1  and  O_2
REMARK    2  A    between atoms: O_2  and  C_3
REMARK    3  A    between atoms: C_3  and  C_4
REMARK    4  A    between atoms: C_4  and  C_5
REMARK    5  A    between atoms: C_8  and  O_9
REMARK    6  A    between atoms: C_16  and  C_26
REMARK    7  A    between atoms: C_18  and  C_19
REMARK    8  A    between atoms: C_19  and  C_20
REMARK    9  A    between atoms: C_29  and  O_30
REMARK                            x       y       z     vdW  Elec       q    Type
REMARK                         _______ _______ _______ _____ _____    ______ ____
ROOT
ATOM      1  C   UNL     1       2.801  -0.634  -1.013  0.00  0.00    +0.277 C 
ATOM      2  C   UNL     1       1.737  -0.797  -2.121  0.00  0.00    +0.291 C 
ATOM      3  O   UNL     1       1.254   0.081  -2.821  0.00  0.00    -0.267 OA
ATOM      4  N   UNL     1       1.460  -2.129  -2.155  0.00  0.00    -0.264 N 
ATOM      5  C   UNL     1       0.578  -2.799  -2.955  0.00  0.00    +0.124 A 
ATOM      6  C   UNL     1       0.485  -4.142  -2.860  0.00  0.00    +0.088 A 
ATOM      7  N   UNL     1       1.266  -4.874  -1.978  0.00  0.00    -0.246 NA
ATOM      8  C   UNL     1       2.135  -4.246  -1.235  0.00  0.00    +0.089 A 
ATOM      9  C   UNL     1       2.259  -2.750  -1.268  0.00  0.00    +0.161 A 
ATOM     10  N   UNL     1       3.065  -2.042  -0.545  0.00  0.00    -0.219 NA
ENDROOT
BRANCH   6  11
ATOM     11  C   UNL     1      -0.358  -4.927  -3.808  0.00  0.00    +0.002 A 
ATOM     12  C   UNL     1      -1.471  -4.398  -4.482  0.00  0.00    +0.013 A 
ATOM     13  C   UNL     1      -2.166  -5.163  -5.429  0.00  0.00    +0.046 A 
ATOM     14  C   UNL     1      -1.765  -6.465  -5.700  0.00  0.00    +0.117 A 
ATOM     15  C   UNL     1      -0.701  -7.033  -5.015  0.00  0.00    +0.046 A 
ATOM     16  C   UNL     1      -0.010  -6.267  -4.073  0.00  0.00    +0.013 A 
BRANCH  14  17
ATOM     17  O   UNL     1      -2.440  -7.158  -6.660  0.00  0.00    -0.507 OA
ATOM     18  H   UNL     1      -1.984  -8.003  -6.807  0.00  0.00    +0.292 HD
ENDBRANCH  14  17
ENDBRANCH   6  11
BRANCH   1  19
ATOM     19  O   UNL     1       2.322   0.307  -0.040  0.00  0.00    -0.197 OA
BRANCH  19  20
ATOM     20  O   UNL     1       1.135  -0.270   0.588  0.00  0.00    -0.247 OA
ATOM     21  H   UNL     1       0.820   0.564   0.993  0.00  0.00    +0.253 HD
ENDBRANCH  19  20
ENDBRANCH   1  19
BRANCH   8  22
ATOM     22  C   UNL     1       3.104  -5.019  -0.378  0.00  0.00    +0.094 C 
BRANCH  22  23
ATOM     23  C   UNL     1       4.378  -5.373  -1.115  0.00  0.00    -0.041 A 
ATOM     24  C   UNL     1       4.343  -6.166  -2.273  0.00  0.00    +0.004 A 
ATOM     25  C   UNL     1       5.525  -6.534  -2.920  0.00  0.00    +0.000 A 
ATOM     26  C   UNL     1       6.754  -6.116  -2.417  0.00  0.00    +0.000 A 
ATOM     27  C   UNL     1       6.802  -5.322  -1.273  0.00  0.00    +0.000 A 
ATOM     28  C   UNL     1       5.620  -4.951  -0.626  0.00  0.00    +0.004 A 
ENDBRANCH  22  23
ENDBRANCH   8  22
BRANCH   1  29
ATOM     29  C   UNL     1       4.089  -0.069  -1.660  0.00  0.00    +0.108 C 
BRANCH  29  30
ATOM     30  C   UNL     1       5.217   0.134  -0.666  0.00  0.00    -0.042 A 
ATOM     31  C   UNL     1       5.317   1.335   0.051  0.00  0.00    +0.007 A 
ATOM     32  C   UNL     1       6.277   1.482   1.053  0.00  0.00    +0.045 A 
ATOM     33  C   UNL     1       7.138   0.431   1.339  0.00  0.00    +0.117 A 
ATOM     34  C   UNL     1       7.087  -0.752   0.609  0.00  0.00    +0.045 A 
ATOM     35  C   UNL     1       6.127  -0.898  -0.396  0.00  0.00    +0.007 A 
BRANCH  33  36
ATOM     36  O   UNL     1       8.018   0.592   2.368  0.00  0.00    -0.507 OA
ATOM     37  H   UNL     1       8.418  -0.271   2.565  0.00  0.00    +0.292 HD
ENDBRANCH  33  36
ENDBRANCH  29  30
ENDBRANCH   1  29
TORSDOF 9
