REMARK  Name = 
REMARK  13 active torsions:
REMARK  status: ('A' for Active; 'I' for Inactive)
REMARK    1  A    between atoms: N_1  and  C_2
REMARK    2  A    between atoms: C_4  and  C_5
REMARK    3  A    between atoms: C_5  and  N_6
REMARK    4  A    between atoms: C_7  and  O_8
REMARK    5  A    between atoms: N_9  and  C_10
REMARK    6  A    between atoms: C_10  and  C_11
REMARK    7  A    between atoms: C_13  and  N_14
REMARK    8  A    between atoms: C_18  and  C_20
REMARK    9  A    between atoms: C_20  and  C_21
REMARK   10  A    between atoms: C_27  and  O_29
REMARK   11  A    between atoms: C_30  and  O_32
REMARK   12  A    between atoms: C_33  and  C_35
REMARK   13  A    between atoms: C_35  and  C_36
REMARK                            x       y       z     vdW  Elec       q    Type
REMARK                         _______ _______ _______ _____ _____    ______ ____
ROOT
ATOM      1  N   UNL     1       4.032   3.504  -0.324  0.00  0.00    -0.255 NA
ATOM      2  C   UNL     1       3.211   3.353  -1.564  0.00  0.00    +0.096 C 
ATOM      3  C   UNL     1       1.846   4.069  -1.285  0.00  0.00    +0.162 C 
ATOM      4  C   UNL     1       1.849   5.554  -1.722  0.00  0.00    +0.162 C 
ATOM      5  C   UNL     1       3.126   6.384  -1.367  0.00  0.00    +0.096 C 
ATOM      6  N   UNL     1       3.813   5.962  -0.133  0.00  0.00    -0.255 NA
ATOM      7  C   UNL     1       4.683   4.816  -0.169  0.00  0.00    +0.264 C 
ENDROOT
BRANCH   3   8
ATOM      8  O   UNL     1       0.695   3.396  -1.816  0.00  0.00    -0.388 OA
ATOM      9  H   UNL     1       0.495   3.758  -2.695  0.00  0.00    +0.210 HD
ENDBRANCH   3   8
BRANCH   4  10
ATOM     10  O   UNL     1       0.685   6.180  -1.145  0.00  0.00    -0.388 OA
ATOM     11  H   UNL     1       0.721   7.133  -1.335  0.00  0.00    +0.210 HD
ENDBRANCH   4  10
BRANCH   7  12
ATOM     12  O   UNL     1       5.728   4.999  -1.097  0.00  0.00    -0.364 OA
ATOM     13  H   UNL     1       5.681   4.262  -1.717  0.00  0.00    +0.213 HD
ENDBRANCH   7  12
BRANCH   1  14
ATOM     14  C   UNL     1       5.038   2.498   0.047  0.00  0.00    +0.123 C 
BRANCH  14  19
ATOM     15  C   UNL     1       5.229  -1.267  -0.278  0.00  0.00    +0.025 A 
ATOM     16  C   UNL     1       4.139  -1.670   0.492  0.00  0.00    +0.023 A 
ATOM     17  C   UNL     1       3.335  -0.729   1.146  0.00  0.00    +0.002 A 
ATOM     18  C   UNL     1       3.597   0.635   1.013  0.00  0.00    +0.005 A 
ATOM     19  C   UNL     1       4.640   1.056   0.187  0.00  0.00    -0.031 A 
ATOM     20  C   UNL     1       5.427   0.095  -0.473  0.00  0.00    +0.027 A 
BRANCH  15  21
ATOM     21  N   UNL     1       5.981  -2.188  -1.014  0.00  0.00    -0.358 N 
ATOM     22  H   UNL     1       6.055  -3.094  -0.564  0.00  0.00    +0.142 HD
ATOM     23  H   UNL     1       6.889  -1.833  -1.301  0.00  0.00    +0.142 HD
ENDBRANCH  15  21
ENDBRANCH  14  19
ENDBRANCH   1  14
BRANCH   2  24
ATOM     24  C   UNL     1       3.003   1.943  -2.188  0.00  0.00    +0.056 C 
BRANCH  24  25
ATOM     25  C   UNL     1       2.371   1.926  -3.576  0.00  0.00    -0.046 A 
ATOM     26  C   UNL     1       1.207   1.173  -3.798  0.00  0.00    +0.004 A 
ATOM     27  C   UNL     1       0.621   1.115  -5.063  0.00  0.00    +0.000 A 
ATOM     28  C   UNL     1       1.196   1.803  -6.127  0.00  0.00    +0.000 A 
ATOM     29  C   UNL     1       2.350   2.557  -5.924  0.00  0.00    +0.000 A 
ATOM     30  C   UNL     1       2.937   2.618  -4.657  0.00  0.00    +0.004 A 
ENDBRANCH  24  25
ENDBRANCH   2  24
BRANCH   5  31
ATOM     31  C   UNL     1       4.008   6.577  -2.654  0.00  0.00    +0.056 C 
BRANCH  31  32
ATOM     32  C   UNL     1       5.183   7.537  -2.641  0.00  0.00    -0.046 A 
ATOM     33  C   UNL     1       6.042   7.549  -3.756  0.00  0.00    +0.004 A 
ATOM     34  C   UNL     1       7.142   8.407  -3.808  0.00  0.00    +0.000 A 
ATOM     35  C   UNL     1       7.398   9.269  -2.747  0.00  0.00    +0.000 A 
ATOM     36  C   UNL     1       6.558   9.269  -1.636  0.00  0.00    +0.000 A 
ATOM     37  C   UNL     1       5.456   8.411  -1.585  0.00  0.00    +0.004 A 
ENDBRANCH  31  32
ENDBRANCH   5  31
BRANCH   6  38
ATOM     38  C   UNL     1       3.000   6.069   1.094  0.00  0.00    +0.123 C 
BRANCH  38  39
ATOM     39  C   UNL     1       3.842   6.164   2.354  0.00  0.00    -0.031 A 
ATOM     40  C   UNL     1       3.827   5.137   3.306  0.00  0.00    +0.005 A 
ATOM     41  C   UNL     1       4.650   5.210   4.430  0.00  0.00    +0.002 A 
ATOM     42  C   UNL     1       5.509   6.301   4.596  0.00  0.00    +0.023 A 
ATOM     43  C   UNL     1       5.580   7.304   3.628  0.00  0.00    +0.025 A 
ATOM     44  C   UNL     1       4.696   7.261   2.548  0.00  0.00    +0.027 A 
BRANCH  43  45
ATOM     45  N   UNL     1       6.372   8.441   3.840  0.00  0.00    -0.358 N 
ATOM     46  H   UNL     1       7.197   8.251   4.401  0.00  0.00    +0.142 HD
ATOM     47  H   UNL     1       6.605   8.925   2.978  0.00  0.00    +0.142 HD
ENDBRANCH  43  45
ENDBRANCH  38  39
ENDBRANCH   6  38
TORSDOF 13
