REMARK  Name = 
REMARK  13 active torsions:
REMARK  status: ('A' for Active; 'I' for Inactive)
REMARK    1  A    between atoms: C_1  and  C_2
REMARK    2  A    between atoms: N_4  and  C_5
REMARK    3  A    between atoms: C_8  and  C_10
REMARK    4  A    between atoms: C_10  and  O_11
REMARK    5  A    between atoms: O_11  and  P_12
REMARK    6  A    between atoms: P_12  and  O_13
REMARK    7  A    between atoms: P_12  and  O_15
REMARK    8  A    between atoms: O_15  and  P_16
REMARK    9  A    between atoms: P_16  and  O_17
REMARK   10  A    between atoms: P_16  and  O_19
REMARK   11  A    between atoms: O_19  and  P_20
REMARK   12  A    between atoms: P_20  and  O_21
REMARK   13  A    between atoms: P_20  and  O_22
REMARK                            x       y       z     vdW  Elec       q    Type
REMARK                         _______ _______ _______ _____ _____    ______ ____
ROOT
ATOM      1  O   UNL     1      -1.916   2.900   4.266  0.00  0.00    -0.283 OA
ENDROOT
BRANCH   1   2
ATOM      2  P   UNL     1      -0.490   2.276   4.658  0.00  0.00    +0.483 P 
ATOM      3  O   UNL     1       0.612   3.291   4.666  0.00  0.00    -0.227 OA
BRANCH   2   4
ATOM      4  O   UNL     1      -0.338   1.159   3.529  0.00  0.00    -0.302 OA
ATOM      5  H   UNL     1      -1.203   0.876   3.181  0.00  0.00    +0.222 HD
ENDBRANCH   2   4
BRANCH   2   6
ATOM      6  O   UNL     1      -0.630   1.525   6.007  0.00  0.00    -0.186 OA
BRANCH   6   7
ATOM      7  P   UNL     1      -1.210   0.524   7.081  0.00  0.00    +0.492 P 
ATOM      8  O   UNL     1      -2.680   0.865   7.333  0.00  0.00    -0.226 OA
BRANCH   7   9
ATOM      9  O   UNL     1      -1.743  -0.593   5.872  0.00  0.00    -0.302 OA
ATOM     10  H   UNL     1      -2.655  -0.306   5.665  0.00  0.00    +0.222 HD
ENDBRANCH   7   9
BRANCH   7  11
ATOM     11  O   UNL     1      -0.678   1.641   8.290  0.00  0.00    -0.186 OA
BRANCH  11  12
ATOM     12  P   UNL     1       0.771   1.358   8.880  0.00  0.00    +0.481 P 
ATOM     13  O   UNL     1       0.901   0.129   9.705  0.00  0.00    -0.227 OA
BRANCH  12  14
ATOM     14  O   UNL     1       1.129   2.702   9.662  0.00  0.00    -0.302 OA
ATOM     15  H   UNL     1       0.735   2.714  10.554  0.00  0.00    +0.222 HD
ENDBRANCH  12  14
BRANCH  12  16
ATOM     16  O   UNL     1       1.743   1.458   7.621  0.00  0.00    -0.302 OA
ATOM     17  H   UNL     1       1.777   2.349   7.220  0.00  0.00    +0.222 HD
ENDBRANCH  12  16
ENDBRANCH  11  12
ENDBRANCH   7  11
ENDBRANCH   6   7
ENDBRANCH   2   6
ENDBRANCH   1   2
BRANCH   1  18
ATOM     18  C   UNL     1      -2.611   3.618   5.270  0.00  0.00    +0.208 C 
BRANCH  18  22
ATOM     19  C   UNL     1      -5.820   3.294   4.548  0.00  0.00    +0.248 C 
ATOM     20  C   UNL     1      -5.781   4.076   5.815  0.00  0.00    +0.025 C 
ATOM     21  C   UNL     1      -4.673   4.819   5.859  0.00  0.00    +0.007 C 
ATOM     22  C   UNL     1      -3.779   4.450   4.725  0.00  0.00    +0.170 C 
ATOM     23  O   UNL     1      -4.605   3.650   3.862  0.00  0.00    -0.343 OA
BRANCH  19  32
ATOM     24  C   UNL     1      -5.602  -1.118   6.987  0.00  0.00    +0.051 C 
ATOM     25  C   UNL     1      -5.703  -0.242   5.779  0.00  0.00    +0.030 A 
ATOM     26  C   UNL     1      -5.825  -0.943   4.479  0.00  0.00    +0.257 A 
ATOM     27  O   UNL     1      -5.755  -2.163   4.386  0.00  0.00    -0.267 OA
ATOM     28  N   UNL     1      -6.006  -0.145   3.395  0.00  0.00    -0.275 N 
ATOM     29  H   UNL     1      -6.119  -0.596   2.501  0.00  0.00    +0.173 HD
ATOM     30  C   UNL     1      -6.085   1.220   3.394  0.00  0.00    +0.332 A 
ATOM     31  O   UNL     1      -6.349   1.801   2.348  0.00  0.00    -0.246 OA
ATOM     32  N   UNL     1      -5.866   1.842   4.625  0.00  0.00    -0.270 N 
ATOM     33  C   UNL     1      -5.694   1.099   5.782  0.00  0.00    +0.102 A 
ENDBRANCH  19  32
ENDBRANCH  18  22
ENDBRANCH   1  18
TORSDOF 12
