REMARK  Name = 
REMARK  9 active torsions:
REMARK  status: ('A' for Active; 'I' for Inactive)
REMARK    1  A    between atoms: C_1  and  C_2
REMARK    2  A    between atoms: C_2  and  O_4
REMARK    3  A    between atoms: C_2  and  C_5
REMARK    4  A    between atoms: C_5  and  O_7
REMARK    5  A    between atoms: C_5  and  C_8
REMARK    6  A    between atoms: C_8  and  O_10
REMARK    7  A    between atoms: C_8  and  C_11
REMARK    8  A    between atoms: C_11  and  O_13
REMARK    9  A    between atoms: C_11  and  C_14
REMARK                            x       y       z     vdW  Elec       q    Type
REMARK                         _______ _______ _______ _____ _____    ______ ____
ROOT
ATOM      1  C   UNL     1       4.683   1.592   0.263  0.00  0.00    +0.181 C 
ENDROOT
BRANCH   1   2
ATOM      2  O   UNL     1       3.789   2.620   0.711  0.00  0.00    -0.386 OA
ATOM      3  H   UNL     1       3.685   3.249  -0.031  0.00  0.00    +0.210 HD
ENDBRANCH   1   2
BRANCH   1   4
ATOM      4  C   UNL     1       5.010   0.632   1.424  0.00  0.00    +0.174 C 
BRANCH   4   6
ATOM      5  C   UNL     1       5.089   2.373   3.361  0.00  0.00    +0.040 C 
ATOM      6  C   UNL     1       5.805   1.281   2.579  0.00  0.00    +0.142 C 
BRANCH   6   7
ATOM      7  O   UNL     1       6.129   0.226   3.500  0.00  0.00    -0.389 OA
ATOM      8  H   UNL     1       6.711   0.609   4.181  0.00  0.00    +0.210 HD
ENDBRANCH   6   7
ENDBRANCH   4   6
BRANCH   4   9
ATOM      9  O   UNL     1       3.809   0.013   1.925  0.00  0.00    -0.387 OA
ATOM     10  H   UNL     1       4.087  -0.424   2.756  0.00  0.00    +0.210 HD
ENDBRANCH   4   9
ENDBRANCH   1   4
BRANCH   1  11
ATOM     11  C   UNL     1       4.049   0.836  -0.925  0.00  0.00    +0.208 C 
BRANCH  11  12
ATOM     12  C   UNL     1       3.909   1.757  -2.122  0.00  0.00    +0.257 C 
ATOM     13  O   UNL     1       4.364   2.898  -2.173  0.00  0.00    -0.298 OA
ENDBRANCH  11  12
BRANCH  11  14
ATOM     14  O   UNL     1       2.761   0.310  -0.622  0.00  0.00    -0.382 OA
ATOM     15  H   UNL     1       2.689   0.306   0.360  0.00  0.00    +0.210 HD
ENDBRANCH  11  14
ENDBRANCH   1  11
TORSDOF 8
