REMARK  Name = 
REMARK  5 active torsions:
REMARK  status: ('A' for Active; 'I' for Inactive)
REMARK    1  A    between atoms: C_1  and  C_2
REMARK    2  A    between atoms: C_2  and  O_3
REMARK    3  A    between atoms: O_3  and  C_4
REMARK    4  A    between atoms: C_4  and  C_6
REMARK    5  A    between atoms: C_11  and  O_12
REMARK                            x       y       z     vdW  Elec       q    Type
REMARK                         _______ _______ _______ _____ _____    ______ ____
ROOT
ATOM      1  C   UNL     1       4.870   2.262  -2.007  0.00  0.00    +0.144 A 
ATOM      2  C   UNL     1       4.612   3.674  -1.650  0.00  0.00    +0.351 A 
ATOM      3  O   UNL     1       4.173   4.024  -0.560  0.00  0.00    -0.244 OA
ATOM      4  O   UNL     1       4.931   4.628  -2.615  0.00  0.00    -0.421 OA
ATOM      5  C   UNL     1       5.462   4.273  -3.867  0.00  0.00    +0.143 A 
ATOM      6  C   UNL     1       5.723   2.942  -4.177  0.00  0.00    +0.019 A 
ATOM      7  C   UNL     1       6.228   2.629  -5.441  0.00  0.00    +0.015 A 
ATOM      8  C   UNL     1       6.456   3.645  -6.376  0.00  0.00    +0.046 A 
ATOM      9  C   UNL     1       6.187   4.969  -6.035  0.00  0.00    +0.120 A 
ATOM     10  C   UNL     1       5.695   5.298  -4.779  0.00  0.00    +0.092 A 
ATOM     11  C   UNL     1       5.421   1.923  -3.185  0.00  0.00    +0.033 A 
ENDROOT
BRANCH   1  12
ATOM     12  C   UNL     1       4.514   1.141  -1.111  0.00  0.00    +0.346 C 
ATOM     13  O   UNL     1       5.068   0.048  -1.135  0.00  0.00    -0.245 OA
BRANCH  12  14
ATOM     14  O   UNL     1       3.433   1.456  -0.361  0.00  0.00    -0.461 OA
BRANCH  14  16
ATOM     15  C   UNL     1       1.954  -0.447  -0.303  0.00  0.00    +0.048 C 
ATOM     16  C   UNL     1       2.916   0.421   0.486  0.00  0.00    +0.229 C 
ENDBRANCH  14  16
ENDBRANCH  12  14
ENDBRANCH   1  12
BRANCH   9  17
ATOM     17  O   UNL     1       6.384   5.986  -6.921  0.00  0.00    -0.507 OA
ATOM     18  H   UNL     1       6.687   5.615  -7.766  0.00  0.00    +0.292 HD
ENDBRANCH   9  17
TORSDOF 4
