REMARK  Name = 
REMARK  9 active torsions:
REMARK  status: ('A' for Active; 'I' for Inactive)
REMARK    1  A    between atoms: N_10  and  C_11
REMARK    2  A    between atoms: C_14  and  C_16
REMARK    3  A    between atoms: C_16  and  O_17
REMARK    4  A    between atoms: O_17  and  P_18
REMARK    5  A    between atoms: P_18  and  O_19
REMARK    6  A    between atoms: P_18  and  O_21
REMARK    7  A    between atoms: O_21  and  P_22
REMARK    8  A    between atoms: P_22  and  O_23
REMARK    9  A    between atoms: P_22  and  O_24
REMARK                            x       y       z     vdW  Elec       q    Type
REMARK                         _______ _______ _______ _____ _____    ______ ____
ROOT
ATOM      1  C   UNL     1      11.662   2.162   1.237  0.00  0.00    +0.000 C 
ATOM      2  C   UNL     1      12.871   1.245   1.391  0.00  0.00    +0.000 C 
ATOM      3  C   UNL     1      12.834   1.095   2.893  0.00  0.00    +0.000 C 
ATOM      4  O   UNL     1      13.782   0.189   3.360  0.00  0.00    +0.000 OA
ATOM      5  V   UNL     1      15.243   0.966   2.333  0.00  0.00    +0.000 V 
ATOM      6  O   UNL     1      16.358  -0.248   1.731  0.00  0.00    +0.000 OA
ATOM      7  O   UNL     1      16.059   2.242   3.223  0.00  0.00    +0.000 OA
ATOM      8  C   UNL     1      11.362   0.767   3.095  0.00  0.00    +0.000 C 
ATOM      9  O   UNL     1      14.105   1.739   0.946  0.00  0.00    +0.000 OA
ATOM     10  O   UNL     1      10.688   1.647   2.172  0.00  0.00    +0.000 OA
ENDROOT
BRANCH   1  18
ATOM     11  N   UNL     1      13.719   7.964   1.325  0.00  0.00    +0.000 N 
ATOM     12  H   UNL     1      13.212   8.217   2.186  0.00  0.00    +0.000 HD
ATOM     13  H   UNL     1      14.304   8.682   0.866  0.00  0.00    +0.000 HD
ATOM     14  C   UNL     1      13.633   6.661   0.771  0.00  0.00    +0.000 A 
ATOM     15  C   UNL     1      12.855   5.645   1.344  0.00  0.00    +0.000 A 
ATOM     16  N   UNL     1      12.076   5.665   2.441  0.00  0.00    +0.000 NA
ATOM     17  C   UNL     1      11.560   4.399   2.506  0.00  0.00    +0.000 A 
ATOM     18  N   UNL     1      12.006   3.595   1.498  0.00  0.00    +0.000 N 
ATOM     19  C   UNL     1      12.811   4.409   0.774  0.00  0.00    +0.000 A 
ATOM     20  N   UNL     1      13.497   4.122  -0.362  0.00  0.00    +0.000 NA
ATOM     21  C   UNL     1      14.258   5.110  -0.930  0.00  0.00    +0.000 A 
ATOM     22  N   UNL     1      14.321   6.355  -0.365  0.00  0.00    +0.000 NA
ENDBRANCH   1  18
BRANCH   8  23
ATOM     23  C   UNL     1      10.957  -0.755   2.894  0.00  0.00    +0.000 C 
BRANCH  23  24
ATOM     24  O   UNL     1      11.615  -1.594   3.847  0.00  0.00    +0.000 OA
BRANCH  24  25
ATOM     25  P   UNL     1      11.202  -3.324   3.657  0.00  0.00    +0.000 P 
ATOM     26  O   UNL     1      12.115  -3.781   4.826  0.00  0.00    +0.000 OA
BRANCH  25  27
ATOM     27  O   UNL     1       9.882  -3.141   4.760  0.00  0.00    +0.000 OA
ATOM     28  H   UNL     1       9.322  -3.946   4.614  0.00  0.00    +0.000 HD
ENDBRANCH  25  27
BRANCH  25  29
ATOM     29  O   UNL     1      12.523  -3.507   2.555  0.00  0.00    +0.000 OA
BRANCH  29  30
ATOM     30  P   UNL     1      12.123  -4.701   1.369  0.00  0.00    +0.000 P 
ATOM     31  O   UNL     1      11.765  -5.770   0.307  0.00  0.00    +0.000 OA
BRANCH  30  32
ATOM     32  O   UNL     1      13.470  -5.661   1.906  0.00  0.00    +0.000 OA
ATOM     33  H   UNL     1      13.272  -5.898   2.848  0.00  0.00    +0.000 HD
ENDBRANCH  30  32
BRANCH  30  34
ATOM     34  O   UNL     1      13.089  -3.845   0.199  0.00  0.00    +0.000 OA
ATOM     35  H   UNL     1      12.804  -2.897   0.239  0.00  0.00    +0.000 HD
ENDBRANCH  30  34
ENDBRANCH  29  30
ENDBRANCH  25  29
ENDBRANCH  24  25
ENDBRANCH  23  24
ENDBRANCH   8  23
TORSDOF 9
