REMARK  Name = 
REMARK  8 active torsions:
REMARK  status: ('A' for Active; 'I' for Inactive)
REMARK    1  A    between atoms: O_1  and  C_2
REMARK    2  A    between atoms: C_5  and  C_20
REMARK    3  A    between atoms: C_7  and  O_9
REMARK    4  A    between atoms: C_10  and  O_12
REMARK    5  A    between atoms: C_13  and  O_15
REMARK    6  A    between atoms: O_15  and  S_16
REMARK    7  A    between atoms: S_16  and  O_17
REMARK    8  A    between atoms: C_20  and  O_21
REMARK                            x       y       z     vdW  Elec       q    Type
REMARK                         _______ _______ _______ _____ _____    ______ ____
ROOT
ATOM      1  C   UNL     1       2.316  -0.017   0.092  0.00  0.00    +0.282 C 
ATOM      2  C   UNL     1       3.052   1.031  -0.766  0.00  0.00    +0.238 C 
ATOM      3  C   UNL     1       2.717   0.777  -2.247  0.00  0.00    +0.182 C 
ATOM      4  C   UNL     1       2.987  -0.683  -2.649  0.00  0.00    +0.185 C 
ATOM      5  C   UNL     1       2.423  -1.692  -1.635  0.00  0.00    +0.260 C 
ATOM      6  O   UNL     1       2.659  -1.355  -0.260  0.00  0.00    -0.332 OA
ENDROOT
BRANCH   1   7
ATOM      7  O   UNL     1       0.910   0.151  -0.034  0.00  0.00    -0.365 OA
ATOM      8  H   UNL     1       0.521  -0.096   0.826  0.00  0.00    +0.213 HD
ENDBRANCH   1   7
BRANCH   3   9
ATOM      9  O   UNL     1       1.370   1.148  -2.554  0.00  0.00    -0.386 OA
ATOM     10  H   UNL     1       0.765   0.760  -1.887  0.00  0.00    +0.210 HD
ENDBRANCH   3   9
BRANCH   4  11
ATOM     11  O   UNL     1       4.415  -0.861  -2.746  0.00  0.00    -0.386 OA
ATOM     12  H   UNL     1       4.590  -1.745  -3.114  0.00  0.00    +0.210 HD
ENDBRANCH   4  11
BRANCH   5  13
ATOM     13  C   UNL     1       0.953  -2.045  -1.874  0.00  0.00    +0.337 C 
ATOM     14  O   UNL     1       0.351  -1.925  -2.928  0.00  0.00    -0.248 OA
BRANCH  13  15
ATOM     15  O   UNL     1       0.390  -2.592  -0.763  0.00  0.00    -0.479 OA
ATOM     16  H   UNL     1       1.041  -2.572  -0.027  0.00  0.00    +0.295 HD
ENDBRANCH  13  15
ENDBRANCH   5  13
BRANCH   2  17
ATOM     17  O   UNL     1       4.468   0.975  -0.601  0.00  0.00    -0.205 OA
BRANCH  17  18
ATOM     18  S   UNL     1       5.121   1.382   0.821  0.00  0.00    +0.208 S 
ATOM     19  O   UNL     1       4.857   0.328   1.773  0.00  0.00    -0.118 OA
ATOM     20  O   UNL     1       4.774   2.757   1.091  0.00  0.00    -0.118 OA
BRANCH  18  21
ATOM     21  O   UNL     1       6.698   1.377   0.502  0.00  0.00    -0.231 OA
ATOM     22  H   UNL     1       6.930   2.232   0.089  0.00  0.00    +0.247 HD
ENDBRANCH  18  21
ENDBRANCH  17  18
ENDBRANCH   2  17
TORSDOF 8
