REMARK  Name = 
REMARK  3 active torsions:
REMARK  status: ('A' for Active; 'I' for Inactive)
REMARK    1  A    between atoms: O_1  and  C_2
REMARK    2  A    between atoms: C_2  and  C_4
REMARK    3  A    between atoms: C_8  and  O_9
REMARK                            x       y       z     vdW  Elec       q    Type
REMARK                         _______ _______ _______ _____ _____    ______ ____
ROOT
ATOM      1  C   UNL     1       3.239  -1.297  -0.153  0.00  0.00    +0.253 A 
ATOM      2  C   UNL     1       2.652  -2.555  -0.035  0.00  0.00    +0.288 A 
ATOM      3  N   UNL     1       3.533  -3.530  -0.198  0.00  0.00    -0.010 NA
ATOM      4  O   UNL     1       4.734  -2.854  -0.428  0.00  0.00    -0.238 OA
ATOM      5  N   UNL     1       4.551  -1.467  -0.399  0.00  0.00    -0.038 NA
ENDROOT
BRANCH   1   6
ATOM      6  C   UNL     1       2.653   0.023  -0.048  0.00  0.00    +0.364 C 
ATOM      7  O   UNL     1       1.471   0.247   0.166  0.00  0.00    -0.243 OA
BRANCH   6   8
ATOM      8  O   UNL     1       3.554   1.034  -0.213  0.00  0.00    -0.476 OA
ATOM      9  H   UNL     1       4.448   0.662  -0.375  0.00  0.00    +0.295 HD
ENDBRANCH   6   8
ENDBRANCH   1   6
BRANCH   2  10
ATOM     10  O   UNL     1       1.392  -2.922   0.206  0.00  0.00    -0.489 OA
ATOM     11  H   UNL     1       1.378  -3.895   0.215  0.00  0.00    +0.294 HD
ENDBRANCH   2  10
TORSDOF 3
