REMARK  Name = 
REMARK  6 active torsions:
REMARK  status: ('A' for Active; 'I' for Inactive)
REMARK    1  A    between atoms: O_1  and  C_2
REMARK    2  A    between atoms: C_2  and  C_3
REMARK    3  A    between atoms: C_5  and  O_7
REMARK    4  A    between atoms: C_8  and  O_10
REMARK    5  A    between atoms: C_11  and  O_13
REMARK    6  A    between atoms: C_16  and  C_19
REMARK                            x       y       z     vdW  Elec       q    Type
REMARK                         _______ _______ _______ _____ _____    ______ ____
ROOT
ATOM      1  C   UNL     1       2.896   0.675  -1.019  0.00  0.00    +0.145 C 
ATOM      2  N   UNL     1       1.951   0.965  -2.073  0.00  0.00    -0.324 N 
ATOM      3  C   UNL     1       1.445   2.189  -2.389  0.00  0.00    +0.142 A 
ATOM      4  N   UNL     1       0.505   2.070  -3.312  0.00  0.00    -0.230 NA
ATOM      5  C   UNL     1       0.462   0.737  -3.657  0.00  0.00    +0.089 A 
ATOM      6  C   UNL     1       1.862   3.442  -1.703  0.00  0.00    +0.211 C 
ATOM      7  C   UNL     1       3.085   3.321  -0.780  0.00  0.00    +0.181 C 
ATOM      8  C   UNL     1       1.390   0.040  -2.911  0.00  0.00    +0.116 A 
ATOM      9  C   UNL     1       3.646   1.915  -0.468  0.00  0.00    +0.171 C 
ENDROOT
BRANCH   5  10
ATOM     10  C   UNL     1      -0.456   0.176  -4.639  0.00  0.00    +0.002 A 
ATOM     11  C   UNL     1      -0.531  -1.205  -4.879  0.00  0.00    +0.010 A 
ATOM     12  C   UNL     1      -1.439  -1.725  -5.804  0.00  0.00    +0.001 A 
ATOM     13  C   UNL     1      -2.294  -0.876  -6.503  0.00  0.00    +0.000 A 
ATOM     14  C   UNL     1      -2.226   0.500  -6.286  0.00  0.00    +0.001 A 
ATOM     15  C   UNL     1      -1.318   1.020  -5.359  0.00  0.00    +0.010 A 
ENDBRANCH   5  10
BRANCH   6  16
ATOM     16  O   UNL     1       0.751   3.885  -0.904  0.00  0.00    -0.381 OA
ATOM     17  H   UNL     1       0.052   3.211  -0.960  0.00  0.00    +0.210 HD
ENDBRANCH   6  16
BRANCH   7  18
ATOM     18  O   UNL     1       4.177   4.099  -1.327  0.00  0.00    -0.386 OA
ATOM     19  H   UNL     1       4.791   4.258  -0.586  0.00  0.00    +0.210 HD
ENDBRANCH   7  18
BRANCH   9  20
ATOM     20  O   UNL     1       3.855   1.863   0.958  0.00  0.00    -0.387 OA
ATOM     21  H   UNL     1       4.115   0.944   1.185  0.00  0.00    +0.210 HD
ENDBRANCH   9  20
BRANCH   1  22
ATOM     22  C   UNL     1       2.269  -0.221   0.063  0.00  0.00    +0.183 C 
BRANCH  22  23
ATOM     23  O   UNL     1       3.291  -0.727   0.927  0.00  0.00    -0.393 OA
ATOM     24  H   UNL     1       2.851  -1.323   1.562  0.00  0.00    +0.209 HD
ENDBRANCH  22  23
ENDBRANCH   1  22
TORSDOF 6
