REMARK  Name = 
REMARK  17 active torsions:
REMARK  status: ('A' for Active; 'I' for Inactive)
REMARK    1  A    between atoms: O_1  and  C_2
REMARK    2  A    between atoms: C_2  and  C_3
REMARK    3  A    between atoms: C_3  and  O_5
REMARK    4  A    between atoms: C_3  and  C_6
REMARK    5  A    between atoms: C_6  and  O_8
REMARK    6  A    between atoms: C_6  and  C_9
REMARK    7  A    between atoms: C_9  and  O_11
REMARK    8  A    between atoms: C_9  and  C_12
REMARK    9  A    between atoms: C_12  and  N_13
REMARK   10  A    between atoms: N_16  and  C_17
REMARK   11  A    between atoms: C_17  and  C_18
REMARK   12  A    between atoms: C_18  and  C_19
REMARK   13  A    between atoms: C_19  and  C_20
REMARK   14  A    between atoms: C_20  and  O_21
REMARK   15  A    between atoms: O_21  and  P_22
REMARK   16  A    between atoms: P_22  and  O_23
REMARK   17  A    between atoms: P_22  and  O_24
REMARK                            x       y       z     vdW  Elec       q    Type
REMARK                         _______ _______ _______ _____ _____    ______ ____
ROOT
ATOM      1  N   UNL     1       7.012   3.130   2.928  0.00  0.00    -0.275 N 
ATOM      2  C   UNL     1       6.792   4.480   2.938  0.00  0.00    +0.149 A 
ATOM      3  N   UNL     1       6.157   5.214   2.003  0.00  0.00    -0.292 N 
ATOM      4  H   UNL     1       5.890   4.776   1.125  0.00  0.00    +0.172 HD
ATOM      5  C   UNL     1       5.983   6.574   2.136  0.00  0.00    +0.328 A 
ATOM      6  N   UNL     1       6.439   7.114   3.314  0.00  0.00    -0.273 N 
ATOM      7  H   UNL     1       6.299   8.103   3.434  0.00  0.00    +0.173 HD
ATOM      8  C   UNL     1       7.095   6.432   4.321  0.00  0.00    +0.280 A 
ATOM      9  O   UNL     1       7.471   6.986   5.355  0.00  0.00    -0.265 OA
ATOM     10  O   UNL     1       5.458   7.254   1.260  0.00  0.00    -0.247 OA
ATOM     11  C   UNL     1       7.293   5.002   4.060  0.00  0.00    +0.152 A 
ATOM     12  N   UNL     1       7.891   4.010   4.800  0.00  0.00    -0.286 N 
ATOM     13  C   UNL     1       7.701   2.781   4.115  0.00  0.00    +0.331 A 
ATOM     14  O   UNL     1       8.020   1.663   4.486  0.00  0.00    -0.246 OA
ENDROOT
BRANCH  12  15
ATOM     15  C   UNL     1       8.349   4.077   6.167  0.00  0.00    +0.127 C 
BRANCH  15  16
ATOM     16  C   UNL     1       7.183   3.841   7.119  0.00  0.00    +0.024 C 
BRANCH  16  17
ATOM     17  C   UNL     1       7.598   3.704   8.585  0.00  0.00    +0.030 C 
BRANCH  17  18
ATOM     18  C   UNL     1       6.360   3.483   9.450  0.00  0.00    +0.172 C 
BRANCH  18  19
ATOM     19  O   UNL     1       5.703   2.320   8.970  0.00  0.00    -0.287 OA
BRANCH  19  20
ATOM     20  P   UNL     1       4.178   1.970   9.710  0.00  0.00    +0.472 P 
ATOM     21  O   UNL     1       2.814   1.657  10.372  0.00  0.00    -0.228 OA
BRANCH  20  22
ATOM     22  O   UNL     1       3.529   2.833   8.481  0.00  0.00    -0.303 OA
ATOM     23  H   UNL     1       2.936   3.517   8.839  0.00  0.00    +0.222 HD
ENDBRANCH  20  22
BRANCH  20  24
ATOM     24  O   UNL     1       4.304   0.540   8.933  0.00  0.00    -0.303 OA
ATOM     25  H   UNL     1       5.078   0.589   8.343  0.00  0.00    +0.222 HD
ENDBRANCH  20  24
ENDBRANCH  19  20
ENDBRANCH  18  19
ENDBRANCH  17  18
ENDBRANCH  16  17
ENDBRANCH  15  16
ENDBRANCH  12  15
BRANCH   1  26
ATOM     26  C   UNL     1       6.412   2.158   2.042  0.00  0.00    +0.162 C 
BRANCH  26  27
ATOM     27  C   UNL     1       7.038   2.140   0.645  0.00  0.00    +0.165 C 
BRANCH  27  28
ATOM     28  O   UNL     1       6.774   3.415   0.004  0.00  0.00    -0.387 OA
ATOM     29  H   UNL     1       7.228   3.390  -0.857  0.00  0.00    +0.210 HD
ENDBRANCH  27  28
BRANCH  27  30
ATOM     30  C   UNL     1       6.464   1.050  -0.287  0.00  0.00    +0.175 C 
BRANCH  30  31
ATOM     31  O   UNL     1       7.251   1.060  -1.493  0.00  0.00    -0.387 OA
ATOM     32  H   UNL     1       6.862   1.722  -2.091  0.00  0.00    +0.210 HD
ENDBRANCH  30  31
BRANCH  30  33
ATOM     33  C   UNL     1       6.399  -0.388   0.255  0.00  0.00    +0.171 C 
BRANCH  33  34
ATOM     34  O   UNL     1       5.503  -0.474   1.369  0.00  0.00    -0.387 OA
ATOM     35  H   UNL     1       5.699  -1.342   1.783  0.00  0.00    +0.210 HD
ENDBRANCH  33  34
BRANCH  33  36
ATOM     36  C   UNL     1       7.756  -0.981   0.644  0.00  0.00    +0.189 C 
BRANCH  36  37
ATOM     37  O   UNL     1       7.523  -2.305   1.139  0.00  0.00    -0.392 OA
ATOM     38  H   UNL     1       8.392  -2.676   1.375  0.00  0.00    +0.210 HD
ENDBRANCH  36  37
ENDBRANCH  33  36
ENDBRANCH  30  33
ENDBRANCH  27  30
ENDBRANCH  26  27
ENDBRANCH   1  26
TORSDOF 17
