REMARK  Name = 
REMARK  3 active torsions:
REMARK  status: ('A' for Active; 'I' for Inactive)
REMARK    1  A    between atoms: C_1  and  C_2
REMARK    2  A    between atoms: C_2  and  C_3
REMARK    3  A    between atoms: C_2  and  O_4
REMARK                            x       y       z     vdW  Elec       q    Type
REMARK                         _______ _______ _______ _____ _____    ______ ____
ROOT
ATOM      1  C   UNL     1       0.944  -0.073  -0.047  0.00  0.00    +0.037 C 
ATOM      2  C   UNL     1       2.465  -0.055  -0.073  0.00  0.00    +0.108 C 
ATOM      3  C   UNL     1       3.002   0.702  -1.278  0.00  0.00    +0.037 C 
ENDROOT
BRANCH   2   4
ATOM      4  O   UNL     1       2.948   0.557   1.119  0.00  0.00    -0.392 OA
ATOM      5  H   UNL     1       2.617   1.471   1.141  0.00  0.00    +0.210 HD
ENDBRANCH   2   4
TORSDOF 1
