REMARK  Name = 
REMARK  43 active torsions:
REMARK  status: ('A' for Active; 'I' for Inactive)
REMARK    1  A    between atoms: N_1  and  C_2
REMARK    2  A    between atoms: C_2  and  C_3
REMARK    3  A    between atoms: C_3  and  C_4
REMARK    4  A    between atoms: C_4  and  C_5
REMARK    5  A    between atoms: C_5  and  N_6
REMARK    6  A    between atoms: N_6  and  C_7
REMARK    7  A    between atoms: C_7  and  C_8
REMARK    8  A    between atoms: C_8  and  C_9
REMARK    9  A    between atoms: C_9  and  N_10
REMARK   10  A    between atoms: C_11  and  C_13
REMARK   11  A    between atoms: C_13  and  N_14
REMARK   12  A    between atoms: C_15  and  C_17
REMARK   13  A    between atoms: C_17  and  C_19
REMARK   14  A    between atoms: C_17  and  N_52
REMARK   15  A    between atoms: C_19  and  S_20
REMARK   16  A    between atoms: S_20  and  S_21
REMARK   17  A    between atoms: S_21  and  C_22
REMARK   18  A    between atoms: C_22  and  C_23
REMARK   19  A    between atoms: C_23  and  N_25
REMARK   20  A    between atoms: C_23  and  C_36
REMARK   21  A    between atoms: C_26  and  C_28
REMARK   22  A    between atoms: C_28  and  C_29
REMARK   23  A    between atoms: C_29  and  C_30
REMARK   24  A    between atoms: C_30  and  N_32
REMARK   25  A    between atoms: C_30  and  C_33
REMARK   26  A    between atoms: C_33  and  O_34
REMARK   27  A    between atoms: N_38  and  C_39
REMARK   28  A    between atoms: C_39  and  C_40
REMARK   29  A    between atoms: N_42  and  C_43
REMARK   30  A    between atoms: C_43  and  C_44
REMARK   31  A    between atoms: C_44  and  C_45
REMARK   32  A    between atoms: C_45  and  N_46
REMARK   33  A    between atoms: N_46  and  C_47
REMARK   34  A    between atoms: C_47  and  C_48
REMARK   35  A    between atoms: C_48  and  C_49
REMARK   36  A    between atoms: C_49  and  C_50
REMARK   37  A    between atoms: C_50  and  N_51
REMARK   38  A    between atoms: C_53  and  C_55
REMARK   39  A    between atoms: C_55  and  C_56
REMARK   40  A    between atoms: C_56  and  C_57
REMARK   41  A    between atoms: C_57  and  N_59
REMARK   42  A    between atoms: C_57  and  C_60
REMARK   43  A    between atoms: C_60  and  O_61
REMARK                            x       y       z     vdW  Elec       q    Type
REMARK                         _______ _______ _______ _____ _____    ______ ____
ROOT
ATOM      1  S   UNK     1      21.999  -6.507   6.677  0.00  0.00    -0.091 S 
ENDROOT
BRANCH   1   2
ATOM      2  S   UNK     1      23.100  -5.798   5.103  0.00  0.00    -0.091 S 
BRANCH   2   3
ATOM      3  C   UNK     1      24.478  -4.869   5.884  0.00  0.00    +0.112 C 
BRANCH   3   4
ATOM      4  C   UNK     1      25.348  -5.598   6.912  0.00  0.00    +0.169 C 
BRANCH   4   5
ATOM      5  C   UNK     1      26.467  -4.623   7.330  0.00  0.00    +0.235 C 
ATOM      6  N   UNK     1      26.141  -3.679   8.288  0.00  0.00    -0.305 N 
ATOM      7  H   UNK     1      25.243  -3.719   8.770  0.00  0.00    +0.149 HD
ATOM      8  O   UNK     1      27.550  -4.621   6.780  0.00  0.00    -0.274 OA
BRANCH   6   9
ATOM      9  C   UNK     1      27.069  -2.598   8.653  0.00  0.00    +0.200 C 
BRANCH   9  10
ATOM     10  C   UNK     1      26.545  -1.191   8.336  0.00  0.00    +0.230 C 
ATOM     11  N   UNK     1      27.379  -0.165   8.744  0.00  0.00    -0.314 N 
ATOM     12  H   UNK     1      28.208  -0.410   9.271  0.00  0.00    +0.149 HD
ATOM     13  O   UNK     1      25.441  -1.006   7.785  0.00  0.00    -0.274 OA
BRANCH  11  14
ATOM     14  C   UNK     1      27.147   1.272   8.531  0.00  0.00    +0.105 C 
BRANCH  14  15
ATOM     15  C   UNK     1      26.676   2.098   9.742  0.00  0.00    +0.034 C 
BRANCH  15  16
ATOM     16  C   UNK     1      27.381   1.797  11.080  0.00  0.00    +0.082 C 
BRANCH  16  17
ATOM     17  N   UNK     1      28.606   2.517  11.268  0.00  0.00    -0.316 NA
ATOM     18  H   UNK     1      28.338   3.487  11.130  0.00  0.00    +0.122 HD
BRANCH  17  19
ATOM     19  C   UNK     1      29.040   2.355  12.675  0.00  0.00    +0.081 C 
BRANCH  19  20
ATOM     20  C   UNK     1      30.155   3.361  12.854  0.00  0.00    +0.016 C 
BRANCH  20  21
ATOM     21  C   UNK     1      29.609   4.792  12.766  0.00  0.00    +0.016 C 
BRANCH  21  22
ATOM     22  C   UNK     1      30.739   5.771  12.545  0.00  0.00    +0.077 C 
BRANCH  22  23
ATOM     23  N   UNK     1      30.173   7.098  12.353  0.00  0.00    -0.330 NA
ATOM     24  H   UNK     1      30.927   7.752  12.151  0.00  0.00    +0.118 HD
ATOM     25  H   UNK     1      29.574   7.094  11.528  0.00  0.00    +0.118 HD
ENDBRANCH  22  23
ENDBRANCH  21  22
ENDBRANCH  20  21
ENDBRANCH  19  20
ENDBRANCH  17  19
ENDBRANCH  16  17
ENDBRANCH  15  16
ENDBRANCH  14  15
ENDBRANCH  11  14
ENDBRANCH   9  10
ENDBRANCH   6   9
ENDBRANCH   4   5
BRANCH   4  26
ATOM     26  N   UNK     1      26.007  -6.789   6.347  0.00  0.00    -0.303 N 
ATOM     27  H   UNK     1      26.809  -6.607   5.760  0.00  0.00    +0.149 HD
ATOM     28  C   UNK     1      25.876  -8.051   6.910  0.00  0.00    +0.214 C 
ATOM     29  O   UNK     1      25.138  -8.265   7.865  0.00  0.00    -0.276 OA
BRANCH  28  30
ATOM     30  C   UNK     1      26.672  -9.122   6.187  0.00  0.00    +0.098 C 
BRANCH  30  31
ATOM     31  C   UNK     1      25.980 -10.491   6.288  0.00  0.00    +0.039 C 
BRANCH  31  32
ATOM     32  C   UNK     1      24.588 -10.527   5.631  0.00  0.00    +0.161 C 
BRANCH  32  33
ATOM     33  N   UNK     1      24.691 -10.319   4.156  0.00  0.00    -0.318 NA
ATOM     34  H   UNK     1      23.733 -10.293   3.787  0.00  0.00    +0.119 HD
ATOM     35  H   UNK     1      25.021  -9.361   4.000  0.00  0.00    +0.119 HD
ENDBRANCH  32  33
BRANCH  32  36
ATOM     36  C   UNK     1      23.944 -11.903   5.874  0.00  0.00    +0.322 C 
ATOM     37  O   UNK     1      23.323 -12.230   6.875  0.00  0.00    -0.249 OA
BRANCH  36  38
ATOM     38  O   UNK     1      24.164 -12.741   4.826  0.00  0.00    -0.480 OA
ATOM     39  H   UNK     1      24.665 -12.220   4.154  0.00  0.00    +0.295 HD
ENDBRANCH  36  38
ENDBRANCH  32  36
ENDBRANCH  31  32
ENDBRANCH  30  31
ENDBRANCH  28  30
ENDBRANCH   4  26
ENDBRANCH   3   4
ENDBRANCH   2   3
ENDBRANCH   1   2
BRANCH   1  40
ATOM     40  C   UNK     1      21.359  -4.977   7.455  0.00  0.00    +0.112 C 
BRANCH  40  41
ATOM     41  C   UNK     1      20.597  -5.189   8.773  0.00  0.00    +0.169 C 
BRANCH  41  42
ATOM     42  N   UNK     1      19.328  -5.891   8.647  0.00  0.00    -0.303 N 
ATOM     43  H   UNK     1      18.545  -5.381   8.258  0.00  0.00    +0.149 HD
ATOM     44  C   UNK     1      19.252  -7.261   8.719  0.00  0.00    +0.214 C 
ATOM     45  O   UNK     1      20.193  -7.982   9.029  0.00  0.00    -0.276 OA
BRANCH  44  46
ATOM     46  C   UNK     1      17.889  -7.819   8.408  0.00  0.00    +0.098 C 
BRANCH  46  47
ATOM     47  C   UNK     1      17.280  -8.484   9.645  0.00  0.00    +0.039 C 
BRANCH  47  48
ATOM     48  C   UNK     1      15.912  -9.118   9.374  0.00  0.00    +0.161 C 
BRANCH  48  49
ATOM     49  N   UNK     1      15.988 -10.110   8.264  0.00  0.00    -0.318 NA
ATOM     50  H   UNK     1      16.714 -10.794   8.510  0.00  0.00    +0.119 HD
ATOM     51  H   UNK     1      15.122 -10.659   8.269  0.00  0.00    +0.119 HD
ENDBRANCH  48  49
BRANCH  48  52
ATOM     52  C   UNK     1      14.904  -8.022   8.986  0.00  0.00    +0.322 C 
ATOM     53  O   UNK     1      14.373  -7.245   9.757  0.00  0.00    -0.249 OA
BRANCH  52  54
ATOM     54  O   UNK     1      14.735  -7.976   7.636  0.00  0.00    -0.480 OA
ATOM     55  H   UNK     1      15.284  -8.712   7.265  0.00  0.00    +0.295 HD
ENDBRANCH  52  54
ENDBRANCH  48  52
ENDBRANCH  47  48
ENDBRANCH  46  47
ENDBRANCH  44  46
ENDBRANCH  41  42
BRANCH  41  58
ATOM     56  N   UNK     1      22.690  -6.182   9.683  0.00  0.00    -0.305 N 
ATOM     57  H   UNK     1      22.774  -6.596   8.759  0.00  0.00    +0.149 HD
ATOM     58  C   UNK     1      21.441  -5.677   9.975  0.00  0.00    +0.235 C 
ATOM     59  O   UNK     1      21.031  -5.572  11.132  0.00  0.00    -0.274 OA
BRANCH  56  60
ATOM     60  C   UNK     1      23.501  -6.887  10.673  0.00  0.00    +0.200 C 
BRANCH  60  63
ATOM     61  N   UNK     1      23.592  -4.865  11.994  0.00  0.00    -0.314 N 
ATOM     62  H   UNK     1      22.656  -4.716  11.629  0.00  0.00    +0.149 HD
ATOM     63  C   UNK     1      24.314  -5.937  11.531  0.00  0.00    +0.230 C 
ATOM     64  O   UNK     1      25.479  -6.150  11.857  0.00  0.00    -0.274 OA
BRANCH  61  65
ATOM     65  C   UNK     1      24.192  -3.850  12.786  0.00  0.00    +0.105 C 
BRANCH  65  66
ATOM     66  C   UNK     1      25.075  -3.021  11.899  0.00  0.00    +0.034 C 
BRANCH  66  67
ATOM     67  C   UNK     1      25.655  -1.915  12.750  0.00  0.00    +0.082 C 
BRANCH  67  68
ATOM     68  N   UNK     1      26.066  -0.786  11.971  0.00  0.00    -0.316 NA
ATOM     69  H   UNK     1      26.996  -0.930  11.587  0.00  0.00    +0.122 HD
BRANCH  68  70
ATOM     70  C   UNK     1      25.047  -0.271  11.063  0.00  0.00    +0.081 C 
BRANCH  70  71
ATOM     71  C   UNK     1      23.989   0.696  11.651  0.00  0.00    +0.016 C 
BRANCH  71  72
ATOM     72  C   UNK     1      24.532   1.933  12.374  0.00  0.00    +0.016 C 
BRANCH  72  73
ATOM     73  C   UNK     1      23.615   3.040  12.868  0.00  0.00    +0.077 C 
BRANCH  73  74
ATOM     74  N   UNK     1      24.486   4.075  13.450  0.00  0.00    -0.330 NA
ATOM     75  H   UNK     1      25.084   4.483  12.730  0.00  0.00    +0.118 HD
ATOM     76  H   UNK     1      23.936   4.841  13.831  0.00  0.00    +0.118 HD
ENDBRANCH  73  74
ENDBRANCH  72  73
ENDBRANCH  71  72
ENDBRANCH  70  71
ENDBRANCH  68  70
ENDBRANCH  67  68
ENDBRANCH  66  67
ENDBRANCH  65  66
ENDBRANCH  61  65
ENDBRANCH  60  63
ENDBRANCH  56  60
ENDBRANCH  41  58
ENDBRANCH  40  41
ENDBRANCH   1  40
TORSDOF 43
