REMARK  Name = 
REMARK  5 active torsions:
REMARK  status: ('A' for Active; 'I' for Inactive)
REMARK    1  A    between atoms: O_1  and  C_2
REMARK    2  A    between atoms: C_5  and  C_6
REMARK    3  A    between atoms: C_7  and  C_8
REMARK    4  A    between atoms: C_10  and  O_11
REMARK    5  A    between atoms: C_13  and  O_14
REMARK                            x       y       z     vdW  Elec       q    Type
REMARK                         _______ _______ _______ _____ _____    ______ ____
ROOT
ATOM      1  C   UNL     1       6.705   0.048  -0.562  0.00  0.00    +0.008 C 
ATOM      2  C   UNL     1       7.501  -1.028  -0.681  0.00  0.00    +0.009 C 
ENDROOT
BRANCH   1   6
ATOM      3  C   UNL     1       2.496   0.087   0.164  0.00  0.00    +0.117 A 
ATOM      4  C   UNL     1       3.050  -0.981  -0.528  0.00  0.00    +0.046 A 
ATOM      5  C   UNL     1       4.430  -1.023  -0.751  0.00  0.00    +0.011 A 
ATOM      6  C   UNL     1       5.262  -0.002  -0.271  0.00  0.00    -0.025 A 
ATOM      7  C   UNL     1       4.680   1.064   0.433  0.00  0.00    +0.011 A 
ATOM      8  C   UNL     1       3.299   1.109   0.655  0.00  0.00    +0.046 A 
BRANCH   3   9
ATOM      9  O   UNL     1       1.143   0.105   0.330  0.00  0.00    -0.507 OA
ATOM     10  H   UNL     1       0.892   0.944   0.749  0.00  0.00    +0.292 HD
ENDBRANCH   3   9
ENDBRANCH   1   6
BRANCH   2  11
ATOM     11  C   UNL     1       8.933  -0.970  -1.028  0.00  0.00    -0.018 A 
ATOM     12  C   UNL     1       9.495  -2.047  -1.728  0.00  0.00    +0.053 A 
ATOM     13  C   UNL     1      10.847  -2.041  -2.067  0.00  0.00    +0.121 A 
ATOM     14  C   UNL     1      11.667  -0.978  -1.713  0.00  0.00    +0.090 A 
ATOM     15  C   UNL     1      11.119   0.084  -1.006  0.00  0.00    +0.121 A 
ATOM     16  C   UNL     1       9.767   0.096  -0.655  0.00  0.00    +0.053 A 
BRANCH  13  17
ATOM     17  O   UNL     1      11.333  -3.113  -2.757  0.00  0.00    -0.507 OA
ATOM     18  H   UNL     1      12.280  -2.968  -2.924  0.00  0.00    +0.292 HD
ENDBRANCH  13  17
BRANCH  15  19
ATOM     19  O   UNL     1      11.950   1.112  -0.665  0.00  0.00    -0.507 OA
ATOM     20  H   UNL     1      11.436   1.781  -0.184  0.00  0.00    +0.292 HD
ENDBRANCH  15  19
ENDBRANCH   2  11
TORSDOF 5
