REMARK  Name = 
REMARK  12 active torsions:
REMARK  status: ('A' for Active; 'I' for Inactive)
REMARK    1  A    between atoms: O_1  and  C_2
REMARK    2  A    between atoms: C_4  and  O_6
REMARK    3  A    between atoms: C_7  and  N_28
REMARK    4  A    between atoms: C_10  and  C_12
REMARK    5  A    between atoms: C_12  and  O_13
REMARK    6  A    between atoms: O_13  and  P_14
REMARK    7  A    between atoms: P_14  and  O_15
REMARK    8  A    between atoms: P_14  and  O_17
REMARK    9  A    between atoms: O_17  and  P_18
REMARK   10  A    between atoms: P_18  and  O_19
REMARK   11  A    between atoms: P_18  and  O_21
REMARK   12  A    between atoms: O_21  and  C_22
REMARK                            x       y       z     vdW  Elec       q    Type
REMARK                         _______ _______ _______ _____ _____    ______ ____
ROOT
ATOM      1  C   UNL     1       0.297  -3.601  -1.895  0.00  0.00    +0.178 C 
ATOM      2  C   UNL     1      -1.001  -4.309  -1.492  0.00  0.00    +0.178 C 
ATOM      3  O   UNL     1      -1.392  -5.155  -2.598  0.00  0.00    -0.346 OA
ATOM      4  C   UNL     1      -0.476  -4.951  -3.703  0.00  0.00    +0.255 C 
ATOM      5  C   UNL     1       0.822  -4.396  -3.081  0.00  0.00    +0.195 C 
ENDROOT
BRANCH   4   6
ATOM      6  N   UNL     1      -1.101  -4.081  -4.718  0.00  0.00    -0.271 N 
ATOM      7  C   UNL     1      -0.384  -3.855  -5.893  0.00  0.00    +0.331 A 
ATOM      8  O   UNL     1       0.742  -4.285  -6.106  0.00  0.00    -0.246 OA
ATOM      9  N   UNL     1      -1.019  -3.097  -6.841  0.00  0.00    -0.275 N 
ATOM     10  H   UNL     1      -0.516  -2.936  -7.700  0.00  0.00    +0.173 HD
ATOM     11  C   UNL     1      -2.320  -2.679  -6.810  0.00  0.00    +0.254 A 
ATOM     12  O   UNL     1      -2.873  -2.111  -7.737  0.00  0.00    -0.268 OA
ATOM     13  C   UNL     1      -3.041  -2.975  -5.558  0.00  0.00    +0.088 A 
ATOM     14  C   UNL     1      -2.413  -3.654  -4.596  0.00  0.00    +0.098 A 
ENDBRANCH   4   6
BRANCH   1  15
ATOM     15  O   UNL     1       0.003  -2.255  -2.307  0.00  0.00    -0.386 OA
ATOM     16  H   UNL     1      -0.661  -2.285  -3.020  0.00  0.00    +0.210 HD
ENDBRANCH   1  15
BRANCH   5  17
ATOM     17  O   UNL     1       1.665  -5.468  -2.650  0.00  0.00    -0.385 OA
ATOM     18  H   UNL     1       2.381  -5.094  -2.109  0.00  0.00    +0.210 HD
ENDBRANCH   5  17
BRANCH   2  19
ATOM     19  C   UNL     1      -0.933  -5.130  -0.197  0.00  0.00    +0.206 C 
BRANCH  19  20
ATOM     20  O   UNL     1       0.042  -6.136  -0.304  0.00  0.00    -0.284 OA
BRANCH  20  21
ATOM     21  P   UNL     1       0.330  -7.166   0.942  0.00  0.00    +0.484 P 
ATOM     22  O   UNL     1       1.346  -8.116   0.295  0.00  0.00    -0.227 OA
BRANCH  21  23
ATOM     23  O   UNL     1       1.700  -6.202   1.373  0.00  0.00    -0.302 OA
ATOM     24  H   UNL     1       2.387  -6.585   0.786  0.00  0.00    +0.222 HD
ENDBRANCH  21  23
BRANCH  21  25
ATOM     25  O   UNL     1      -1.040  -8.130   0.510  0.00  0.00    -0.176 OA
BRANCH  25  26
ATOM     26  P   UNL     1      -0.653  -9.456   1.523  0.00  0.00    +0.539 P 
ATOM     27  O   UNL     1       0.113  -9.048   2.751  0.00  0.00    -0.215 OA
BRANCH  26  28
ATOM     28  O   UNL     1       0.148 -10.450   0.544  0.00  0.00    -0.293 OA
ATOM     29  H   UNL     1      -0.279 -10.573  -0.320  0.00  0.00    +0.223 HD
ENDBRANCH  26  28
BRANCH  26  30
ATOM     30  O   UNL     1      -1.939 -10.371   1.856  0.00  0.00    -0.404 OA
BRANCH  30  31
ATOM     31  C   UNL     1      -2.213 -10.790   3.164  0.00  0.00    +0.132 A 
ATOM     32  C   UNL     1      -1.467 -11.654   3.961  0.00  0.00    +0.046 A 
ATOM     33  C   UNL     1      -1.942 -11.996   5.248  0.00  0.00    +0.004 A 
ATOM     34  C   UNL     1      -3.146 -11.466   5.715  0.00  0.00    +0.000 A 
ATOM     35  C   UNL     1      -3.880 -10.609   4.894  0.00  0.00    +0.004 A 
ATOM     36  C   UNL     1      -3.411 -10.277   3.633  0.00  0.00    +0.046 A 
ENDBRANCH  30  31
ENDBRANCH  26  30
ENDBRANCH  25  26
ENDBRANCH  21  25
ENDBRANCH  20  21
ENDBRANCH  19  20
ENDBRANCH   2  19
TORSDOF 12
