REMARK  Name = 
REMARK  3 active torsions:
REMARK  status: ('A' for Active; 'I' for Inactive)
REMARK    1  A    between atoms: C_1  and  C_2
REMARK    2  A    between atoms: C_5  and  C_6
REMARK    3  A    between atoms: C_6  and  O_7
REMARK                            x       y       z     vdW  Elec       q    Type
REMARK                         _______ _______ _______ _____ _____    ______ ____
ROOT
ATOM      1  C   UNL     1       1.035  -0.044   0.043  0.00  0.00    +0.088 C 
ATOM      2  C   UNL     1       2.530   0.006   0.061  0.00  0.00    +0.128 A 
ATOM      3  N   UNL     1       3.189  -1.164   0.115  0.00  0.00    -0.218 NA
ATOM      4  C   UNL     1       4.529  -1.114   0.118  0.00  0.00    +0.125 A 
ATOM      5  N   UNL     1       5.163  -2.359   0.186  0.00  0.00    -0.343 N 
ATOM      6  H   UNL     1       4.422  -3.058   0.155  0.00  0.00    +0.144 HD
ATOM      7  H   UNL     1       5.797  -2.473  -0.604  0.00  0.00    +0.144 HD
ATOM      8  C   UNL     1       5.246   0.068   0.091  0.00  0.00    +0.035 A 
ATOM      9  C   UNL     1       4.465   1.208   0.033  0.00  0.00    +0.122 A 
ATOM     10  N   UNL     1       3.120   1.210   0.012  0.00  0.00    -0.240 NA
ENDROOT
BRANCH   8  11
ATOM     11  C   UNL     1       6.738   0.213   0.122  0.00  0.00    +0.196 C 
BRANCH  11  12
ATOM     12  O   UNL     1       7.466  -1.003   0.232  0.00  0.00    -0.390 OA
ATOM     13  H   UNL     1       6.945  -1.589   0.817  0.00  0.00    +0.210 HD
ENDBRANCH  11  12
ENDBRANCH   8  11
TORSDOF 2
