REMARK  Name = 
REMARK  12 active torsions:
REMARK  status: ('A' for Active; 'I' for Inactive)
REMARK    1  A    between atoms: C_1  and  C_2
REMARK    2  A    between atoms: C_2  and  C_3
REMARK    3  A    between atoms: C_3  and  C_4
REMARK    4  A    between atoms: C_4  and  O_5
REMARK    5  A    between atoms: O_5  and  C_6
REMARK    6  A    between atoms: C_9  and  S_12
REMARK    7  A    between atoms: S_12  and  N_15
REMARK    8  A    between atoms: C_17  and  N_26
REMARK    9  A    between atoms: C_20  and  C_22
REMARK   10  A    between atoms: N_24  and  O_25
REMARK   11  A    between atoms: N_26  and  S_27
REMARK   12  A    between atoms: S_27  and  C_28
REMARK                            x       y       z     vdW  Elec       q    Type
REMARK                         _______ _______ _______ _____ _____    ______ ____
ROOT
ATOM      1  N   UNL     1      11.358   1.075  -3.526  0.00  0.00    -0.163 NA
ATOM      2  C   UNL     1      10.873  -0.083  -4.318  0.00  0.00    +0.169 C 
ATOM      3  C   UNL     1      11.344  -1.315  -3.520  0.00  0.00    +0.051 C 
ATOM      4  C   UNL     1      12.424  -0.805  -2.573  0.00  0.00    +0.094 C 
ATOM      5  C   UNL     1      11.892   0.594  -2.241  0.00  0.00    +0.130 C 
ENDROOT
BRANCH   2   6
ATOM      6  C   UNL     1      11.400  -0.118  -5.759  0.00  0.00    +0.254 C 
ATOM      7  N   UNL     1      10.853   0.819  -6.606  0.00  0.00    -0.196 N 
ATOM      8  H   UNL     1      10.610   1.752  -6.254  0.00  0.00    +0.182 HD
ATOM      9  O   UNL     1      12.196  -0.959  -6.180  0.00  0.00    -0.272 OA
BRANCH   7  10
ATOM     10  O   UNL     1      11.318   0.776  -7.944  0.00  0.00    -0.295 OA
ATOM     11  H   UNL     1      11.832  -0.060  -7.964  0.00  0.00    +0.241 HD
ENDBRANCH   7  10
ENDBRANCH   2   6
BRANCH   1  12
ATOM     12  S   UNL     1      10.605   2.567  -3.598  0.00  0.00    +0.062 S 
ATOM     13  O   UNL     1      11.441   3.503  -2.878  0.00  0.00    -0.153 OA
ATOM     14  O   UNL     1      10.254   2.805  -4.981  0.00  0.00    -0.153 OA
BRANCH  12  18
ATOM     15  C   UNL     1       6.699   2.780  -1.254  0.00  0.00    +0.121 A 
ATOM     16  C   UNL     1       6.663   2.490  -2.622  0.00  0.00    +0.047 A 
ATOM     17  C   UNL     1       7.854   2.309  -3.344  0.00  0.00    +0.032 A 
ATOM     18  C   UNL     1       9.085   2.412  -2.685  0.00  0.00    +0.106 A 
ATOM     19  C   UNL     1       9.122   2.649  -1.312  0.00  0.00    +0.032 A 
ATOM     20  C   UNL     1       7.935   2.815  -0.602  0.00  0.00    +0.047 A 
BRANCH  15  21
ATOM     21  O   UNL     1       5.492   3.056  -0.653  0.00  0.00    -0.492 OA
BRANCH  21  22
ATOM     22  C   UNL     1       5.597   3.522   0.697  0.00  0.00    +0.229 C 
BRANCH  22  23
ATOM     23  C   UNL     1       4.242   3.925   1.268  0.00  0.00    +0.041 C 
BRANCH  23  25
ATOM     24  C   UNL     1       3.099   4.728   3.381  0.00  0.00    +0.004 C 
ATOM     25  C   UNL     1       4.413   4.335   2.734  0.00  0.00    -0.000 C 
ENDBRANCH  23  25
ENDBRANCH  22  23
ENDBRANCH  21  22
ENDBRANCH  15  21
ENDBRANCH  12  18
ENDBRANCH   1  12
BRANCH   4  26
ATOM     26  N   UNL     1      12.550  -1.627  -1.355  0.00  0.00    -0.190 NA
ATOM     27  H   UNL     1      12.899  -1.173  -0.510  0.00  0.00    +0.148 HD
BRANCH  26  28
ATOM     28  S   UNL     1      13.055  -3.230  -1.443  0.00  0.00    +0.027 S 
ATOM     29  O   UNL     1      12.280  -3.902  -2.459  0.00  0.00    -0.158 OA
ATOM     30  O   UNL     1      13.082  -3.702  -0.076  0.00  0.00    -0.158 OA
ATOM     31  C   UNL     1      14.741  -3.080  -2.001  0.00  0.00    +0.214 C 
ENDBRANCH  26  28
ENDBRANCH   4  26
TORSDOF 10
