REMARK  Name = 
REMARK  8 active torsions:
REMARK  status: ('A' for Active; 'I' for Inactive)
REMARK    1  A    between atoms: C_2  and  C_3
REMARK    2  A    between atoms: C_2  and  C_4
REMARK    3  A    between atoms: C_2  and  C_18
REMARK    4  A    between atoms: C_4  and  N_5
REMARK    5  A    between atoms: C_6  and  C_8
REMARK    6  A    between atoms: C_11  and  S_14
REMARK    7  A    between atoms: S_14  and  N_15
REMARK    8  A    between atoms: C_18  and  N_19
REMARK                            x       y       z     vdW  Elec       q    Type
REMARK                         _______ _______ _______ _____ _____    ______ ____
ROOT
ATOM      1  N   UNL     1       1.903   0.233   2.605  0.00  0.00    -0.311 N 
ATOM      2  H   UNL     1       2.237   1.159   2.835  0.00  0.00    +0.149 HD
ATOM      3  C   UNL     1       0.711  -0.210   3.143  0.00  0.00    +0.244 C 
ATOM      4  O   UNL     1       0.132  -1.219   2.759  0.00  0.00    -0.270 OA
ENDROOT
BRANCH   3   5
ATOM      5  C   UNL     1       0.114   0.636   4.214  0.00  0.00    +0.037 A 
ATOM      6  C   UNL     1       0.901   1.423   5.069  0.00  0.00    +0.015 A 
ATOM      7  C   UNL     1       0.295   2.226   6.039  0.00  0.00    +0.029 A 
ATOM      8  C   UNL     1      -1.098   2.226   6.166  0.00  0.00    +0.105 A 
ATOM      9  C   UNL     1      -1.890   1.430   5.333  0.00  0.00    +0.029 A 
ATOM     10  C   UNL     1      -1.280   0.628   4.365  0.00  0.00    +0.015 A 
BRANCH   8  11
ATOM     11  S   UNL     1      -1.873   3.292   7.346  0.00  0.00    +0.056 S 
ATOM     12  O   UNL     1      -3.217   3.588   6.906  0.00  0.00    -0.153 OA
ATOM     13  O   UNL     1      -0.940   4.325   7.735  0.00  0.00    -0.153 OA
BRANCH  11  14
ATOM     14  N   UNL     1      -2.028   2.285   8.677  0.00  0.00    -0.204 NA
ATOM     15  H   UNL     1      -3.016   2.137   8.887  0.00  0.00    +0.144 HD
ATOM     16  H   UNL     1      -1.496   2.662   9.461  0.00  0.00    +0.144 HD
ENDBRANCH  11  14
ENDBRANCH   8  11
ENDBRANCH   3   5
BRANCH   1  17
ATOM     17  C   UNL     1       2.553  -0.472   1.518  0.00  0.00    +0.109 C 
BRANCH  17  18
ATOM     18  C   UNL     1       2.033  -0.056   0.130  0.00  0.00    +0.023 C 
ATOM     19  C   UNL     1       2.339   1.422  -0.144  0.00  0.00    +0.011 C 
BRANCH  18  20
ATOM     20  C   UNL     1       2.664  -0.982  -0.933  0.00  0.00    +0.126 C 
BRANCH  20  21
ATOM     21  N   UNL     1       2.165  -0.789  -2.287  0.00  0.00    -0.346 N 
ATOM     22  C   UNL     1       2.931  -0.558  -3.417  0.00  0.00    +0.049 A 
ATOM     23  C   UNL     1       2.038  -0.373  -4.480  0.00  0.00    -0.000 A 
ATOM     24  C   UNL     1       2.546  -0.082  -5.763  0.00  0.00    +0.010 A 
ATOM     25  C   UNL     1       3.928  -0.016  -5.960  0.00  0.00    +0.001 A 
ATOM     26  C   UNL     1       4.802  -0.231  -4.899  0.00  0.00    +0.002 A 
ATOM     27  C   UNL     1       0.727  -0.559  -3.970  0.00  0.00    +0.027 A 
ATOM     28  C   UNL     1       4.322  -0.495  -3.610  0.00  0.00    +0.026 A 
ATOM     29  C   UNL     1       0.838  -0.861  -2.633  0.00  0.00    +0.087 A 
ENDBRANCH  20  21
ENDBRANCH  18  20
ENDBRANCH  17  18
ENDBRANCH   1  17
TORSDOF 7
