REMARK  Name = 
REMARK  8 active torsions:
REMARK  status: ('A' for Active; 'I' for Inactive)
REMARK    1  A    between atoms: N_1  and  C_2
REMARK    2  A    between atoms: C_2  and  C_4
REMARK    3  A    between atoms: C_2  and  C_9
REMARK    4  A    between atoms: C_4  and  S_5
REMARK    5  A    between atoms: S_5  and  C_6
REMARK    6  A    between atoms: C_6  and  C_7
REMARK    7  A    between atoms: C_7  and  O_8
REMARK    8  A    between atoms: C_9  and  O_10
REMARK                            x       y       z     vdW  Elec       q    Type
REMARK                         _______ _______ _______ _____ _____    ______ ____
ROOT
ATOM      1  C   UNK     1       2.426   0.087   0.015  0.00  0.00    +0.170 C 
ENDROOT
BRANCH   1   2
ATOM      2  N   UNK     1       0.937  -0.064   0.114  0.00  0.00    -0.318 NA
ATOM      3  H   UNK     1       0.602   0.592   0.828  0.00  0.00    +0.119 HD
ATOM      4  H   UNK     1       0.554   0.331  -0.754  0.00  0.00    +0.119 HD
ENDBRANCH   1   2
BRANCH   1   5
ATOM      5  C   UNK     1       3.058  -0.644   1.205  0.00  0.00    +0.323 C 
ATOM      6  O   UNK     1       4.172  -0.437   1.657  0.00  0.00    -0.249 OA
BRANCH   5   7
ATOM      7  O   UNK     1       2.217  -1.598   1.689  0.00  0.00    -0.480 OA
ATOM      8  H   UNK     1       1.383  -1.521   1.160  0.00  0.00    +0.295 HD
ENDBRANCH   5   7
ENDBRANCH   1   5
BRANCH   1   9
ATOM      9  C   UNK     1       2.896   1.548  -0.027  0.00  0.00    +0.099 C 
BRANCH   9  10
ATOM     10  S   UNK     1       2.152   2.422  -1.456  0.00  0.00    -0.156 S 
BRANCH  10  11
ATOM     11  C   UNK     1       2.915   4.067  -1.206  0.00  0.00    +0.097 C 
BRANCH  11  12
ATOM     12  C   UNK     1       2.480   5.024  -2.314  0.00  0.00    +0.166 C 
BRANCH  12  13
ATOM     13  O   UNK     1       1.067   5.207  -2.310  0.00  0.00    -0.394 OA
ATOM     14  H   UNK     1       0.680   4.317  -2.415  0.00  0.00    +0.209 HD
ENDBRANCH  12  13
ENDBRANCH  11  12
ENDBRANCH  10  11
ENDBRANCH   9  10
ENDBRANCH   1   9
TORSDOF 8
