REMARK  Name = 
REMARK  14 active torsions:
REMARK  status: ('A' for Active; 'I' for Inactive)
REMARK    1  A    between atoms: N_1  and  CA_2
REMARK    2  A    between atoms: CA_2  and  C_4
REMARK    3  A    between atoms: CA_2  and  C_6
REMARK    4  A    between atoms: C_4  and  O_5
REMARK    5  A    between atoms: C_6  and  O_8
REMARK    6  A    between atoms: C_6  and  C_9
REMARK    7  A    between atoms: C_9  and  O_11
REMARK    8  A    between atoms: C_9  and  C_12
REMARK    9  A    between atoms: C_12  and  O_14
REMARK   10  A    between atoms: C_12  and  C_15
REMARK   11  A    between atoms: C_15  and  O_16
REMARK   12  A    between atoms: O_16  and  P_17
REMARK   13  A    between atoms: P_17  and  O_18
REMARK   14  A    between atoms: P_17  and  O_19
REMARK                            x       y       z     vdW  Elec       q    Type
REMARK                         _______ _______ _______ _____ _____    ______ ____
ROOT
ATOM      1  C   UNL     1       3.963  -2.669   2.941  0.00  0.00    +0.175 C 
ENDROOT
BRANCH   1   2
ATOM      2  O   UNL     1       4.467  -1.567   3.731  0.00  0.00    -0.387 OA
ATOM      3  H   UNL     1       4.592  -1.904   4.638  0.00  0.00    +0.210 HD
ENDBRANCH   1   2
BRANCH   1   4
ATOM      4  C   UNL     1       4.193  -3.983   3.722  0.00  0.00    +0.164 C 
BRANCH   4   5
ATOM      5  O   UNL     1       3.587  -3.818   5.028  0.00  0.00    -0.388 OA
ATOM      6  H   UNL     1       2.708  -3.421   4.918  0.00  0.00    +0.210 HD
ENDBRANCH   4   5
BRANCH   4   7
ATOM      7  CA  UNL     1       3.696  -5.306   3.076  0.00  0.00    +0.108 C 
BRANCH   7   8
ATOM      8  N   UNL     1       4.505  -5.750   1.920  0.00  0.00    -0.323 NA
ATOM      9  H1  UNL     1       5.470  -5.423   2.032  0.00  0.00    +0.119 HD
ATOM     10  H2  UNL     1       4.566  -6.768   1.935  0.00  0.00    +0.119 HD
ENDBRANCH   7   8
BRANCH   7  11
ATOM     11  C   UNL     1       2.215  -5.253   2.663  0.00  0.00    +0.177 C 
BRANCH  11  12
ATOM     12  O   UNL     1       1.825  -6.495   2.076  0.00  0.00    -0.393 OA
ATOM     13  H   UNL     1       2.465  -6.642   1.355  0.00  0.00    +0.209 HD
ENDBRANCH  11  12
ENDBRANCH   7  11
ENDBRANCH   4   7
ENDBRANCH   1   4
BRANCH   1  14
ATOM     14  C   UNL     1       4.587  -2.628   1.535  0.00  0.00    +0.172 C 
BRANCH  14  15
ATOM     15  O   UNL     1       5.972  -2.996   1.581  0.00  0.00    -0.387 OA
ATOM     16  H   UNL     1       6.298  -2.879   0.665  0.00  0.00    +0.210 HD
ENDBRANCH  14  15
BRANCH  14  17
ATOM     17  C   UNL     1       4.453  -1.250   0.877  0.00  0.00    +0.206 C 
BRANCH  17  18
ATOM     18  O   UNL     1       4.866  -1.407  -0.473  0.00  0.00    -0.284 OA
BRANCH  18  19
ATOM     19  P   UNL     1       4.697  -0.004  -1.471  0.00  0.00    +0.472 P 
ATOM     20  O   UNL     1       4.547   1.251  -2.364  0.00  0.00    -0.228 OA
BRANCH  19  21
ATOM     21  O   UNL     1       3.619  -0.878  -2.336  0.00  0.00    -0.303 OA
ATOM     22  H   UNL     1       2.718  -0.519  -2.243  0.00  0.00    +0.222 HD
ENDBRANCH  19  21
BRANCH  19  23
ATOM     23  O   UNL     1       6.049  -0.484  -2.250  0.00  0.00    -0.303 OA
ATOM     24  H   UNL     1       6.051  -0.004  -3.096  0.00  0.00    +0.222 HD
ENDBRANCH  19  23
ENDBRANCH  18  19
ENDBRANCH  17  18
ENDBRANCH  14  17
ENDBRANCH   1  14
TORSDOF 14
