REMARK  Name = 
REMARK  7 active torsions:
REMARK  status: ('A' for Active; 'I' for Inactive)
REMARK    1  A    between atoms: C_1  and  C_2
REMARK    2  A    between atoms: N_4  and  C_6
REMARK    3  A    between atoms: C_6  and  C_7
REMARK    4  A    between atoms: C_7  and  O_8
REMARK    5  A    between atoms: O_8  and  P_9
REMARK    6  A    between atoms: P_9  and  O_10
REMARK    7  A    between atoms: P_9  and  O_11
REMARK                            x       y       z     vdW  Elec       q    Type
REMARK                         _______ _______ _______ _____ _____    ______ ____
ROOT
ATOM      1  C   UNL     1       5.241  -2.180  -1.484  0.00  0.00    +0.192 C 
ENDROOT
BRANCH   1   2
ATOM      2  C   UNL     1       4.628  -1.028  -0.704  0.00  0.00    +0.149 C 
BRANCH   2   5
ATOM      3  C   UNL     1       1.070   0.120   0.105  0.00  0.00    +0.110 C 
ATOM      4  C   UNL     1       2.578   0.060   0.071  0.00  0.00    +0.222 C 
ATOM      5  N   UNL     1       3.164  -0.982  -0.641  0.00  0.00    -0.236 N 
ATOM      6 BR   UNL     1       2.124  -2.269  -1.578  0.00  0.00    +0.039 Br
ATOM      7  O   UNL     1       3.243   0.904   0.678  0.00  0.00    -0.275 OA
ENDBRANCH   2   5
ENDBRANCH   1   2
BRANCH   1   8
ATOM      8  O   UNL     1       6.677  -2.141  -1.493  0.00  0.00    -0.285 OA
BRANCH   8   9
ATOM      9  P   UNL     1       7.254  -3.481  -2.423  0.00  0.00    +0.472 P 
ATOM     10  O   UNL     1       7.770  -4.680  -3.255  0.00  0.00    -0.228 OA
BRANCH   9  11
ATOM     11  O   UNL     1       8.742  -2.951  -1.986  0.00  0.00    -0.303 OA
ATOM     12  H   UNL     1       8.971  -3.238  -1.085  0.00  0.00    +0.222 HD
ENDBRANCH   9  11
BRANCH   9  13
ATOM     13  O   UNL     1       7.143  -2.446  -3.686  0.00  0.00    -0.303 OA
ATOM     14  H   UNL     1       7.984  -1.950  -3.697  0.00  0.00    +0.222 HD
ENDBRANCH   9  13
ENDBRANCH   8   9
ENDBRANCH   1   8
TORSDOF 6
