REMARK  Name = 
REMARK  9 active torsions:
REMARK  status: ('A' for Active; 'I' for Inactive)
REMARK    1  A    between atoms: O_1  and  N_2
REMARK    2  A    between atoms: C_3  and  C_5
REMARK    3  A    between atoms: C_5  and  C_6
REMARK    4  A    between atoms: C_6  and  C_7
REMARK    5  A    between atoms: C_7  and  C_8
REMARK    6  A    between atoms: C_8  and  C_9
REMARK    7  A    between atoms: C_9  and  C_10
REMARK    8  A    between atoms: C_10  and  C_11
REMARK    9  A    between atoms: N_13  and  C_14
REMARK                            x       y       z     vdW  Elec       q    Type
REMARK                         _______ _______ _______ _____ _____    ______ ____
ROOT
ATOM      1  C   UNL     1       8.714  -3.024  -2.830  0.00  0.00    +0.009 C 
ENDROOT
BRANCH   1   2
ATOM      2  C   UNL     1       7.192  -3.045  -2.838  0.00  0.00    +0.000 C 
BRANCH   2   3
ATOM      3  C   UNL     1       6.657  -1.995  -1.861  0.00  0.00    +0.000 C 
BRANCH   3   4
ATOM      4  C   UNL     1       5.132  -1.981  -1.837  0.00  0.00    +0.009 C 
BRANCH   4   5
ATOM      5  C   UNL     1       4.608  -0.929  -0.863  0.00  0.00    +0.098 C 
BRANCH   5   8
ATOM      6  N   UNL     1       2.536   0.037   0.005  0.00  0.00    -0.197 N 
ATOM      7  H   UNL     1       1.527   0.080   0.099  0.00  0.00    +0.182 HD
ATOM      8  C   UNL     1       3.092  -0.903  -0.813  0.00  0.00    +0.235 C 
ATOM      9  O   UNL     1       2.374  -1.666  -1.457  0.00  0.00    -0.274 OA
BRANCH   6  10
ATOM     10  O   UNL     1       3.356   0.878   0.774  0.00  0.00    -0.295 OA
ATOM     11  H   UNL     1       2.727   1.339   1.357  0.00  0.00    +0.241 HD
ENDBRANCH   6  10
ENDBRANCH   5   8
ENDBRANCH   4   5
ENDBRANCH   3   4
ENDBRANCH   2   3
ENDBRANCH   1   2
BRANCH   1  12
ATOM     12  C   UNL     1       9.355  -4.038  -3.782  0.00  0.00    +0.096 C 
BRANCH  12  13
ATOM     13  C   UNL     1      10.867  -3.913  -3.684  0.00  0.00    +0.217 C 
ATOM     14  N   UNL     1      11.559  -4.756  -4.535  0.00  0.00    -0.285 N 
ATOM     15  H   UNL     1      11.034  -5.223  -5.264  0.00  0.00    +0.155 HD
ATOM     16  O   UNL     1      11.380  -3.107  -2.912  0.00  0.00    -0.275 OA
BRANCH  14  17
ATOM     17  C   UNL     1      12.968  -4.870  -4.582  0.00  0.00    +0.033 A 
ATOM     18  C   UNL     1      13.553  -5.476  -5.699  0.00  0.00    +0.023 A 
ATOM     19  C   UNL     1      14.947  -5.568  -5.805  0.00  0.00    +0.002 A 
ATOM     20  C   UNL     1      15.764  -5.074  -4.790  0.00  0.00    +0.000 A 
ATOM     21  C   UNL     1      15.191  -4.501  -3.662  0.00  0.00    +0.002 A 
ATOM     22  C   UNL     1      13.803  -4.407  -3.559  0.00  0.00    +0.023 A 
ENDBRANCH  14  17
ENDBRANCH  12  13
ENDBRANCH   1  12
TORSDOF 9
