REMARK  Name = 
REMARK  7 active torsions:
REMARK  status: ('A' for Active; 'I' for Inactive)
REMARK    1  A    between atoms: O_1  and  C_2
REMARK    2  A    between atoms: C_2  and  C_4
REMARK    3  A    between atoms: C_4  and  O_5
REMARK    4  A    between atoms: O_5  and  C_6
REMARK    5  A    between atoms: C_12  and  C_13
REMARK    6  A    between atoms: N_15  and  C_16
REMARK    7  A    between atoms: C_16  and  C_17
REMARK                            x       y       z     vdW  Elec       q    Type
REMARK                         _______ _______ _______ _____ _____    ______ ____
ROOT
ATOM      1  C   UNL     1       6.637  -0.296  -2.411  0.00  0.00    +0.248 C 
ATOM      2  N   UNL     1       6.366  -1.260  -1.458  0.00  0.00    -0.305 N 
ATOM      3  H   UNL     1       6.205  -1.006  -0.492  0.00  0.00    +0.149 HD
ATOM      4  O   UNL     1       7.102  -0.601  -3.507  0.00  0.00    -0.270 OA
ENDROOT
BRANCH   1   6
ATOM      5  C   UNL     1       5.330   1.671  -1.270  0.00  0.00    +0.136 A 
ATOM      6  C   UNL     1       6.335   1.154  -2.119  0.00  0.00    +0.078 A 
ATOM      7  C   UNL     1       7.105   2.081  -2.867  0.00  0.00    +0.019 A 
ATOM      8  C   UNL     1       6.926   3.464  -2.741  0.00  0.00    +0.039 A 
ATOM      9  C   UNL     1       5.994   3.943  -1.838  0.00  0.00    +0.127 A 
ATOM     10  F   UNL     1       5.817   5.263  -1.699  0.00  0.00    -0.205 F 
ATOM     11  C   UNL     1       5.215   3.064  -1.100  0.00  0.00    +0.084 A 
BRANCH   5  12
ATOM     12  O   UNL     1       4.349   1.018  -0.564  0.00  0.00    -0.480 OA
BRANCH  12  13
ATOM     13  C   UNL     1       3.803  -0.144  -1.161  0.00  0.00    +0.349 C 
BRANCH  13  14
ATOM     14  C   UNL     1       2.300  -0.307  -1.127  0.00  0.00    +0.343 C 
ATOM     15  O   UNL     1       1.680  -0.993  -1.929  0.00  0.00    -0.247 OA
BRANCH  14  16
ATOM     16  O   UNL     1       1.716   0.299  -0.070  0.00  0.00    -0.478 OA
ATOM     17  H   UNL     1       2.383   0.736   0.498  0.00  0.00    +0.295 HD
ENDBRANCH  14  16
ENDBRANCH  13  14
ENDBRANCH  12  13
ENDBRANCH   5  12
ENDBRANCH   1   6
BRANCH   2  18
ATOM     18  C   UNL     1       6.312  -2.678  -1.823  0.00  0.00    +0.167 C 
BRANCH  18  19
ATOM     19  C   UNL     1       5.336  -3.476  -0.972  0.00  0.00    +0.097 A 
ATOM     20  S   UNL     1       5.179  -5.172  -1.246  0.00  0.00    -0.068 S 
ATOM     21  C   UNL     1       3.891  -5.259  -0.104  0.00  0.00    +0.077 A 
ATOM     22  C   UNL     1       3.111  -6.359   0.284  0.00  0.00    +0.142 A 
ATOM     23  C   UNL     1       2.087  -6.199   1.220  0.00  0.00    +0.081 A 
ATOM     24  C   UNL     1       1.841  -4.940   1.746  0.00  0.00    +0.163 A 
ATOM     25  C   UNL     1       2.618  -3.839   1.370  0.00  0.00    +0.185 A 
ATOM     26  F   UNL     1       2.349  -2.632   1.895  0.00  0.00    -0.200 F 
ATOM     27  F   UNL     1       0.860  -4.788   2.649  0.00  0.00    -0.202 F 
ATOM     28  F   UNL     1       3.341  -7.582  -0.220  0.00  0.00    -0.204 F 
ATOM     29  C   UNL     1       3.668  -3.992   0.433  0.00  0.00    +0.119 A 
ATOM     30  N   UNL     1       4.538  -3.005  -0.032  0.00  0.00    -0.239 NA
ENDBRANCH  18  19
ENDBRANCH   2  18
TORSDOF 7
