REMARK  Name = 
REMARK  9 active torsions:
REMARK  status: ('A' for Active; 'I' for Inactive)
REMARK    1  A    between atoms: C_1  and  C_2
REMARK    2  A    between atoms: C_2  and  O_4
REMARK    3  A    between atoms: C_2  and  C_9
REMARK    4  A    between atoms: O_4  and  P_5
REMARK    5  A    between atoms: P_5  and  O_6
REMARK    6  A    between atoms: P_5  and  O_7
REMARK    7  A    between atoms: C_9  and  N_11
REMARK    8  A    between atoms: C_9  and  C_12
REMARK    9  A    between atoms: C_12  and  O_13
REMARK                            x       y       z     vdW  Elec       q    Type
REMARK                         _______ _______ _______ _____ _____    ______ ____
ROOT
ATOM      1  C   UNK     1       2.919   1.500  -0.382  0.00  0.00    +0.040 C 
ATOM      2  C   UNK     1       2.514   0.077  -0.017  0.00  0.00    +0.155 C 
ENDROOT
BRANCH   2   3
ATOM      3  C   UNK     1       3.064  -0.999  -0.993  0.00  0.00    +0.190 C 
BRANCH   3   4
ATOM      4  N   UNK     1       2.777  -0.744  -2.429  0.00  0.00    -0.316 NA
ATOM      5  H   UNK     1       3.024  -1.587  -2.962  0.00  0.00    +0.119 HD
ATOM      6  H   UNK     1       1.761  -0.673  -2.548  0.00  0.00    +0.119 HD
ENDBRANCH   3   4
BRANCH   3   7
ATOM      7  C   UNK     1       4.574  -1.145  -0.793  0.00  0.00    +0.324 C 
ATOM      8  O   UNK     1       5.075  -1.724   0.163  0.00  0.00    -0.249 OA
BRANCH   7   9
ATOM      9  O   UNK     1       5.278  -0.556  -1.789  0.00  0.00    -0.479 OA
ATOM     10  H   UNK     1       4.627  -0.169  -2.425  0.00  0.00    +0.295 HD
ENDBRANCH   7   9
ENDBRANCH   3   7
ENDBRANCH   2   3
BRANCH   2  11
ATOM     11  O   UNK     1       2.929  -0.177   1.338  0.00  0.00    -0.282 OA
BRANCH  11  12
ATOM     12  P   UNK     1       2.344  -1.712   1.879  0.00  0.00    +0.473 P 
ATOM     13  O   UNK     1       1.820  -3.086   2.364  0.00  0.00    -0.228 OA
BRANCH  12  14
ATOM     14  O   UNK     1       1.469  -0.823   2.926  0.00  0.00    -0.303 OA
ATOM     15  H   UNK     1       1.987  -0.813   3.755  0.00  0.00    +0.222 HD
ENDBRANCH  12  14
BRANCH  12  16
ATOM     16  O   UNK     1       3.694  -1.727   2.801  0.00  0.00    -0.303 OA
ATOM     17  H   UNK     1       4.477  -1.925   2.242  0.00  0.00    +0.222 HD
ENDBRANCH  12  16
ENDBRANCH  11  12
ENDBRANCH   2  11
TORSDOF 8
