REMARK  Name = 
REMARK  9 active torsions:
REMARK  status: ('A' for Active; 'I' for Inactive)
REMARK    1  A    between atoms: N_14  and  C_17
REMARK    2  A    between atoms: C_20  and  C_23
REMARK    3  A    between atoms: N_25  and  CA_26
REMARK    4  A    between atoms: CA_26  and  CB_28
REMARK    5  A    between atoms: CA_26  and  C_33
REMARK    6  A    between atoms: CB_28  and  CG_29
REMARK    7  A    between atoms: CG_29  and  CD_30
REMARK    8  A    between atoms: CD_30  and  OE1_31
REMARK    9  A    between atoms: C_33  and  O_34
REMARK                            x       y       z     vdW  Elec       q    Type
REMARK                         _______ _______ _______ _____ _____    ______ ____
ROOT
ATOM      1  C   UNK A   0      13.505  -0.653   0.474  0.00  0.00    +0.031 A 
ATOM      2  C   UNK A   0      13.456  -2.027   0.763  0.00  0.00    +0.024 A 
ATOM      3  C   UNK A   0      13.973  -2.996  -0.108  0.00  0.00    +0.015 A 
ATOM      4  C   UNK A   0      14.572  -2.623  -1.312  0.00  0.00    +0.037 A 
ATOM      5  C   UNK A   0      14.662  -1.263  -1.615  0.00  0.00    +0.015 A 
ATOM      6  C   UNK A   0      14.139  -0.300  -0.727  0.00  0.00    +0.024 A 
ENDROOT
BRANCH   1  19
ATOM      7  N   UNK A   0       7.817   2.433   6.603  0.00  0.00    -0.329 N 
ATOM      8  H   UNK A   0       7.067   3.069   6.364  0.00  0.00    +0.145 HD
ATOM      9  H   UNK A   0       7.494   1.677   7.201  0.00  0.00    +0.145 HD
ATOM     10  C   UNK A   0       8.544   1.958   5.560  0.00  0.00    +0.195 A 
ATOM     11  N   UNK A   0       8.817   2.890   4.613  0.00  0.00    -0.311 N 
ATOM     12  H   UNK A   0       8.678   3.871   4.814  0.00  0.00    +0.170 HD
ATOM     13  C   UNK A   0       9.790   2.665   3.671  0.00  0.00    +0.160 A 
ATOM     14  N   UNK A   0      10.231   3.697   2.840  0.00  0.00    -0.238 NA
ATOM     15  C   UNK A   0      11.338   3.493   2.171  0.00  0.00    +0.110 C 
ATOM     16  C   UNK A   0      12.231   2.275   2.343  0.00  0.00    +0.134 C 
ATOM     17  N   UNK A   0      11.392   1.162   2.744  0.00  0.00    -0.297 N 
ATOM     18  C   UNK A   0      11.983  -0.094   2.359  0.00  0.00    +0.214 C 
ATOM     19  N   UNK A   0      12.983   0.281   1.343  0.00  0.00    -0.312 N 
ATOM     20  C   UNK A   0      12.965   1.736   1.118  0.00  0.00    +0.134 C 
ATOM     21  C   UNK A   0      10.318   1.415   3.585  0.00  0.00    +0.141 A 
ATOM     22  C   UNK A   0       9.706   0.334   4.458  0.00  0.00    +0.298 A 
ATOM     23  O   UNK A   0       9.958  -0.850   4.231  0.00  0.00    -0.264 OA
ATOM     24  N   UNK A   0       8.940   0.731   5.536  0.00  0.00    -0.176 NA
ENDBRANCH   1  19
BRANCH   4  25
ATOM     25  C   UNK A   0      15.107  -3.711  -2.188  0.00  0.00    +0.245 C 
ATOM     26  N   GLU A   1      15.263  -3.442  -3.536  0.00  0.00    -0.298 N 
ATOM     27  H   GLU A   1      15.152  -2.499  -3.888  0.00  0.00    +0.150 HD
ATOM     28  O   UNK A   0      15.378  -4.804  -1.709  0.00  0.00    -0.270 OA
BRANCH  26  29
ATOM     29  CA  GLU A   1      15.813  -4.457  -4.460  0.00  0.00    +0.182 C 
BRANCH  29  30
ATOM     30  C   GLU A   1      15.023  -4.437  -5.782  0.00  0.00    +0.325 C 
ATOM     31  OXT GLU A   1      15.406  -4.922  -6.836  0.00  0.00    -0.249 OA
BRANCH  30  32
ATOM     32  O   GLU A   1      13.794  -3.874  -5.654  0.00  0.00    -0.479 OA
ATOM     33  H   GLU A   1      13.603  -3.695  -4.712  0.00  0.00    +0.295 HD
ENDBRANCH  30  32
ENDBRANCH  29  30
BRANCH  29  34
ATOM     34  CB  GLU A   1      17.308  -4.254  -4.735  0.00  0.00    +0.045 C 
BRANCH  34  35
ATOM     35  CG  GLU A   1      18.182  -4.331  -3.483  0.00  0.00    +0.123 C 
BRANCH  35  36
ATOM     36  CD  GLU A   1      19.647  -4.160  -3.817  0.00  0.00    +0.305 C 
ATOM     37  OE2 GLU A   1      20.096  -3.945  -4.930  0.00  0.00    -0.251 OA
BRANCH  36  38
ATOM     38  OE1 GLU A   1      20.435  -4.242  -2.720  0.00  0.00    -0.481 OA
ATOM     39  HE1 GLU A   1      19.944  -4.417  -1.894  0.00  0.00    +0.295 HD
ENDBRANCH  36  38
ENDBRANCH  35  36
ENDBRANCH  34  35
ENDBRANCH  29  34
ENDBRANCH  26  29
ENDBRANCH   4  25
TORSDOF 9
