REMARK  Name = 
REMARK  6 active torsions:
REMARK  status: ('A' for Active; 'I' for Inactive)
REMARK    1  A    between atoms: N_1  and  S_2
REMARK    2  A    between atoms: S_2  and  C_5
REMARK    3  A    between atoms: C_8  and  S_10
REMARK    4  A    between atoms: S_10  and  N_13
REMARK    5  A    between atoms: N_13  and  C_14
REMARK    6  A    between atoms: C_14  and  C_15
REMARK                            x       y       z     vdW  Elec       q    Type
REMARK                         _______ _______ _______ _____ _____    ______ ____
ROOT
ATOM      1  C   UNL     1       3.609   2.200  -0.200  0.00  0.00    +0.144 A 
ATOM      2  S   UNL     1       5.048   2.952   0.348  0.00  0.00    -0.049 S 
ATOM      3  C   UNL     1       4.403   3.218   1.909  0.00  0.00    +0.144 A 
ATOM      4  C   UNL     1       3.112   2.731   2.011  0.00  0.00    +0.038 A 
ATOM      5  C   UNL     1       2.654   2.147   0.796  0.00  0.00    +0.038 A 
ENDROOT
BRANCH   1   6
ATOM      6  S   UNL     1       3.605   1.655  -1.887  0.00  0.00    +0.062 S 
ATOM      7  O   UNL     1       4.777   0.831  -2.049  0.00  0.00    -0.153 OA
ATOM      8  O   UNL     1       2.270   1.168  -2.144  0.00  0.00    -0.153 OA
BRANCH   6   9
ATOM      9  N   UNL     1       3.834   3.007  -2.859  0.00  0.00    -0.203 NA
ATOM     10  H   UNL     1       4.805   3.320  -2.810  0.00  0.00    +0.144 HD
ATOM     11  H   UNL     1       3.557   2.787  -3.816  0.00  0.00    +0.144 HD
ENDBRANCH   6   9
ENDBRANCH   1   6
BRANCH   3  12
ATOM     12  S   UNL     1       5.440   4.048   3.104  0.00  0.00    +0.065 S 
ATOM     13  O   UNL     1       4.495   4.533   4.082  0.00  0.00    -0.153 OA
ATOM     14  O   UNL     1       6.308   4.937   2.362  0.00  0.00    -0.153 OA
BRANCH  12  15
ATOM     15  N   UNL     1       6.369   2.877   3.871  0.00  0.00    -0.185 NA
ATOM     16  H   UNL     1       5.813   2.085   4.190  0.00  0.00    +0.148 HD
BRANCH  15  17
ATOM     17  C   UNL     1       7.628   2.510   3.220  0.00  0.00    +0.148 C 
BRANCH  17  18
ATOM     18  C   UNL     1       8.313   1.495   4.086  0.00  0.00    +0.005 A 
ATOM     19  S   UNL     1       8.068  -0.181   3.813  0.00  0.00    -0.100 S 
ATOM     20  C   UNL     1       9.137  -0.609   5.077  0.00  0.00    +0.045 A 
ATOM     21  C   UNL     1       9.660   0.497   5.710  0.00  0.00    +0.008 A 
ATOM     22  C   UNL     1       9.177   1.712   5.142  0.00  0.00    +0.012 A 
ENDBRANCH  17  18
ENDBRANCH  15  17
ENDBRANCH  12  15
ENDBRANCH   3  12
TORSDOF 6
