REMARK  Name = 
REMARK  5 active torsions:
REMARK  status: ('A' for Active; 'I' for Inactive)
REMARK    1  A    between atoms: C_1  and  C_2
REMARK    2  A    between atoms: N_4  and  C_5
REMARK    3  A    between atoms: C_6  and  N_7
REMARK    4  A    between atoms: C_9  and  C_12
REMARK    5  A    between atoms: C_12  and  O_13
REMARK                            x       y       z     vdW  Elec       q    Type
REMARK                         _______ _______ _______ _____ _____    ______ ____
ROOT
ATOM      1  C   UNL     1       4.605  -1.130   0.295  0.00  0.00    +0.054 A 
ATOM      2  C   UNL     1       5.303  -0.729   1.441  0.00  0.00    +0.026 A 
ATOM      3  C   UNL     1       6.689  -0.892   1.510  0.00  0.00    +0.017 A 
ATOM      4  C   UNL     1       7.372  -1.471   0.439  0.00  0.00    +0.061 A 
ATOM      5  C   UNL     1       6.674  -1.877  -0.708  0.00  0.00    +0.039 A 
ATOM      6  C   UNL     1       5.295  -1.673  -0.805  0.00  0.00    +0.047 A 
ENDROOT
BRANCH   1   9
ATOM      7  C   UNL     1       1.010  -0.060   0.491  0.00  0.00    +0.109 C 
ATOM      8  C   UNL     1       2.496   0.076   0.680  0.00  0.00    +0.214 C 
ATOM      9  N   UNL     1       3.202  -1.015   0.210  0.00  0.00    -0.284 N 
ATOM     10  H   UNL     1       2.754  -1.627  -0.461  0.00  0.00    +0.155 HD
ATOM     11  O   UNL     1       2.986   1.077   1.193  0.00  0.00    -0.276 OA
ENDBRANCH   1   9
BRANCH   6  12
ATOM     12  N   UNL     1       4.597  -2.124  -1.949  0.00  0.00    -0.357 N 
ATOM     13  H   UNL     1       5.212  -2.245  -2.751  0.00  0.00    +0.142 HD
ATOM     14  H   UNL     1       3.836  -1.495  -2.192  0.00  0.00    +0.142 HD
ENDBRANCH   6  12
BRANCH   4  15
ATOM     15  C   UNL     1       8.847  -1.626   0.436  0.00  0.00    +0.337 C 
ATOM     16  O   UNL     1       9.521  -1.493  -0.568  0.00  0.00    -0.245 OA
BRANCH  15  17
ATOM     17  O   UNL     1       9.362  -1.958   1.637  0.00  0.00    -0.477 OA
ATOM     18  H   UNL     1       8.700  -2.201   2.310  0.00  0.00    +0.295 HD
ENDBRANCH  15  17
ENDBRANCH   4  15
TORSDOF 4
