REMARK  Name = 
REMARK  5 active torsions:
REMARK  status: ('A' for Active; 'I' for Inactive)
REMARK    1  A    between atoms: C_1  and  C_2
REMARK    2  A    between atoms: C_2  and  O_4
REMARK    3  A    between atoms: C_2  and  C_5
REMARK    4  A    between atoms: C_5  and  C_7
REMARK    5  A    between atoms: C_5  and  O_8
REMARK                            x       y       z     vdW  Elec       q    Type
REMARK                         _______ _______ _______ _____ _____    ______ ____
ROOT
ATOM      1  C   UNL     1       2.773  -2.940   0.086  0.00  0.00    +0.040 C 
ATOM      2  C   UNL     1       2.309  -2.110  -1.106  0.00  0.00    +0.140 C 
ENDROOT
BRANCH   2   3
ATOM      3  C   UNL     1       3.090  -0.786  -1.235  0.00  0.00    +0.140 C 
ATOM      4  C   UNL     1       2.656   0.010  -2.462  0.00  0.00    +0.040 C 
BRANCH   3   5
ATOM      5  O   UNL     1       4.491  -1.048  -1.335  0.00  0.00    -0.390 OA
ATOM      6  H   UNL     1       4.940  -0.186  -1.395  0.00  0.00    +0.210 HD
ENDBRANCH   3   5
ENDBRANCH   2   3
BRANCH   2   7
ATOM      7  O   UNL     1       0.915  -1.830  -0.953  0.00  0.00    -0.390 OA
ATOM      8  H   UNL     1       0.460  -2.681  -0.831  0.00  0.00    +0.210 HD
ENDBRANCH   2   7
TORSDOF 3
