REMARK  Name = 
REMARK  7 active torsions:
REMARK  status: ('A' for Active; 'I' for Inactive)
REMARK    1  A    between atoms: O_1  and  C_2
REMARK    2  A    between atoms: C_2  and  C_4
REMARK    3  A    between atoms: C_2  and  C_6
REMARK    4  A    between atoms: C_4  and  S_5
REMARK    5  A    between atoms: C_6  and  O_8
REMARK    6  A    between atoms: C_6  and  C_9
REMARK    7  A    between atoms: C_9  and  S_10
REMARK                            x       y       z     vdW  Elec       q    Type
REMARK                         _______ _______ _______ _____ _____    ______ ____
ROOT
ATOM      1  C   UNL     1       2.321  -0.674   2.404  0.00  0.00    +0.153 C 
ENDROOT
BRANCH   1   2
ATOM      2  O   UNL     1       2.822   0.617   2.768  0.00  0.00    -0.388 OA
ATOM      3  H   UNL     1       2.267   0.925   3.508  0.00  0.00    +0.210 HD
ENDBRANCH   1   2
BRANCH   1   4
ATOM      4  C   UNL     1       2.869  -1.052   1.009  0.00  0.00    +0.153 C 
BRANCH   4   5
ATOM      5  O   UNL     1       2.322  -2.317   0.618  0.00  0.00    -0.388 OA
ATOM      6  H   UNL     1       2.469  -2.393  -0.343  0.00  0.00    +0.210 HD
ENDBRANCH   4   5
BRANCH   4   7
ATOM      7  C   UNL     1       4.402  -1.090   0.949  0.00  0.00    +0.099 C 
BRANCH   7   8
ATOM      8  S   UNL     1       4.986  -1.378  -0.759  0.00  0.00    -0.176 S 
ATOM      9  H   UNL     1       4.648  -2.674  -0.819  0.00  0.00    +0.102 HD
ENDBRANCH   7   8
ENDBRANCH   4   7
ENDBRANCH   1   4
BRANCH   1  10
ATOM     10  C   UNL     1       2.658  -1.710   3.486  0.00  0.00    +0.099 C 
BRANCH  10  11
ATOM     11  S   UNL     1       1.930  -1.239   5.096  0.00  0.00    -0.176 S 
ATOM     12  H   UNL     1       2.806  -0.263   5.375  0.00  0.00    +0.102 HD
ENDBRANCH  10  11
ENDBRANCH   1  10
TORSDOF 7
