REMARK  Name = 
REMARK  7 active torsions:
REMARK  status: ('A' for Active; 'I' for Inactive)
REMARK    1  A    between atoms: O_1  and  C_2
REMARK    2  A    between atoms: C_2  and  C_4
REMARK    3  A    between atoms: C_2  and  C_10
REMARK    4  A    between atoms: C_4  and  O_5
REMARK    5  A    between atoms: O_5  and  P_6
REMARK    6  A    between atoms: P_6  and  O_7
REMARK    7  A    between atoms: P_6  and  O_8
REMARK                            x       y       z     vdW  Elec       q    Type
REMARK                         _______ _______ _______ _____ _____    ______ ____
ROOT
ATOM      1  O   UNL     1       2.392  -1.342   2.077  0.00  0.00    -0.284 OA
ENDROOT
BRANCH   1   2
ATOM      2  P   UNL     1       2.829  -2.864   2.774  0.00  0.00    +0.472 P 
ATOM      3  O   UNL     1       3.220  -4.226   3.399  0.00  0.00    -0.228 OA
BRANCH   2   4
ATOM      4  O   UNL     1       2.006  -2.371   4.100  0.00  0.00    -0.303 OA
ATOM      5  H   UNL     1       1.057  -2.588   4.047  0.00  0.00    +0.222 HD
ENDBRANCH   2   4
BRANCH   2   6
ATOM      6  O   UNL     1       4.276  -2.173   3.094  0.00  0.00    -0.303 OA
ATOM      7  H   UNL     1       4.892  -2.870   3.385  0.00  0.00    +0.222 HD
ENDBRANCH   2   6
ENDBRANCH   1   2
BRANCH   1   8
ATOM      8  C   UNL     1       2.862  -1.142   0.749  0.00  0.00    +0.211 C 
BRANCH   8   9
ATOM      9  C   UNL     1       2.413   0.235   0.241  0.00  0.00    +0.203 C 
BRANCH   9  10
ATOM     10  O   UNL     1       2.974   1.278   1.016  0.00  0.00    -0.382 OA
ATOM     11  H   UNL     1       3.919   1.319   0.807  0.00  0.00    +0.210 HD
ENDBRANCH   9  10
BRANCH   9  12
ATOM     12  C   UNL     1       2.841   0.361  -1.208  0.00  0.00    +0.256 C 
ATOM     13  O   UNL     1       3.908   0.891  -1.550  0.00  0.00    -0.298 OA
ENDBRANCH   9  12
ENDBRANCH   8   9
ENDBRANCH   1   8
TORSDOF 7
