REMARK  Name = 
REMARK  5 active torsions:
REMARK  status: ('A' for Active; 'I' for Inactive)
REMARK    1  A    between atoms: O_1  and  C_2
REMARK    2  A    between atoms: C_2  and  C_4
REMARK    3  A    between atoms: C_4  and  C_5
REMARK    4  A    between atoms: C_6  and  O_7
REMARK    5  A    between atoms: C_13  and  O_14
REMARK                            x       y       z     vdW  Elec       q    Type
REMARK                         _______ _______ _______ _____ _____    ______ ____
ROOT
ATOM      1  C   UNL     1       4.607   0.780  -0.723  0.00  0.00    +0.005 A 
ATOM      2  C   UNL     1       5.492   1.854  -0.580  0.00  0.00    +0.008 A 
ATOM      3  C   UNL     1       6.862   1.630  -0.405  0.00  0.00    +0.005 A 
ATOM      4  C   UNL     1       7.376   0.323  -0.362  0.00  0.00    -0.029 A 
ATOM      5  C   UNL     1       8.857   0.141  -0.165  0.00  0.00    +0.072 C 
ATOM      6  C   UNL     1       9.342  -1.280  -0.101  0.00  0.00    -0.029 A 
ATOM      7  C   UNL     1      10.718  -1.513   0.096  0.00  0.00    +0.005 A 
ATOM      8  C   UNL     1      11.215  -2.814   0.172  0.00  0.00    +0.004 A 
ATOM      9  C   UNL     1      10.353  -3.896   0.054  0.00  0.00    +0.046 A 
ATOM     10  C   UNL     1       8.988  -3.678  -0.144  0.00  0.00    +0.128 A 
ATOM     11  C   UNL     1       8.476  -2.373  -0.221  0.00  0.00    +0.067 A 
ATOM     12  C   UNL     1       7.024  -2.138  -0.410  0.00  0.00    +0.201 C 
ATOM     13  O   UNL     1       6.245  -3.090  -0.465  0.00  0.00    -0.286 OA
ATOM     14  C   UNL     1       6.500  -0.757  -0.504  0.00  0.00    +0.067 A 
ATOM     15  C   UNL     1       5.127  -0.522  -0.708  0.00  0.00    +0.132 A 
ENDROOT
BRANCH  10  16
ATOM     16  O   UNL     1       8.206  -4.802  -0.248  0.00  0.00    -0.506 OA
ATOM     17  H   UNL     1       7.280  -4.509  -0.363  0.00  0.00    +0.292 HD
ENDBRANCH  10  16
BRANCH  15  18
ATOM     18  O   UNL     1       4.227  -1.537  -0.925  0.00  0.00    -0.506 OA
ATOM     19  H   UNL     1       4.668  -2.380  -0.659  0.00  0.00    +0.292 HD
ENDBRANCH  15  18
BRANCH   1  20
ATOM     20  C   UNL     1       3.127   1.029  -0.888  0.00  0.00    +0.159 C 
BRANCH  20  21
ATOM     21  C   UNL     1       2.679   1.143  -2.327  0.00  0.00    +0.309 C 
ATOM     22  O   UNL     1       2.119   2.127  -2.785  0.00  0.00    -0.251 OA
BRANCH  21  23
ATOM     23  O   UNL     1       2.931   0.038  -3.070  0.00  0.00    -0.480 OA
ATOM     24  H   UNL     1       3.364  -0.670  -2.543  0.00  0.00    +0.295 HD
ENDBRANCH  21  23
ENDBRANCH  20  21
ENDBRANCH   1  20
TORSDOF 5
