REMARK  Name = 
REMARK  8 active torsions:
REMARK  status: ('A' for Active; 'I' for Inactive)
REMARK    1  A    between atoms: O_1  and  C_2
REMARK    2  A    between atoms: C_2  and  C_3
REMARK    3  A    between atoms: C_6  and  O_8
REMARK    4  A    between atoms: O_8  and  C_9
REMARK    5  A    between atoms: C_12  and  N_15
REMARK    6  A    between atoms: C_18  and  O_20
REMARK    7  A    between atoms: C_21  and  O_23
REMARK    8  A    between atoms: C_24  and  O_26
REMARK                            x       y       z     vdW  Elec       q    Type
REMARK                         _______ _______ _______ _____ _____    ______ ____
ROOT
ATOM      1  C   UNL     1       2.870   1.174   0.900  0.00  0.00    +0.179 C 
ATOM      2  C   UNL     1       2.478   2.515   0.267  0.00  0.00    +0.177 C 
ATOM      3  C   UNL     1       3.110   2.637  -1.124  0.00  0.00    +0.180 C 
ATOM      4  C   UNL     1       4.616   2.361  -1.094  0.00  0.00    +0.214 C 
ATOM      5  C   UNL     1       4.862   1.003  -0.398  0.00  0.00    +0.339 C 
ATOM      6  O   UNL     1       4.299   1.037   0.922  0.00  0.00    -0.331 OA
ENDROOT
BRANCH   2   7
ATOM      7  O   UNL     1       1.051   2.593   0.184  0.00  0.00    -0.386 OA
ATOM      8  H   UNL     1       0.821   2.915  -0.707  0.00  0.00    +0.210 HD
ENDBRANCH   2   7
BRANCH   3   9
ATOM      9  O   UNL     1       2.849   3.941  -1.661  0.00  0.00    -0.386 OA
ATOM     10  H   UNL     1       3.515   4.081  -2.366  0.00  0.00    +0.210 HD
ENDBRANCH   3   9
BRANCH   4  11
ATOM     11  O   UNL     1       5.085   2.411  -2.455  0.00  0.00    -0.383 OA
ATOM     12  H   UNL     1       5.057   1.513  -2.830  0.00  0.00    +0.210 HD
ENDBRANCH   4  11
BRANCH   1  13
ATOM     13  C   UNL     1       2.312   1.074   2.330  0.00  0.00    +0.190 C 
BRANCH  13  14
ATOM     14  O   UNL     1       2.554  -0.224   2.863  0.00  0.00    -0.392 OA
ATOM     15  H   UNL     1       2.211  -0.212   3.774  0.00  0.00    +0.210 HD
ENDBRANCH  13  14
ENDBRANCH   1  13
BRANCH   5  16
ATOM     16  O   UNL     1       6.276   0.767  -0.344  0.00  0.00    -0.461 OA
BRANCH  16  17
ATOM     17  C   UNL     1       6.643  -0.553  -0.376  0.00  0.00    +0.124 A 
ATOM     18  C   UNL     1       5.873  -1.606   0.125  0.00  0.00    +0.052 A 
ATOM     19  C   UNL     1       6.295  -2.929  -0.026  0.00  0.00    +0.088 A 
ATOM     20  C   UNL     1       7.512  -3.202  -0.665  0.00  0.00    +0.273 A 
ATOM     21  C   UNL     1       8.321  -2.149  -1.117  0.00  0.00    +0.088 A 
ATOM     22  C   UNL     1       7.885  -0.826  -0.963  0.00  0.00    +0.052 A 
BRANCH  20  23
ATOM     23  N   UNL     1       7.927  -4.597  -0.880  0.00  0.00    +0.080 N 
ATOM     24  O   UNL     1       7.169  -5.493  -0.478  0.00  0.00    +0.041 OA
ATOM     25  O   UNL     1       8.999  -4.798  -1.463  0.00  0.00    -0.576 OA
ENDBRANCH  20  23
ENDBRANCH  16  17
ENDBRANCH   5  16
TORSDOF 8
