REMARK  Name = 
REMARK  7 active torsions:
REMARK  status: ('A' for Active; 'I' for Inactive)
REMARK    1  A    between atoms: O_1  and  C_2
REMARK    2  A    between atoms: C_4  and  C_16
REMARK    3  A    between atoms: C_9  and  O_10
REMARK    4  A    between atoms: O_10  and  C_11
REMARK    5  A    between atoms: C_11  and  C_13
REMARK    6  A    between atoms: C_13  and  O_14
REMARK    7  A    between atoms: C_16  and  O_17
REMARK                            x       y       z     vdW  Elec       q    Type
REMARK                         _______ _______ _______ _____ _____    ______ ____
ROOT
ATOM      1  C   UNL     1       2.398   0.039   0.108  0.00  0.00    +0.198 C 
ATOM      2  C   UNL     1       2.928  -1.285  -0.416  0.00  0.00    +0.135 C 
ATOM      3  C   UNL     1       3.717  -1.351  -1.504  0.00  0.00    +0.044 C 
ATOM      4  C   UNL     1       4.143  -0.175  -2.220  0.00  0.00    -0.000 C 
ATOM      5  C   UNL     1       3.819   1.056  -1.808  0.00  0.00    -0.009 C 
ATOM      6  C   UNL     1       2.985   1.311  -0.571  0.00  0.00    +0.156 C 
ENDROOT
BRANCH   1   7
ATOM      7  O   UNL     1       0.972   0.019  -0.077  0.00  0.00    -0.383 OA
ATOM      8  H   UNL     1       0.614   0.786   0.407  0.00  0.00    +0.210 HD
ENDBRANCH   1   7
BRANCH   6   9
ATOM      9  C   UNL     1       3.683   2.127   0.515  0.00  0.00    +0.315 C 
ATOM     10  O   UNL     1       3.069   2.603   1.463  0.00  0.00    -0.250 OA
BRANCH   9  11
ATOM     11  O   UNL     1       5.018   2.289   0.399  0.00  0.00    -0.480 OA
ATOM     12  H   UNL     1       5.433   1.852  -0.368  0.00  0.00    +0.295 HD
ENDBRANCH   9  11
ENDBRANCH   6   9
BRANCH   2  13
ATOM     13  O   UNL     1       2.443  -2.393   0.274  0.00  0.00    -0.451 OA
BRANCH  13  14
ATOM     14  C   UNL     1       3.110  -3.609   0.350  0.00  0.00    +0.204 C 
ATOM     15  C   UNL     1       4.441  -3.759   0.457  0.00  0.00    +0.066 C 
BRANCH  14  16
ATOM     16  C   UNL     1       2.265  -4.842   0.439  0.00  0.00    +0.372 C 
ATOM     17  O   UNL     1       2.694  -5.980   0.541  0.00  0.00    -0.242 OA
BRANCH  16  18
ATOM     18  O   UNL     1       0.945  -4.550   0.399  0.00  0.00    -0.475 OA
ATOM     19  H   UNL     1       0.787  -3.587   0.313  0.00  0.00    +0.296 HD
ENDBRANCH  16  18
ENDBRANCH  14  16
ENDBRANCH  13  14
ENDBRANCH   2  13
TORSDOF 7
