REMARK  Name = 
REMARK  2 active torsions:
REMARK  status: ('A' for Active; 'I' for Inactive)
REMARK    1  A    between atoms: C_2  and  C_3
REMARK    2  A    between atoms: C_3  and  C_4
REMARK                            x       y       z     vdW  Elec       q    Type
REMARK                         _______ _______ _______ _____ _____    ______ ____
ROOT
ATOM      1  C   UNL     1       4.481  -0.525  -1.003  0.00  0.00    -0.041 A 
ATOM      2  C   UNL     1       5.313  -1.652  -0.936  0.00  0.00    +0.004 A 
ATOM      3  C   UNL     1       6.695  -1.504  -0.815  0.00  0.00    +0.000 A 
ATOM      4  C   UNL     1       7.259  -0.232  -0.767  0.00  0.00    +0.000 A 
ATOM      5  C   UNL     1       6.442   0.895  -0.844  0.00  0.00    +0.000 A 
ATOM      6  C   UNL     1       5.059   0.750  -0.963  0.00  0.00    +0.004 A 
ENDROOT
BRANCH   1   7
ATOM      7  C   UNL     1       2.993  -0.693  -1.158  0.00  0.00    +0.105 C 
BRANCH   7   9
ATOM      8  O   UNL     1       1.928  -1.746  -3.048  0.00  0.00    -0.301 OA
ATOM      9  C   UNL     1       2.593  -0.814  -2.605  0.00  0.00    +0.228 C 
ENDBRANCH   7   9
ENDBRANCH   1   7
TORSDOF 2
