REMARK  Name = 
REMARK  46 active torsions:
REMARK  status: ('A' for Active; 'I' for Inactive)
REMARK    1  A    between atoms: C_1  and  C_2
REMARK    2  A    between atoms: C_2  and  C_3
REMARK    3  A    between atoms: C_3  and  C_4
REMARK    4  A    between atoms: C_4  and  C_5
REMARK    5  A    between atoms: C_5  and  C_6
REMARK    6  A    between atoms: C_6  and  C_7
REMARK    7  A    between atoms: C_7  and  C_8
REMARK    8  A    between atoms: C_8  and  C_9
REMARK    9  A    between atoms: C_9  and  C_10
REMARK   10  A    between atoms: C_10  and  C_11
REMARK   11  A    between atoms: C_11  and  C_12
REMARK   12  A    between atoms: C_12  and  C_13
REMARK   13  A    between atoms: C_13  and  C_14
REMARK   14  A    between atoms: C_14  and  C_15
REMARK   15  A    between atoms: C_15  and  C_16
REMARK   16  A    between atoms: C_16  and  O_18
REMARK   17  A    between atoms: O_18  and  C_19
REMARK   18  A    between atoms: C_19  and  C_20
REMARK   19  A    between atoms: C_20  and  C_22
REMARK   20  A    between atoms: C_20  and  O_45
REMARK   21  A    between atoms: C_22  and  O_23
REMARK   22  A    between atoms: O_23  and  P_24
REMARK   23  A    between atoms: P_24  and  O_27
REMARK   24  A    between atoms: O_27  and  C_28
REMARK   25  A    between atoms: C_30  and  O_32
REMARK   26  A    between atoms: C_33  and  O_35
REMARK   27  A    between atoms: C_36  and  O_38
REMARK   28  A    between atoms: C_39  and  O_41
REMARK   29  A    between atoms: C_42  and  O_44
REMARK   30  A    between atoms: O_45  and  C_46
REMARK   31  A    between atoms: C_46  and  C_48
REMARK   32  A    between atoms: C_48  and  C_49
REMARK   33  A    between atoms: C_49  and  C_50
REMARK   34  A    between atoms: C_50  and  C_51
REMARK   35  A    between atoms: C_51  and  C_52
REMARK   36  A    between atoms: C_52  and  C_53
REMARK   37  A    between atoms: C_53  and  C_54
REMARK   38  A    between atoms: C_54  and  C_55
REMARK   39  A    between atoms: C_56  and  C_57
REMARK   40  A    between atoms: C_57  and  C_58
REMARK   41  A    between atoms: C_58  and  C_59
REMARK   42  A    between atoms: C_59  and  C_60
REMARK   43  A    between atoms: C_60  and  C_61
REMARK   44  A    between atoms: C_61  and  C_62
REMARK   45  A    between atoms: C_62  and  C_63
REMARK   46  A    between atoms: C_63  and  C_64
REMARK                            x       y       z     vdW  Elec       q    Type
REMARK                         _______ _______ _______ _____ _____    ______ ____
ROOT
ATOM      1  C   UNL     1       8.861  13.727  -1.573  0.00  0.00    +0.240 C 
ENDROOT
BRANCH   1   2
ATOM      2  C   UNL     1      10.350  13.604  -1.171  0.00  0.00    +0.216 C 
BRANCH   2   3
ATOM      3  O   UNL     1      11.300  13.146  -2.143  0.00  0.00    -0.324 OA
BRANCH   3   4
ATOM      4  P   UNL     1      10.911  12.627  -3.632  0.00  0.00    +0.213 P 
ATOM      5  O   UNL     1       9.951  13.605  -4.243  0.00  0.00    -0.437 OA
ATOM      6  O   UNL     1      10.771  11.136  -3.607  0.00  0.00    -0.517 OA
BRANCH   4   7
ATOM      7  O   UNL     1      12.301  12.940  -4.416  0.00  0.00    -0.319 OA
BRANCH   7   8
ATOM      8  C   UNL     1      12.455  14.261  -4.935  0.00  0.00    +0.188 C 
ATOM      9  C   UNL     1      13.562  14.910  -4.116  0.00  0.00    +0.177 C 
ATOM     10  C   UNL     1      13.956  16.260  -4.676  0.00  0.00    +0.177 C 
ATOM     11  C   UNL     1      14.195  16.246  -6.186  0.00  0.00    +0.176 C 
ATOM     12  C   UNL     1      12.997  15.654  -6.933  0.00  0.00    +0.177 C 
ATOM     13  C   UNL     1      12.706  14.226  -6.450  0.00  0.00    +0.177 C 
BRANCH  13  14
ATOM     14  O   UNL     1      11.559  13.771  -7.195  0.00  0.00    -0.386 OA
ATOM     15  H   UNL     1      11.119  13.084  -6.646  0.00  0.00    +0.210 HD
ENDBRANCH  13  14
BRANCH   9  16
ATOM     16  O   UNL     1      13.107  15.157  -2.768  0.00  0.00    -0.386 OA
ATOM     17  H   UNL     1      12.268  14.669  -2.649  0.00  0.00    +0.210 HD
ENDBRANCH   9  16
BRANCH  10  18
ATOM     18  O   UNL     1      15.160  16.681  -4.018  0.00  0.00    -0.386 OA
ATOM     19  H   UNL     1      15.411  17.491  -4.490  0.00  0.00    +0.210 HD
ENDBRANCH  10  18
BRANCH  11  20
ATOM     20  O   UNL     1      14.431  17.613  -6.578  0.00  0.00    -0.386 OA
ATOM     21  H   UNL     1      13.884  17.768  -7.371  0.00  0.00    +0.210 HD
ENDBRANCH  11  20
BRANCH  12  22
ATOM     22  O   UNL     1      13.247  15.671  -8.346  0.00  0.00    -0.386 OA
ATOM     23  H   UNL     1      12.540  15.102  -8.721  0.00  0.00    +0.210 HD
ENDBRANCH  12  22
ENDBRANCH   7   8
ENDBRANCH   4   7
ENDBRANCH   3   4
ENDBRANCH   2   3
ENDBRANCH   1   2
BRANCH   1  24
ATOM     24  C   UNL     1       8.173  14.909  -0.862  0.00  0.00    +0.279 C 
BRANCH  24  25
ATOM     25  O   UNL     1       8.888  16.118  -1.162  0.00  0.00    -0.461 OA
BRANCH  25  26
ATOM     26  C   UNL     1       8.641  16.647  -2.396  0.00  0.00    +0.307 C 
ATOM     27  O   UNL     1       7.615  16.482  -3.040  0.00  0.00    -0.251 OA
BRANCH  26  28
ATOM     28  C   UNL     1       9.828  17.464  -2.846  0.00  0.00    +0.120 C 
BRANCH  28  29
ATOM     29  C   UNL     1       9.436  18.884  -3.229  0.00  0.00    +0.011 C 
BRANCH  29  30
ATOM     30  C   UNL     1       8.843  19.655  -2.050  0.00  0.00    +0.001 C 
BRANCH  30  31
ATOM     31  C   UNL     1       8.475  21.078  -2.462  0.00  0.00    +0.000 C 
BRANCH  31  32
ATOM     32  C   UNL     1       7.846  21.840  -1.299  0.00  0.00    +0.000 C 
BRANCH  32  33
ATOM     33  C   UNL     1       7.473  23.257  -1.722  0.00  0.00    +0.000 C 
BRANCH  33  34
ATOM     34  C   UNL     1       6.843  24.024  -0.564  0.00  0.00    -0.000 C 
BRANCH  34  35
ATOM     35  C   UNL     1       6.472  25.442  -0.987  0.00  0.00    -0.000 C 
BRANCH  35  36
ATOM     36  C   UNL     1       5.842  26.207   0.173  0.00  0.00    -0.000 C 
BRANCH  36  37
ATOM     37  C   UNL     1       5.468  27.626  -0.245  0.00  0.00    -0.000 C 
BRANCH  37  38
ATOM     38  C   UNL     1       4.838  28.387   0.919  0.00  0.00    -0.000 C 
BRANCH  38  39
ATOM     39  C   UNL     1       4.465  29.809   0.506  0.00  0.00    -0.000 C 
BRANCH  39  40
ATOM     40  C   UNL     1       3.837  30.570   1.671  0.00  0.00    -0.000 C 
BRANCH  40  42
ATOM     41  C   UNL     1       2.837  32.752   2.420  0.00  0.00    +0.004 C 
ATOM     42  C   UNL     1       3.463  31.993   1.263  0.00  0.00    -0.003 C 
ENDBRANCH  40  42
ENDBRANCH  39  40
ENDBRANCH  38  39
ENDBRANCH  37  38
ENDBRANCH  36  37
ENDBRANCH  35  36
ENDBRANCH  34  35
ENDBRANCH  33  34
ENDBRANCH  32  33
ENDBRANCH  31  32
ENDBRANCH  30  31
ENDBRANCH  29  30
ENDBRANCH  28  29
ENDBRANCH  26  28
ENDBRANCH  25  26
ENDBRANCH  24  25
ENDBRANCH   1  24
BRANCH   1  43
ATOM     43  O   UNL     1       8.073  12.554  -1.306  0.00  0.00    -0.456 OA
BRANCH  43  44
ATOM     44  C   UNL     1       7.568  11.984  -2.439  0.00  0.00    +0.308 C 
ATOM     45  O   UNL     1       8.129  11.822  -3.506  0.00  0.00    -0.251 OA
BRANCH  44  46
ATOM     46  C   UNL     1       6.119  11.662  -2.311  0.00  0.00    +0.120 C 
BRANCH  46  47
ATOM     47  C   UNL     1       5.891  10.167  -2.421  0.00  0.00    +0.011 C 
BRANCH  47  48
ATOM     48  C   UNL     1       6.384   9.440  -1.175  0.00  0.00    +0.001 C 
BRANCH  48  49
ATOM     49  C   UNL     1       5.984   7.968  -1.228  0.00  0.00    +0.000 C 
BRANCH  49  50
ATOM     50  C   UNL     1       6.422   7.245   0.042  0.00  0.00    +0.000 C 
BRANCH  50  51
ATOM     51  C   UNL     1       5.990   5.791  -0.001  0.00  0.00    +0.004 C 
BRANCH  51  52
ATOM     52  C   UNL     1       6.406   5.067   1.274  0.00  0.00    +0.027 C 
BRANCH  52  53
ATOM     53  C   UNL     1       6.018   3.626   1.244  0.00  0.00    -0.031 C 
ATOM     54  C   UNL     1       6.892   2.616   1.276  0.00  0.00    -0.031 C 
BRANCH  54  55
ATOM     55  C   UNL     1       6.490   1.174   1.234  0.00  0.00    +0.027 C 
BRANCH  55  56
ATOM     56  C   UNL     1       6.918   0.459   2.514  0.00  0.00    +0.004 C 
BRANCH  56  57
ATOM     57  C   UNL     1       6.499  -1.010   2.484  0.00  0.00    +0.000 C 
BRANCH  57  58
ATOM     58  C   UNL     1       6.929  -1.730   3.760  0.00  0.00    +0.000 C 
BRANCH  58  59
ATOM     59  C   UNL     1       6.511  -3.200   3.729  0.00  0.00    -0.000 C 
BRANCH  59  60
ATOM     60  C   UNL     1       6.941  -3.920   5.006  0.00  0.00    -0.000 C 
BRANCH  60  61
ATOM     61  C   UNL     1       6.526  -5.390   4.980  0.00  0.00    -0.003 C 
ATOM     62  C   UNL     1       6.955  -6.110   6.248  0.00  0.00    +0.004 C 
ENDBRANCH  60  61
ENDBRANCH  59  60
ENDBRANCH  58  59
ENDBRANCH  57  58
ENDBRANCH  56  57
ENDBRANCH  55  56
ENDBRANCH  54  55
ENDBRANCH  52  53
ENDBRANCH  51  52
ENDBRANCH  50  51
ENDBRANCH  49  50
ENDBRANCH  48  49
ENDBRANCH  47  48
ENDBRANCH  46  47
ENDBRANCH  44  46
ENDBRANCH  43  44
ENDBRANCH   1  43
TORSDOF 44
