REMARK  Name = 
REMARK  6 active torsions:
REMARK  status: ('A' for Active; 'I' for Inactive)
REMARK    1  A    between atoms: C_7  and  C_13
REMARK    2  A    between atoms: C_13  and  O_15
REMARK    3  A    between atoms: C_13  and  C_16
REMARK    4  A    between atoms: C_16  and  O_18
REMARK    5  A    between atoms: C_16  and  C_19
REMARK    6  A    between atoms: C_19  and  O_20
REMARK                            x       y       z     vdW  Elec       q    Type
REMARK                         _______ _______ _______ _____ _____    ______ ____
ROOT
ATOM      1  N   UNL     1      10.979  -8.196  -0.533  0.00  0.00    -0.329 N 
ATOM      2  H   UNL     1      10.948  -8.611  -1.452  0.00  0.00    +0.145 HD
ATOM      3  H   UNL     1      10.626  -8.803   0.202  0.00  0.00    +0.145 HD
ATOM      4  C   UNL     1      10.583  -6.906  -0.386  0.00  0.00    +0.195 A 
ATOM      5  N   UNL     1      10.772  -6.083  -1.456  0.00  0.00    -0.293 N 
ATOM      6  H   UNL     1      11.214  -6.428  -2.295  0.00  0.00    +0.172 HD
ATOM      7  C   UNL     1      10.447  -4.743  -1.460  0.00  0.00    +0.280 A 
ATOM      8  O   UNL     1      10.641  -4.042  -2.447  0.00  0.00    -0.265 OA
ATOM      9  C   UNL     1       9.867  -4.225  -0.205  0.00  0.00    +0.172 A 
ATOM     10  C   UNL     1       9.702  -5.149   0.820  0.00  0.00    +0.187 A 
ATOM     11  N   UNL     1       9.209  -4.768   2.015  0.00  0.00    -0.232 NA
ATOM     12  C   UNL     1       8.916  -3.448   2.148  0.00  0.00    +0.139 A 
ATOM     13  C   UNL     1       9.082  -2.515   1.122  0.00  0.00    +0.091 A 
ATOM     14  N   UNL     1       9.561  -2.895  -0.095  0.00  0.00    -0.239 NA
ATOM     15  N   UNL     1      10.057  -6.503   0.719  0.00  0.00    -0.195 NA
ENDROOT
BRANCH  13  16
ATOM     16  C   UNL     1       8.835  -1.033   1.369  0.00  0.00    +0.195 C 
BRANCH  16  17
ATOM     17  O   UNL     1       9.270  -0.250   0.244  0.00  0.00    -0.383 OA
ATOM     18  H   UNL     1       9.899  -0.811  -0.255  0.00  0.00    +0.210 HD
ENDBRANCH  16  17
BRANCH  16  19
ATOM     19  C   UNL     1       7.394  -0.616   1.743  0.00  0.00    +0.174 C 
BRANCH  19  20
ATOM     20  O   UNL     1       6.964  -1.257   2.954  0.00  0.00    -0.387 OA
ATOM     21  H   UNL     1       6.191  -1.809   2.712  0.00  0.00    +0.210 HD
ENDBRANCH  19  20
BRANCH  19  22
ATOM     22  C   UNL     1       6.347  -0.829   0.643  0.00  0.00    +0.190 C 
BRANCH  22  23
ATOM     23  O   UNL     1       6.013  -2.213   0.548  0.00  0.00    -0.392 OA
ATOM     24  H   UNL     1       6.656  -2.620  -0.062  0.00  0.00    +0.210 HD
ENDBRANCH  22  23
ENDBRANCH  19  22
ENDBRANCH  16  19
ENDBRANCH  13  16
TORSDOF 6
