REMARK  Name = 
REMARK  5 active torsions:
REMARK  status: ('A' for Active; 'I' for Inactive)
REMARK    1  A    between atoms: O_1  and  C_2
REMARK    2  A    between atoms: C_2  and  C_3
REMARK    3  A    between atoms: C_6  and  O_8
REMARK    4  A    between atoms: C_9  and  O_11
REMARK    5  A    between atoms: C_12  and  O_14
REMARK                            x       y       z     vdW  Elec       q    Type
REMARK                         _______ _______ _______ _____ _____    ______ ____
ROOT
ATOM      1  C   UNL     1       2.918   0.053   1.507  0.00  0.00    +0.149 C 
ATOM      2  O   UNL     1       3.997   0.976   1.690  0.00  0.00    -0.343 OA
ATOM      3  C   UNL     1       5.029   0.792   0.725  0.00  0.00    +0.279 C 
ATOM      4  C   UNL     1       5.648  -0.610   0.868  0.00  0.00    +0.198 C 
ATOM      5  C   UNL     1       4.557  -1.679   0.770  0.00  0.00    +0.150 C 
ATOM      6  C   UNL     1       3.417  -1.378   1.735  0.00  0.00    +0.068 C 
ENDROOT
BRANCH   3   7
ATOM      7  O   UNL     1       6.033   1.784   0.917  0.00  0.00    -0.365 OA
ATOM      8  H   UNL     1       6.881   1.342   0.725  0.00  0.00    +0.213 HD
ENDBRANCH   3   7
BRANCH   4   9
ATOM      9  O   UNL     1       6.637  -0.821  -0.150  0.00  0.00    -0.384 OA
ATOM     10  H   UNL     1       6.783  -1.788  -0.165  0.00  0.00    +0.210 HD
ENDBRANCH   4   9
BRANCH   5  11
ATOM     11  O   UNL     1       5.144  -2.953   1.052  0.00  0.00    -0.389 OA
ATOM     12  H   UNL     1       4.421  -3.601   1.132  0.00  0.00    +0.210 HD
ENDBRANCH   5  11
BRANCH   1  13
ATOM     13  C   UNL     1       1.792   0.421   2.475  0.00  0.00    +0.187 C 
BRANCH  13  14
ATOM     14  O   UNL     1       0.681  -0.451   2.307  0.00  0.00    -0.392 OA
ATOM     15  H   UNL     1      -0.011  -0.142   2.919  0.00  0.00    +0.210 HD
ENDBRANCH  13  14
ENDBRANCH   1  13
TORSDOF 5
