REMARK  Name = 
REMARK  4 active torsions:
REMARK  status: ('A' for Active; 'I' for Inactive)
REMARK    1  A    between atoms: N_1  and  O_2
REMARK    2  A    between atoms: O_2  and  C_3
REMARK    3  A    between atoms: C_3  and  C_4
REMARK    4  A    between atoms: C_4  and  O_5
REMARK                            x       y       z     vdW  Elec       q    Type
REMARK                         _______ _______ _______ _____ _____    ______ ____
ROOT
ATOM      1  C   UNL     1       2.826   1.046   0.959  0.00  0.00    +0.305 C 
ENDROOT
BRANCH   1   2
ATOM      2  C   UNL     1       4.344   1.017   0.965  0.00  0.00    +0.333 C 
ATOM      3  O   UNL     1       5.033   1.650   1.754  0.00  0.00    -0.248 OA
BRANCH   2   4
ATOM      4  O   UNL     1       4.886   0.214   0.018  0.00  0.00    -0.479 OA
ATOM      5  H   UNL     1       4.187  -0.212  -0.520  0.00  0.00    +0.295 HD
ENDBRANCH   2   4
ENDBRANCH   1   2
BRANCH   1   6
ATOM      6  O   UNL     1       2.332   0.300  -0.160  0.00  0.00    -0.291 OA
BRANCH   6   7
ATOM      7  N   UNL     1       0.878   0.263  -0.085  0.00  0.00    -0.214 NA
ATOM      8  H   UNL     1       0.605   0.854  -0.874  0.00  0.00    +0.150 HD
ATOM      9  H   UNL     1       0.671  -0.697  -0.374  0.00  0.00    +0.150 HD
ENDBRANCH   6   7
ENDBRANCH   1   6
TORSDOF 4
