REMARK  Name = 
REMARK  8 active torsions:
REMARK  status: ('A' for Active; 'I' for Inactive)
REMARK    1  A    between atoms: C_1  and  N_2
REMARK    2  A    between atoms: C_3  and  C_4
REMARK    3  A    between atoms: C_4  and  C_5
REMARK    4  A    between atoms: C_5  and  C_6
REMARK    5  A    between atoms: C_6  and  O_7
REMARK    6  A    between atoms: C_8  and  C_9
REMARK    7  A    between atoms: C_9  and  O_10
REMARK    8  A    between atoms: C_16  and  N_17
REMARK                            x       y       z     vdW  Elec       q    Type
REMARK                         _______ _______ _______ _____ _____    ______ ____
ROOT
ATOM      1  C   UNL     1       1.064   0.002  -0.102  0.00  0.00    +0.149 C 
ATOM      2  N   UNL     1       2.514   0.016  -0.098  0.00  0.00    -0.343 N 
ATOM      3  C   UNL     1       3.281  -1.125  -0.082  0.00  0.00    +0.100 A 
ATOM      4  C   UNL     1       2.840  -2.494  -0.134  0.00  0.00    +0.205 C 
ATOM      5  C   UNL     1       3.877  -3.494   0.211  0.00  0.00    +0.080 C 
ATOM      6  C   UNL     1       5.173  -3.184   0.417  0.00  0.00    +0.081 C 
ATOM      7  C   UNL     1       5.666  -1.746   0.221  0.00  0.00    +0.209 C 
ATOM      8  O   UNL     1       6.854  -1.437   0.228  0.00  0.00    -0.285 OA
ATOM      9  O   UNL     1       1.696  -2.860  -0.377  0.00  0.00    -0.286 OA
ATOM     10  C   UNL     1       4.606  -0.757   0.061  0.00  0.00    +0.058 A 
ATOM     11  C   UNL     1       4.660   0.675   0.018  0.00  0.00    +0.010 A 
ATOM     12  C   UNL     1       3.337   1.125  -0.023  0.00  0.00    +0.025 A 
ENDROOT
BRANCH   6  13
ATOM     13  N   UNL     1       6.055  -4.095   1.000  0.00  0.00    -0.324 N 
ATOM     14  C   UNL     1       7.361  -4.363   0.421  0.00  0.00    +0.124 C 
ATOM     15  C   UNL     1       6.262  -5.405   0.400  0.00  0.00    +0.124 C 
ENDBRANCH   6  13
BRANCH  11  16
ATOM     16  C   UNL     1       5.891   1.531   0.087  0.00  0.00    +0.193 C 
BRANCH  16  17
ATOM     17  O   UNL     1       6.947   1.055  -0.737  0.00  0.00    -0.390 OA
ATOM     18  H   UNL     1       7.197   0.176  -0.384  0.00  0.00    +0.210 HD
ENDBRANCH  16  17
ENDBRANCH  11  16
BRANCH  12  19
ATOM     19  C   UNL     1       2.817   2.540   0.025  0.00  0.00    +0.056 C 
BRANCH  19  20
ATOM     20  C   UNL     1       2.548   2.984   1.469  0.00  0.00    +0.034 C 
BRANCH  20  21
ATOM     21  C   UNL     1       1.970   4.393   1.542  0.00  0.00    +0.156 C 
BRANCH  21  22
ATOM     22  O   UNL     1       2.855   5.337   0.957  0.00  0.00    -0.395 OA
ATOM     23  H   UNL     1       3.697   5.294   1.441  0.00  0.00    +0.209 HD
ENDBRANCH  21  22
ENDBRANCH  20  21
ENDBRANCH  19  20
ENDBRANCH  12  19
TORSDOF 7
