REMARK  Name = 
REMARK  9 active torsions:
REMARK  status: ('A' for Active; 'I' for Inactive)
REMARK    1  A    between atoms: O_1  and  C_2
REMARK    2  A    between atoms: C_2  and  C_3
REMARK    3  A    between atoms: C_6  and  O_8
REMARK    4  A    between atoms: O_8  and  P_9
REMARK    5  A    between atoms: P_9  and  O_10
REMARK    6  A    between atoms: P_9  and  O_11
REMARK    7  A    between atoms: C_13  and  O_15
REMARK    8  A    between atoms: C_16  and  O_18
REMARK    9  A    between atoms: C_19  and  O_21
REMARK                            x       y       z     vdW  Elec       q    Type
REMARK                         _______ _______ _______ _____ _____    ______ ____
ROOT
ATOM      1  C   UNL     1       2.901   1.005   0.913  0.00  0.00    +0.178 C 
ATOM      2  C   UNL     1       2.546   2.389   0.311  0.00  0.00    +0.177 C 
ATOM      3  C   UNL     1       3.210   2.617  -1.056  0.00  0.00    +0.179 C 
ATOM      4  C   UNL     1       4.696   2.271  -1.008  0.00  0.00    +0.202 C 
ATOM      5  C   UNL     1       4.849   0.838  -0.473  0.00  0.00    +0.293 C 
ATOM      6  O   UNL     1       4.309   0.725   0.848  0.00  0.00    -0.340 OA
ENDROOT
BRANCH   2   7
ATOM      7  O   UNL     1       1.135   2.616   0.171  0.00  0.00    -0.386 OA
ATOM      8  H   UNL     1       0.671   1.792   0.442  0.00  0.00    +0.210 HD
ENDBRANCH   2   7
BRANCH   3   9
ATOM      9  O   UNL     1       2.547   1.808  -2.040  0.00  0.00    -0.386 OA
ATOM     10  H   UNL     1       1.599   2.039  -1.950  0.00  0.00    +0.210 HD
ENDBRANCH   3   9
BRANCH   4  11
ATOM     11  O   UNL     1       5.382   3.204  -0.160  0.00  0.00    -0.384 OA
ATOM     12  H   UNL     1       6.240   2.789   0.063  0.00  0.00    +0.210 HD
ENDBRANCH   4  11
BRANCH   1  13
ATOM     13  C   UNL     1       2.093  -0.193   0.380  0.00  0.00    +0.190 C 
BRANCH  13  14
ATOM     14  O   UNL     1       0.692   0.039   0.489  0.00  0.00    -0.392 OA
ATOM     15  H   UNL     1       0.254  -0.774   0.171  0.00  0.00    +0.210 HD
ENDBRANCH  13  14
ENDBRANCH   1  13
BRANCH   5  16
ATOM     16  O   UNL     1       6.229   0.495  -0.430  0.00  0.00    -0.254 OA
BRANCH  16  17
ATOM     17  P   UNL     1       6.371  -1.147   0.095  0.00  0.00    +0.475 P 
ATOM     18  O   UNL     1       6.499  -2.617   0.565  0.00  0.00    -0.227 OA
BRANCH  17  19
ATOM     19  O   UNL     1       7.995  -0.953   0.062  0.00  0.00    -0.303 OA
ATOM     20  H   UNL     1       8.361  -1.834   0.285  0.00  0.00    +0.222 HD
ENDBRANCH  17  19
BRANCH  17  21
ATOM     21  O   UNL     1       6.269  -1.533  -1.495  0.00  0.00    -0.303 OA
ATOM     22  H   UNL     1       7.150  -1.404  -1.892  0.00  0.00    +0.222 HD
ENDBRANCH  17  21
ENDBRANCH  16  17
ENDBRANCH   5  16
TORSDOF 9
