REMARK  Name = 
REMARK  9 active torsions:
REMARK  status: ('A' for Active; 'I' for Inactive)
REMARK    1  A    between atoms: N_1  and  C_2
REMARK    2  A    between atoms: C_2  and  C_3
REMARK    3  A    between atoms: C_3  and  O_4
REMARK    4  A    between atoms: O_4  and  C_5
REMARK    5  A    between atoms: C_5  and  C_6
REMARK    6  A    between atoms: C_6  and  CA_7
REMARK    7  A    between atoms: CA_7  and  N_9
REMARK    8  A    between atoms: CA_7  and  C_10
REMARK    9  A    between atoms: C_10  and  O_11
REMARK                            x       y       z     vdW  Elec       q    Type
REMARK                         _______ _______ _______ _____ _____    ______ ____
ROOT
ATOM      1  C   UNL     1       6.421   2.297  -1.320  0.00  0.00    +0.058 C 
ENDROOT
BRANCH   1   2
ATOM      2  C   UNL     1       4.899   2.345  -1.329  0.00  0.00    +0.162 C 
BRANCH   2   3
ATOM      3  O   UNL     1       4.388   1.159  -0.725  0.00  0.00    -0.378 OA
BRANCH   3   4
ATOM      4  C   UNL     1       2.956   1.125  -0.767  0.00  0.00    +0.174 C 
BRANCH   4   5
ATOM      5  C   UNL     1       2.455  -0.150  -0.079  0.00  0.00    +0.105 C 
BRANCH   5   6
ATOM      6  N   UNL     1       2.937  -1.354  -0.765  0.00  0.00    -0.328 NA
ATOM      7  H   UNL     1       3.959  -1.311  -0.772  0.00  0.00    +0.118 HD
ATOM      8  H   UNL     1       2.694  -2.173  -0.210  0.00  0.00    +0.118 HD
ENDBRANCH   5   6
ENDBRANCH   4   5
ENDBRANCH   3   4
ENDBRANCH   2   3
ENDBRANCH   1   2
BRANCH   1   9
ATOM      9  CA  UNL     1       7.012   1.086  -2.052  0.00  0.00    +0.163 C 
BRANCH   9  10
ATOM     10  N   UNL     1       6.736   1.139  -3.521  0.00  0.00    -0.318 NA
ATOM     11  H1  UNL     1       7.061   0.250  -3.922  0.00  0.00    +0.119 HD
ATOM     12  H2  UNL     1       5.720   1.086  -3.642  0.00  0.00    +0.119 HD
ENDBRANCH   9  10
BRANCH   9  13
ATOM     13  C   UNL     1       8.537   1.104  -1.857  0.00  0.00    +0.322 C 
ATOM     14  OXT UNL     1       9.129   0.710  -0.866  0.00  0.00    -0.249 OA
BRANCH  13  15
ATOM     15  O   UNL     1       9.161   1.657  -2.932  0.00  0.00    -0.480 OA
ATOM     16  H   UNL     1       8.446   1.873  -3.581  0.00  0.00    +0.295 HD
ENDBRANCH  13  15
ENDBRANCH   9  13
ENDBRANCH   1   9
TORSDOF 9
