REMARK  Name = 
REMARK  13 active torsions:
REMARK  status: ('A' for Active; 'I' for Inactive)
REMARK    1  A    between atoms: C_1  and  C_2
REMARK    2  A    between atoms: C_2  and  C_4
REMARK    3  A    between atoms: C_2  and  C_13
REMARK    4  A    between atoms: C_4  and  C_5
REMARK    5  A    between atoms: C_5  and  C_6
REMARK    6  A    between atoms: N_8  and  C_9
REMARK    7  A    between atoms: C_9  and  C_10
REMARK    8  A    between atoms: C_10  and  O_11
REMARK    9  A    between atoms: C_21  and  O_23
REMARK   10  A    between atoms: C_28  and  O_30
REMARK   11  A    between atoms: C_33  and  C_34
REMARK   12  A    between atoms: C_38  and  O_40
REMARK   13  A    between atoms: C_41  and  C_42
REMARK                            x       y       z     vdW  Elec       q    Type
REMARK                         _______ _______ _______ _____ _____    ______ ____
ROOT
ATOM      1  C   UNL     1      -0.000  -0.000  -0.000  0.00  0.00    +0.001 C 
ATOM      2  C   UNL     1      -0.000  -0.000  -0.000  0.00  0.00    +0.000 C 
ATOM      3  C   UNL     1      -0.000  -0.000  -0.000  0.00  0.00    +0.014 C 
ATOM      4  C   UNL     1      -0.000  -0.000  -0.000  0.00  0.00    +0.003 C 
ATOM      5  C   UNL     1      -0.000  -0.000  -0.000  0.00  0.00    +0.025 C 
ATOM      6  C   UNL     1       0.000   0.000  -0.000  0.00  0.00    +0.003 C 
ATOM      7  C   UNL     1      -0.000  -0.000  -0.000  0.00  0.00    +0.036 C 
ATOM      8  C   UNL     1      -0.000  -0.000  -0.000  0.00  0.00    -0.026 C 
ATOM      9  C   UNL     1      -0.000   0.000   0.000  0.00  0.00    +0.012 C 
ATOM     10  C   UNL     1      -0.000  -0.000  -0.000  0.00  0.00    +0.000 C 
ATOM     11  C   UNL     1      -0.000  -0.000  -0.000  0.00  0.00    +0.035 C 
ATOM     12  C   UNL     1      -0.000  -0.000  -0.000  0.00  0.00    +0.115 C 
ATOM     13  C   UNL     1      -0.000  -0.000  -0.000  0.00  0.00    +0.032 C 
ATOM     14  C   UNL     1      -0.000  -0.000  -0.000  0.00  0.00    +0.035 C 
ATOM     15  C   UNL     1      -0.000  -0.000  -0.000  0.00  0.00    +0.010 C 
ATOM     16  C   UNL     1      -0.000  -0.000  -0.000  0.00  0.00    +0.118 C 
ATOM     17  C   UNL     1      -0.000  -0.000  -0.000  0.00  0.00    +0.005 C 
ATOM     18  C   UNL     1      -0.000  -0.000  -0.000  0.00  0.00    +0.121 C 
ATOM     19  C   UNL     1      -0.000  -0.000  -0.000  0.00  0.00    +0.005 C 
ENDROOT
BRANCH   1  21
ATOM     20  C   UNL     1      -0.000  -0.000  -0.000  0.00  0.00    +0.008 C 
ATOM     21  C   UNL     1      -0.000  -0.000  -0.000  0.00  0.00    -0.010 C 
BRANCH  21  22
ATOM     22  C   UNL     1      -0.000  -0.000  -0.000  0.00  0.00    +0.013 C 
BRANCH  22  23
ATOM     23  C   UNL     1      -0.000  -0.000  -0.000  0.00  0.00    +0.096 C 
BRANCH  23  24
ATOM     24  C   UNL     1      -0.000  -0.000  -0.000  0.00  0.00    +0.213 C 
ATOM     25  N   UNL     1      -0.000  -0.000  -0.000  0.00  0.00    -0.305 N 
ATOM     26  H   UNL     1      -0.000  -0.000  -0.000  0.00  0.00    +0.149 HD
ATOM     27  O   UNL     1      -0.000  -0.000  -0.000  0.00  0.00    -0.276 OA
BRANCH  25  28
ATOM     28  C   UNL     1      -0.000  -0.000  -0.000  0.00  0.00    +0.224 C 
BRANCH  28  29
ATOM     29  C   UNL     1      -0.000  -0.000  -0.000  0.00  0.00    +0.322 C 
ATOM     30  O   UNL     1      -0.000  -0.000  -0.000  0.00  0.00    -0.249 OA
BRANCH  29  31
ATOM     31  O   UNL     1      -0.000  -0.000  -0.000  0.00  0.00    -0.480 OA
ATOM     32  H   UNL     1      -0.000  -0.000  -0.000  0.00  0.00    +0.295 HD
ENDBRANCH  29  31
ENDBRANCH  28  29
ENDBRANCH  25  28
ENDBRANCH  23  24
ENDBRANCH  22  23
ENDBRANCH  21  22
ENDBRANCH   1  21
BRANCH  12  33
ATOM     33  O   UNL     1      -0.000  -0.000  -0.000  0.00  0.00    -0.392 OA
ATOM     34  H   UNL     1       0.000   0.000   0.000  0.00  0.00    +0.210 HD
ENDBRANCH  12  33
BRANCH  16  35
ATOM     35  O   UNL     1      -0.000  -0.000  -0.000  0.00  0.00    -0.391 OA
ATOM     36  H   UNL     1       0.000   0.000   0.000  0.00  0.00    +0.210 HD
ENDBRANCH  16  35
BRANCH  18  37
ATOM     37  O   UNL     1      -0.000  -0.000  -0.000  0.00  0.00    -0.391 OA
ATOM     38  H   UNL     1       0.000   0.000   0.000  0.00  0.00    +0.210 HD
ENDBRANCH  18  37
TORSDOF 10
