REMARK  Name = 
REMARK  14 active torsions:
REMARK  status: ('A' for Active; 'I' for Inactive)
REMARK    1  A    between atoms: O_1  and  C_2
REMARK    2  A    between atoms: C_2  and  C_4
REMARK    3  A    between atoms: C_2  and  C_10
REMARK    4  A    between atoms: C_4  and  O_5
REMARK    5  A    between atoms: O_5  and  P_6
REMARK    6  A    between atoms: P_6  and  O_7
REMARK    7  A    between atoms: P_6  and  O_8
REMARK    8  A    between atoms: C_10  and  O_12
REMARK    9  A    between atoms: C_10  and  C_13
REMARK   10  A    between atoms: C_13  and  O_15
REMARK   11  A    between atoms: C_13  and  C_16
REMARK   12  A    between atoms: C_16  and  O_18
REMARK   13  A    between atoms: C_16  and  C_19
REMARK   14  A    between atoms: C_19  and  O_20
REMARK                            x       y       z     vdW  Elec       q    Type
REMARK                         _______ _______ _______ _____ _____    ______ ____
ROOT
ATOM      1  C   UNL     1       4.937   0.053   1.240  0.00  0.00    +0.177 C 
ENDROOT
BRANCH   1   2
ATOM      2  O   UNL     1       3.749  -0.205   2.037  0.00  0.00    -0.386 OA
ATOM      3  H   UNL     1       3.816  -1.119   2.368  0.00  0.00    +0.210 HD
ENDBRANCH   1   2
BRANCH   1   4
ATOM      4  C   UNL     1       5.180  -1.232   0.414  0.00  0.00    +0.172 C 
BRANCH   4   5
ATOM      5  O   UNL     1       5.312  -2.346   1.337  0.00  0.00    -0.387 OA
ATOM      6  H   UNL     1       5.835  -2.042   2.118  0.00  0.00    +0.210 HD
ENDBRANCH   4   5
BRANCH   4   7
ATOM      7  C   UNL     1       6.383  -1.264  -0.534  0.00  0.00    +0.206 C 
BRANCH   7   8
ATOM      8  O   UNL     1       7.601  -0.889   0.083  0.00  0.00    -0.284 OA
BRANCH   8   9
ATOM      9  P   UNL     1       8.218  -1.847   1.211  0.00  0.00    +0.472 P 
ATOM     10  O   UNL     1       7.587  -1.726   2.557  0.00  0.00    -0.228 OA
BRANCH   9  11
ATOM     11  O   UNL     1       9.781  -1.554   1.154  0.00  0.00    -0.303 OA
ATOM     12  H   UNL     1      10.007  -0.708   1.580  0.00  0.00    +0.222 HD
ENDBRANCH   9  11
BRANCH   9  13
ATOM     13  O   UNL     1       8.087  -3.311   0.591  0.00  0.00    -0.303 OA
ATOM     14  H   UNL     1       7.202  -3.683   0.774  0.00  0.00    +0.222 HD
ENDBRANCH   9  13
ENDBRANCH   8   9
ENDBRANCH   7   8
ENDBRANCH   4   7
ENDBRANCH   1   4
BRANCH   1  15
ATOM     15  C   UNL     1       4.695   1.383   0.489  0.00  0.00    +0.185 C 
BRANCH  15  16
ATOM     16  O   UNL     1       3.602   1.242  -0.455  0.00  0.00    -0.386 OA
ATOM     17  H   UNL     1       2.787   1.438   0.048  0.00  0.00    +0.210 HD
ENDBRANCH  15  16
BRANCH  15  18
ATOM     18  C   UNL     1       5.858   1.951  -0.328  0.00  0.00    +0.254 C 
BRANCH  18  19
ATOM     19  C   UNL     1       7.163   2.140   0.435  0.00  0.00    +0.336 C 
ATOM     20  O   UNL     1       7.387   1.817   1.588  0.00  0.00    -0.248 OA
BRANCH  19  21
ATOM     21  O   UNL     1       8.121   2.691  -0.357  0.00  0.00    -0.479 OA
ATOM     22  H   UNL     1       7.737   2.957  -1.221  0.00  0.00    +0.295 HD
ENDBRANCH  19  21
ENDBRANCH  18  19
BRANCH  18  23
ATOM     23  O   UNL     1       5.470   3.192  -0.948  0.00  0.00    -0.378 OA
ATOM     24  H   UNL     1       4.563   3.037  -1.286  0.00  0.00    +0.211 HD
ENDBRANCH  18  23
ENDBRANCH  15  18
ENDBRANCH   1  15
TORSDOF 14
