REMARK  Name = 
REMARK  7 active torsions:
REMARK  status: ('A' for Active; 'I' for Inactive)
REMARK    1  A    between atoms: O_1  and  B_2
REMARK    2  A    between atoms: B_2  and  O_3
REMARK    3  A    between atoms: B_2  and  C_4
REMARK    4  A    between atoms: C_7  and  C_10
REMARK    5  A    between atoms: C_13  and  B_16
REMARK    6  A    between atoms: B_16  and  O_17
REMARK    7  A    between atoms: B_16  and  O_18
REMARK                            x       y       z     vdW  Elec       q    Type
REMARK                         _______ _______ _______ _____ _____    ______ ____
ROOT
ATOM      1  C   UNL     1       3.326  -1.247   0.398  0.00  0.00    +0.000 A 
ATOM      2  C   UNL     1       2.698  -2.492   0.311  0.00  0.00    +0.000 A 
ATOM      3  C   UNL     1       3.443  -3.674   0.388  0.00  0.00    +0.000 A 
ATOM      4  C   UNL     1       4.850  -3.651   0.559  0.00  0.00    +0.000 A 
ATOM      5  C   UNL     1       5.457  -2.377   0.669  0.00  0.00    +0.000 A 
ATOM      6  C   UNL     1       4.710  -1.199   0.589  0.00  0.00    +0.000 A 
ENDROOT
BRANCH   4   7
ATOM      7  C   UNL     1       5.673  -4.926   0.564  0.00  0.00    +0.000 A 
ATOM      8  C   UNL     1       5.074  -6.197   0.382  0.00  0.00    +0.000 A 
ATOM      9  C   UNL     1       5.844  -7.359   0.296  0.00  0.00    +0.000 A 
ATOM     10  C   UNL     1       7.236  -7.298   0.399  0.00  0.00    +0.000 A 
ATOM     11  C   UNL     1       7.848  -6.062   0.621  0.00  0.00    +0.000 A 
ATOM     12  C   UNL     1       7.084  -4.896   0.700  0.00  0.00    +0.000 A 
BRANCH  10  13
ATOM     13  B   UNL     1       8.112  -8.598   0.237  0.00  0.00    +0.000 B 
BRANCH  13  14
ATOM     14  O   UNL     1       7.497  -9.852  -0.201  0.00  0.00    +0.000 OA
ATOM     15  H   UNL     1       6.905 -10.131   0.541  0.00  0.00    +0.000 HD
ENDBRANCH  13  14
BRANCH  13  16
ATOM     16  O   UNL     1       9.569  -8.514   0.342  0.00  0.00    +0.000 OA
ATOM     17  H   UNL     1       9.856  -8.070  -0.496  0.00  0.00    +0.000 HD
ENDBRANCH  13  16
ENDBRANCH  10  13
ENDBRANCH   4   7
BRANCH   1  18
ATOM     18  B   UNL     1       2.493   0.085   0.263  0.00  0.00    +0.000 B 
BRANCH  18  19
ATOM     19  O   UNL     1       3.164   1.384   0.326  0.00  0.00    +0.000 OA
ATOM     20  H   UNL     1       2.686   1.959  -0.325  0.00  0.00    +0.000 HD
ENDBRANCH  18  19
BRANCH  18  21
ATOM     21  O   UNL     1       1.053   0.030   0.007  0.00  0.00    +0.000 OA
ATOM     22  H   UNL     1       0.646   0.566   0.734  0.00  0.00    +0.000 HD
ENDBRANCH  18  21
ENDBRANCH   1  18
TORSDOF 7
