REMARK  Name = 
REMARK  9 active torsions:
REMARK  status: ('A' for Active; 'I' for Inactive)
REMARK    1  A    between atoms: C_2  and  C_3
REMARK    2  A    between atoms: C_2  and  C_10
REMARK    3  A    between atoms: C_2  and  C_13
REMARK    4  A    between atoms: C_3  and  C_4
REMARK    5  A    between atoms: C_10  and  O_11
REMARK    6  A    between atoms: C_13  and  C_15
REMARK    7  A    between atoms: C_13  and  C_25
REMARK    8  A    between atoms: C_15  and  C_16
REMARK    9  A    between atoms: C_25  and  O_26
REMARK                            x       y       z     vdW  Elec       q    Type
REMARK                         _______ _______ _______ _____ _____    ______ ____
ROOT
ATOM      1  C   UNL     1       2.746   0.239   1.578  0.00  0.00    +0.116 C 
ENDROOT
BRANCH   1   2
ATOM      2  C   UNL     1       4.258   0.379   1.720  0.00  0.00    +0.309 C 
ATOM      3  O   UNL     1       4.818   0.679   2.765  0.00  0.00    -0.251 OA
BRANCH   2   4
ATOM      4  O   UNL     1       4.939   0.238   0.563  0.00  0.00    -0.480 OA
ATOM      5  H   UNL     1       4.382   0.275  -0.251  0.00  0.00    +0.295 HD
ENDBRANCH   2   4
ENDBRANCH   1   2
BRANCH   1   6
ATOM      6  C   UNL     1       2.151   1.647   1.290  0.00  0.00    +0.116 C 
BRANCH   6   7
ATOM      7  C   UNL     1       2.906   2.315   0.157  0.00  0.00    +0.309 C 
ATOM      8  O   UNL     1       3.274   1.714  -0.845  0.00  0.00    -0.251 OA
BRANCH   7   9
ATOM      9  O   UNL     1       3.185   3.618   0.361  0.00  0.00    -0.480 OA
ATOM     10  H   UNL     1       2.955   3.973   1.240  0.00  0.00    +0.295 HD
ENDBRANCH   7   9
ENDBRANCH   6   7
BRANCH   6  11
ATOM     11  C   UNL     1       0.637   1.702   0.995  0.00  0.00    +0.050 C 
BRANCH  11  12
ATOM     12  C   UNL     1       0.140   0.983  -0.239  0.00  0.00    -0.047 A 
ATOM     13  C   UNL     1      -0.004   1.670  -1.455  0.00  0.00    +0.003 A 
ATOM     14  C   UNL     1      -0.503   1.021  -2.588  0.00  0.00    +0.000 A 
ATOM     15  C   UNL     1      -0.855  -0.324  -2.525  0.00  0.00    +0.000 A 
ATOM     16  C   UNL     1      -0.714  -1.020  -1.326  0.00  0.00    +0.000 A 
ATOM     17  C   UNL     1      -0.225  -0.369  -0.191  0.00  0.00    +0.003 A 
ENDBRANCH  11  12
ENDBRANCH   6  11
ENDBRANCH   1   6
BRANCH   1  18
ATOM     18  C   UNL     1       2.171  -0.355   2.886  0.00  0.00    +0.050 C 
BRANCH  18  19
ATOM     19  C   UNL     1       2.569  -1.782   3.205  0.00  0.00    -0.043 A 
ATOM     20  C   UNL     1       3.618  -2.039   4.120  0.00  0.00    +0.007 A 
ATOM     21  C   UNL     1       3.937  -3.345   4.511  0.00  0.00    +0.050 A 
ATOM     22  C   UNL     1       3.200  -4.373   3.972  0.00  0.00    +0.166 A 
ATOM     23  O   UNL     1       3.349  -5.695   4.256  0.00  0.00    -0.453 OA
ATOM     24  C   UNL     1       2.347  -6.271   3.394  0.00  0.00    +0.466 C 
ATOM     25  O   UNL     1       1.587  -5.287   2.660  0.00  0.00    -0.453 OA
ATOM     26  C   UNL     1       2.195  -4.139   3.064  0.00  0.00    +0.166 A 
ATOM     27  C   UNL     1       1.858  -2.862   2.658  0.00  0.00    +0.053 A 
ENDBRANCH  18  19
ENDBRANCH   1  18
TORSDOF 9
