REMARK  Name = 
REMARK  16 active torsions:
REMARK  status: ('A' for Active; 'I' for Inactive)
REMARK    1  A    between atoms: C_1  and  O_2
REMARK    2  A    between atoms: O_2  and  C_3
REMARK    3  A    between atoms: C_7  and  O_8
REMARK    4  A    between atoms: O_8  and  C_9
REMARK    5  A    between atoms: C_10  and  C_11
REMARK    6  A    between atoms: N_13  and  C_14
REMARK    7  A    between atoms: C_14  and  C_16
REMARK    8  A    between atoms: C_14  and  C_28
REMARK    9  A    between atoms: C_19  and  C_21
REMARK   10  A    between atoms: C_24  and  C_25
REMARK   11  A    between atoms: C_24  and  C_26
REMARK   12  A    between atoms: C_28  and  O_30
REMARK   13  A    between atoms: O_30  and  C_31
REMARK   14  A    between atoms: C_31  and  C_32
REMARK   15  A    between atoms: C_32  and  N_34
REMARK   16  A    between atoms: C_32  and  C_35
REMARK                            x       y       z     vdW  Elec       q    Type
REMARK                         _______ _______ _______ _____ _____    ______ ____
ROOT
ATOM      1  C   UNK A   0      -2.362  -2.402  -2.880  0.00  0.00    +0.209 C 
ENDROOT
BRANCH   1   2
ATOM      2  C   UNK A   0      -1.135  -2.780  -1.997  0.00  0.00    +0.144 C 
ATOM      3  S   UNK A   0      -0.721  -1.469  -0.777  0.00  0.00    -0.131 S 
ATOM      4  C   UNK A   1      -1.589  -2.310   0.619  0.00  0.00    +0.033 C 
ATOM      5  C   UNK A   1      -2.806  -1.456   0.988  0.00  0.00    +0.024 C 
ATOM      6  C   UNK A   1      -0.619  -2.352   1.811  0.00  0.00    +0.024 C 
ATOM      7  C   UNK A   1      -1.883  -3.739   0.100  0.00  0.00    +0.116 C 
ATOM      8  N   UNK A   1      -1.138  -3.998  -1.188  0.00  0.00    -0.294 NA
ATOM      9  H   UNK A   1      -0.173  -4.182  -0.924  0.00  0.00    +0.124 HD
BRANCH   7  10
ATOM     10  C   UNK A   1      -3.362  -4.254   0.089  0.00  0.00    +0.060 C 
ATOM     11  O   UNK A   1      -3.771  -4.815  -0.963  0.00  0.00    -0.548 OA
ATOM     12  O   UNK A   1      -3.965  -4.110   1.198  0.00  0.00    -0.548 OA
ENDBRANCH   7  10
ENDBRANCH   1   2
BRANCH   1  14
ATOM     13  C   UNK A   0      -2.756  -0.061  -3.774  0.00  0.00    +0.252 C 
ATOM     14  N   UNK A   0      -2.032  -1.232  -3.771  0.00  0.00    -0.296 N 
ATOM     15  H   UNK A   0      -1.415  -1.425  -4.555  0.00  0.00    +0.150 HD
ATOM     16  O   UNK A   0      -3.661   0.101  -2.963  0.00  0.00    -0.270 OA
BRANCH  13  18
ATOM     17  C   UNK A   0      -1.448   0.836  -5.803  0.00  0.00    +0.136 A 
ATOM     18  C   UNK A   0      -2.386   1.029  -4.758  0.00  0.00    +0.120 A 
ATOM     19  C   UNK A   0      -2.987   2.321  -4.684  0.00  0.00    +0.136 A 
ATOM     20  C   UNK A   0      -2.620   3.345  -5.579  0.00  0.00    +0.046 A 
ATOM     21  C   UNK A   0      -1.629   3.152  -6.525  0.00  0.00    +0.007 A 
ATOM     22  C   UNK A   0      -1.036   1.905  -6.632  0.00  0.00    +0.046 A 
BRANCH  17  24
ATOM     23  C   UNK A   0      -0.988  -0.770  -7.445  0.00  0.00    +0.277 C 
ATOM     24  O   UNK A   0      -0.929  -0.418  -6.052  0.00  0.00    -0.494 OA
ENDBRANCH  17  24
BRANCH  19  25
ATOM     25  O   UNK A   0      -4.076   2.673  -3.917  0.00  0.00    -0.494 OA
ATOM     26  C   UNK A   0      -3.853   2.729  -2.510  0.00  0.00    +0.277 C 
ENDBRANCH  19  25
ENDBRANCH  13  18
ENDBRANCH   1  14
BRANCH   1  27
ATOM     27  C   UNK A   1      -2.721  -3.532  -3.855  0.00  0.00    +0.330 C 
ATOM     28  O   UNK A   1      -1.964  -3.901  -4.754  0.00  0.00    -0.249 OA
BRANCH  27  29
ATOM     29  O   UNK A   1      -4.028  -3.881  -3.727  0.00  0.00    -0.461 OA
BRANCH  29  30
ATOM     30  C   UNK A   1      -4.612  -4.775  -4.705  0.00  0.00    +0.256 C 
BRANCH  30  31
ATOM     31  C   UNK A   1      -4.577  -6.237  -4.261  0.00  0.00    +0.135 C 
BRANCH  31  32
ATOM     32  C   UNK A   1      -5.139  -7.179  -5.390  0.00  0.00    +0.062 C 
ATOM     33  O   UNK A   1      -5.087  -8.424  -5.129  0.00  0.00    -0.548 OA
ATOM     34  O   UNK A   1      -5.544  -6.626  -6.457  0.00  0.00    -0.548 OA
ENDBRANCH  31  32
BRANCH  31  35
ATOM     35  N   UNK A   1      -5.348  -6.443  -2.995  0.00  0.00    -0.320 NA
ATOM     36  H   UNK A   1      -5.222  -7.426  -2.751  0.00  0.00    +0.119 HD
ATOM     37  H   UNK A   1      -4.860  -5.900  -2.254  0.00  0.00    +0.119 HD
ENDBRANCH  31  35
ENDBRANCH  30  31
ENDBRANCH  29  30
ENDBRANCH  27  29
ENDBRANCH   1  27
TORSDOF 12
