REMARK  Name = 
REMARK  4 active torsions:
REMARK  status: ('A' for Active; 'I' for Inactive)
REMARK    1  A    between atoms: C_1  and  C_2
REMARK    2  A    between atoms: C_3  and  C_4
REMARK    3  A    between atoms: C_4  and  C_6
REMARK    4  A    between atoms: C_6  and  O_7
REMARK                            x       y       z     vdW  Elec       q    Type
REMARK                         _______ _______ _______ _____ _____    ______ ____
ROOT
ATOM      1  C   UNL     1       4.802   1.031  -0.594  0.00  0.00    +0.262 C 
ATOM      2  O   UNL     1       5.499   0.190  -0.036  0.00  0.00    -0.280 OA
ENDROOT
BRANCH   1   5
ATOM      3  C   UNL     1       1.126   0.057   0.053  0.00  0.00    +0.035 C 
ATOM      4  C   UNL     1       2.619   0.087   0.033  0.00  0.00    -0.026 C 
ATOM      5  C   UNL     1       3.319   1.041  -0.601  0.00  0.00    +0.054 C 
ENDBRANCH   1   5
BRANCH   1   6
ATOM      6  C   UNL     1       5.515   2.160  -1.344  0.00  0.00    +0.377 C 
ATOM      7  O   UNL     1       4.939   3.050  -1.936  0.00  0.00    -0.241 OA
BRANCH   6   8
ATOM      8  O   UNL     1       6.852   2.014  -1.248  0.00  0.00    -0.475 OA
ATOM      9  H   UNL     1       7.049   1.209  -0.712  0.00  0.00    +0.296 HD
ENDBRANCH   6   8
ENDBRANCH   1   6
TORSDOF 3
