REMARK  Name = 
REMARK  5 active torsions:
REMARK  status: ('A' for Active; 'I' for Inactive)
REMARK    1  A    between atoms: N_1  and  CA_2
REMARK    2  A    between atoms: CA_2  and  C_4
REMARK    3  A    between atoms: CA_2  and  C_7
REMARK    4  A    between atoms: C_4  and  O_5
REMARK    5  A    between atoms: C_10  and  O_11
REMARK                            x       y       z     vdW  Elec       q    Type
REMARK                         _______ _______ _______ _____ _____    ______ ____
ROOT
ATOM      1  CA  UNL     1       2.609   0.001   0.064  0.00  0.00    +0.191 C 
ENDROOT
BRANCH   1   2
ATOM      2  C   UNL     1       2.962  -0.266  -1.392  0.00  0.00    -0.020 A 
ATOM      3  C   UNL     1       2.880  -1.547  -1.961  0.00  0.00    +0.009 A 
ATOM      4  C   UNL     1       3.165  -1.746  -3.313  0.00  0.00    +0.046 A 
ATOM      5  C   UNL     1       3.522  -0.666  -4.111  0.00  0.00    +0.117 A 
ATOM      6  C   UNL     1       3.608   0.613  -3.577  0.00  0.00    +0.046 A 
ATOM      7  C   UNL     1       3.328   0.812  -2.221  0.00  0.00    +0.009 A 
BRANCH   5   8
ATOM      8  O   UNL     1       3.777  -0.907  -5.427  0.00  0.00    -0.507 OA
ATOM      9  H   UNL     1       4.008  -0.070  -5.862  0.00  0.00    +0.292 HD
ENDBRANCH   5   8
ENDBRANCH   1   2
BRANCH   1  10
ATOM     10  N   UNL     1       3.121  -1.054   0.967  0.00  0.00    -0.315 NA
ATOM     11  H1  UNL     1       2.912  -0.753   1.924  0.00  0.00    +0.119 HD
ATOM     12  H2  UNL     1       2.552  -1.892   0.849  0.00  0.00    +0.119 HD
ENDBRANCH   1  10
BRANCH   1  13
ATOM     13  C   UNL     1       1.104   0.232   0.348  0.00  0.00    +0.326 C 
ATOM     14  OXT UNL     1       0.666   0.349   1.490  0.00  0.00    -0.249 OA
BRANCH  13  15
ATOM     15  O   UNL     1       0.278   0.291  -0.720  0.00  0.00    -0.479 OA
ATOM     16  H   UNL     1       0.705   0.141  -1.586  0.00  0.00    +0.295 HD
ENDBRANCH  13  15
ENDBRANCH   1  13
TORSDOF 5
