REMARK  Name = 
REMARK  16 active torsions:
REMARK  status: ('A' for Active; 'I' for Inactive)
REMARK    1  A    between atoms: C_1  and  C_2
REMARK    2  A    between atoms: C_2  and  N_4
REMARK    3  A    between atoms: C_2  and  C_30
REMARK    4  A    between atoms: C_5  and  CA_7
REMARK    5  A    between atoms: CA_7  and  CB_9
REMARK    6  A    between atoms: CA_7  and  N_10
REMARK    7  A    between atoms: C_11  and  C_13
REMARK    8  A    between atoms: C_13  and  C_14
REMARK    9  A    between atoms: C_14  and  C_15
REMARK   10  A    between atoms: C_15  and  C_16
REMARK   11  A    between atoms: C_16  and  C_17
REMARK   12  A    between atoms: C_17  and  N_19
REMARK   13  A    between atoms: C_17  and  C_27
REMARK   14  A    between atoms: C_20  and  CA_22
REMARK   15  A    between atoms: CA_22  and  N_23
REMARK   16  A    between atoms: C_30  and  O_31
REMARK                            x       y       z     vdW  Elec       q    Type
REMARK                         _______ _______ _______ _____ _____    ______ ____
ROOT
ATOM      1  C   UNK A   0       2.541   5.866  -4.388  0.00  0.00    +0.096 C 
ENDROOT
BRANCH   1   4
ATOM      2  N   GLY A   1       3.763   4.358  -2.940  0.00  0.00    -0.304 N 
ATOM      3  H   GLY A   1       3.881   3.797  -3.776  0.00  0.00    +0.149 HD
ATOM      4  C   UNK A   0       2.935   5.457  -2.992  0.00  0.00    +0.214 C 
ATOM      5  O   UNK A   0       2.603   6.097  -2.002  0.00  0.00    -0.276 OA
BRANCH   2   6
ATOM      6  CA  GLY A   1       4.165   3.781  -1.658  0.00  0.00    +0.156 C 
ATOM      7  CB  GLY A   1       2.973   3.288  -0.844  0.00  0.00    +0.038 C 
BRANCH   6  10
ATOM      8  N   UNK A   2       5.787   5.621  -1.647  0.00  0.00    -0.301 N 
ATOM      9  H   UNK A   2       5.548   5.652  -2.635  0.00  0.00    +0.150 HD
ATOM     10  C   GLY A   1       5.079   4.740  -0.856  0.00  0.00    +0.234 C 
ATOM     11  O   GLY A   1       5.278   4.637   0.352  0.00  0.00    -0.274 OA
BRANCH   8  13
ATOM     12  C   UNK A   2       5.690   7.714  -0.334  0.00  0.00    +0.040 C 
ATOM     13  C   UNK A   2       6.560   6.735  -1.119  0.00  0.00    +0.179 C 
BRANCH  13  14
ATOM     14  C   UNK A   2       7.213   7.450  -2.312  0.00  0.00    +0.325 C 
ATOM     15  O   UNK A   2       6.976   7.187  -3.487  0.00  0.00    -0.249 OA
BRANCH  14  16
ATOM     16  O   UNK A   2       8.095   8.418  -1.965  0.00  0.00    -0.479 OA
ATOM     17  H   UNK A   2       8.205   8.527  -1.001  0.00  0.00    +0.295 HD
ENDBRANCH  14  16
ENDBRANCH  13  14
ENDBRANCH   8  13
ENDBRANCH   6  10
ENDBRANCH   2   6
ENDBRANCH   1   4
BRANCH   1  18
ATOM     18  C   UNK A   0       3.112   7.247  -4.680  0.00  0.00    +0.009 C 
BRANCH  18  19
ATOM     19  C   UNK A   0       2.680   7.785  -6.041  0.00  0.00    +0.003 C 
BRANCH  19  20
ATOM     20  C   UNK A   0       1.164   7.943  -6.203  0.00  0.00    +0.028 C 
BRANCH  20  21
ATOM     21  C   UNK A   0       0.509   8.881  -5.180  0.00  0.00    +0.119 C 
BRANCH  21  22
ATOM     22  N   UNK A   0       1.031  10.256  -5.348  0.00  0.00    -0.303 N 
ATOM     23  H   UNK A   0       0.209  10.826  -5.584  0.00  0.00    +0.150 HD
ATOM     24  C   GLY A   1       2.046  10.832  -4.631  0.00  0.00    +0.259 C 
ATOM     25  O   GLY A   1       2.666  10.327  -3.708  0.00  0.00    -0.270 OA
BRANCH  24  26
ATOM     26  CA  GLY A   1       2.423  12.198  -5.188  0.00  0.00    +0.225 C 
BRANCH  26  27
ATOM     27  N   GLY A   1       2.131  12.282  -6.657  0.00  0.00    +0.225 N 
ATOM     28  H1  GLY A   1       2.553  13.095  -7.110  0.00  0.00    +0.200 HD
ATOM     29  H2  GLY A   1       1.113  12.283  -6.815  0.00  0.00    +0.200 HD
ATOM     30  H3  GLY A   1       2.467  11.416  -7.106  0.00  0.00    +0.200 HD
ENDBRANCH  26  27
ENDBRANCH  24  26
ENDBRANCH  21  22
BRANCH  21  31
ATOM     31  C   UNK A   0      -1.026   8.911  -5.514  0.00  0.00    +0.062 C 
ATOM     32  O   UNK A   2      -1.389  10.080  -5.891  0.00  0.00    -0.548 OA
ATOM     33  O   UNK A   2      -1.667   7.840  -5.395  0.00  0.00    -0.548 OA
ENDBRANCH  21  31
ENDBRANCH  20  21
ENDBRANCH  19  20
ENDBRANCH  18  19
ENDBRANCH   1  18
TORSDOF 14
