REMARK  Name = 
REMARK  4 active torsions:
REMARK  status: ('A' for Active; 'I' for Inactive)
REMARK    1  A    between atoms: N_1  and  C_2
REMARK    2  A    between atoms: C_4  and  O_6
REMARK    3  A    between atoms: C_10  and  C_11
REMARK    4  A    between atoms: C_11  and  O_12
REMARK                            x       y       z     vdW  Elec       q    Type
REMARK                         _______ _______ _______ _____ _____    ______ ____
ROOT
ATOM      1  C   UNL     1       2.437   0.024   0.183  0.00  0.00    +0.121 C 
ATOM      2  C   UNL     1       2.798  -1.238  -0.589  0.00  0.00    +0.056 C 
ATOM      3  C   UNL     1       3.505  -1.204  -1.735  0.00  0.00    +0.012 C 
ATOM      4  C   UNL     1       4.027   0.028  -2.273  0.00  0.00    -0.001 C 
ATOM      5  C   UNL     1       3.650   1.213  -1.781  0.00  0.00    +0.006 C 
ATOM      6  C   UNL     1       2.709   1.352  -0.621  0.00  0.00    +0.159 C 
ENDROOT
BRANCH   1   7
ATOM      7  N   UNL     1       3.144   0.057   1.478  0.00  0.00    -0.321 NA
ATOM      8  H   UNL     1       2.807  -0.712   2.059  0.00  0.00    +0.119 HD
ATOM      9  H   UNL     1       4.144  -0.067   1.339  0.00  0.00    +0.119 HD
ENDBRANCH   1   7
BRANCH   2  10
ATOM     10  C   UNL     1       2.211  -2.498  -0.067  0.00  0.00    +0.334 C 
ATOM     11  O   UNL     1       1.235  -2.520   0.666  0.00  0.00    -0.245 OA
BRANCH  10  12
ATOM     12  O   UNL     1       2.870  -3.623  -0.412  0.00  0.00    -0.477 OA
ATOM     13  H   UNL     1       3.735  -3.492  -0.835  0.00  0.00    +0.295 HD
ENDBRANCH  10  12
ENDBRANCH   2  10
BRANCH   6  14
ATOM     14  O   UNL     1       1.495   1.894  -1.149  0.00  0.00    -0.386 OA
ATOM     15  H   UNL     1       1.122   1.227  -1.750  0.00  0.00    +0.210 HD
ENDBRANCH   6  14
TORSDOF 4
