REMARK  Name = 
REMARK  4 active torsions:
REMARK  status: ('A' for Active; 'I' for Inactive)
REMARK    1  A    between atoms: N_1  and  S_2
REMARK    2  A    between atoms: S_2  and  C_5
REMARK    3  A    between atoms: C_8  and  N_9
REMARK    4  A    between atoms: C_12  and  C_16
REMARK                            x       y       z     vdW  Elec       q    Type
REMARK                         _______ _______ _______ _____ _____    ______ ____
ROOT
ATOM      1  N   UNL     1       4.141   2.650  -5.388  0.00  0.00    -0.284 N 
ATOM      2  H   UNL     1       4.303   2.013  -4.621  0.00  0.00    +0.155 HD
ATOM      3  C   UNL     1       4.082   1.929  -6.578  0.00  0.00    +0.220 A 
ATOM      4  N   UNL     1       4.273   0.608  -6.450  0.00  0.00    -0.223 NA
ATOM      5  C   UNL     1       4.239  -0.125  -7.574  0.00  0.00    +0.116 A 
ATOM      6  C   UNL     1       4.002   0.408  -8.814  0.00  0.00    +0.050 A 
ATOM      7  C   UNL     1       3.814   1.773  -8.860  0.00  0.00    +0.094 A 
ATOM      8  N   UNL     1       3.842   2.534  -7.755  0.00  0.00    -0.213 NA
ENDROOT
BRANCH   7   9
ATOM      9  C   UNL     1       3.689   2.479 -10.137  0.00  0.00    +0.092 A 
ATOM     10  N   UNL     1       3.148   3.741 -10.377  0.00  0.00    -0.298 N 
ATOM     11  C   UNL     1       3.321   3.991 -11.744  0.00  0.00    +0.138 A 
ATOM     12  C   UNL     1       2.872   5.241 -12.256  0.00  0.00    +0.047 A 
ATOM     13  C   UNL     1       2.286   6.132 -11.438  0.00  0.00    +0.005 A 
ATOM     14  C   UNL     1       2.090   5.842 -10.028  0.00  0.00    +0.018 A 
ATOM     15  N   UNL     1       3.893   2.985 -12.363  0.00  0.00    -0.235 NA
ATOM     16  C   UNL     1       2.519   4.665  -9.532  0.00  0.00    +0.093 A 
ATOM     17  C   UNL     1       4.125   2.062 -11.388  0.00  0.00    +0.141 A 
ENDBRANCH   7   9
BRANCH   1  21
ATOM     18  C   UNL     1       4.443   6.757  -4.540  0.00  0.00    +0.105 A 
ATOM     19  C   UNL     1       4.209   5.838  -3.514  0.00  0.00    +0.030 A 
ATOM     20  C   UNL     1       4.135   4.475  -3.813  0.00  0.00    +0.025 A 
ATOM     21  C   UNL     1       4.316   4.012  -5.126  0.00  0.00    +0.034 A 
ATOM     22  C   UNL     1       4.575   4.959  -6.128  0.00  0.00    +0.025 A 
ATOM     23  C   UNL     1       4.648   6.324  -5.845  0.00  0.00    +0.030 A 
BRANCH  18  24
ATOM     24  S   UNL     1       4.450   8.482  -4.161  0.00  0.00    +0.056 S 
ATOM     25  O   UNL     1       4.744   8.656  -2.758  0.00  0.00    -0.153 OA
ATOM     26  O   UNL     1       5.155   9.201  -5.191  0.00  0.00    -0.153 OA
BRANCH  24  27
ATOM     27  N   UNL     1       2.827   8.852  -4.346  0.00  0.00    -0.204 NA
ATOM     28  H   UNL     1       2.355   8.868  -3.443  0.00  0.00    +0.144 HD
ATOM     29  H   UNL     1       2.728   9.712  -4.886  0.00  0.00    +0.144 HD
ENDBRANCH  24  27
ENDBRANCH  18  24
ENDBRANCH   1  21
TORSDOF 4
