REMARK  Name = 
REMARK  5 active torsions:
REMARK  status: ('A' for Active; 'I' for Inactive)
REMARK    1  A    between atoms: C_2  and  O_3
REMARK    2  A    between atoms: C_2  and  C_4
REMARK    3  A    between atoms: C_2  and  C_11
REMARK    4  A    between atoms: C_4  and  C_5
REMARK    5  A    between atoms: C_11  and  O_12
REMARK                            x       y       z     vdW  Elec       q    Type
REMARK                         _______ _______ _______ _____ _____    ______ ____
ROOT
ATOM      1  C   UNL     1       2.030   0.047   0.225  0.00  0.00    +0.227 C 
ENDROOT
BRANCH   1   2
ATOM      2  O   UNL     1       0.598  -0.020   0.407  0.00  0.00    -0.380 OA
ATOM      3  H   UNL     1       0.275   0.899   0.487  0.00  0.00    +0.211 HD
ENDBRANCH   1   2
BRANCH   1   4
ATOM      4  C   UNL     1       2.627  -0.046   1.633  0.00  0.00    +0.334 C 
ATOM      5  O   UNL     1       3.725   0.361   1.975  0.00  0.00    -0.248 OA
BRANCH   4   6
ATOM      6  O   UNL     1       1.766  -0.663   2.488  0.00  0.00    -0.479 OA
ATOM      7  H   UNL     1       0.940  -0.867   1.987  0.00  0.00    +0.295 HD
ENDBRANCH   4   6
ENDBRANCH   1   4
BRANCH   1   8
ATOM      8  C   UNL     1       2.478   1.338  -0.475  0.00  0.00    +0.078 C 
BRANCH   8   9
ATOM      9  C   UNL     1       2.114   1.466  -1.942  0.00  0.00    -0.044 A 
ATOM     10  C   UNL     1       2.992   2.151  -2.801  0.00  0.00    +0.004 A 
ATOM     11  C   UNL     1       2.679   2.334  -4.150  0.00  0.00    +0.000 A 
ATOM     12  C   UNL     1       1.479   1.848  -4.660  0.00  0.00    +0.000 A 
ATOM     13  C   UNL     1       0.591   1.184  -3.820  0.00  0.00    +0.000 A 
ATOM     14  C   UNL     1       0.904   0.997  -2.472  0.00  0.00    +0.004 A 
ENDBRANCH   8   9
ENDBRANCH   1   8
TORSDOF 5
