REMARK  Name = 
REMARK  8 active torsions:
REMARK  status: ('A' for Active; 'I' for Inactive)
REMARK    1  A    between atoms: C_1  and  S_2
REMARK    2  A    between atoms: S_2  and  C_3
REMARK    3  A    between atoms: C_3  and  C_4
REMARK    4  A    between atoms: C_4  and  C_5
REMARK    5  A    between atoms: C_5  and  N_7
REMARK    6  A    between atoms: C_5  and  P_8
REMARK    7  A    between atoms: P_8  and  O_9
REMARK    8  A    between atoms: P_8  and  O_10
REMARK                            x       y       z     vdW  Elec       q    Type
REMARK                         _______ _______ _______ _____ _____    ______ ____
ROOT
ATOM      1  C   UNL     1       5.514   2.510  -1.973  0.00  0.00    +0.167 C 
ENDROOT
BRANCH   1   2
ATOM      2  N   UNL     1       5.117   3.790  -1.296  0.00  0.00    -0.318 NA
ATOM      3  H   UNL     1       4.096   3.873  -1.337  0.00  0.00    +0.119 HD
ATOM      4  H   UNL     1       5.329   3.713  -0.296  0.00  0.00    +0.119 HD
ENDBRANCH   1   2
BRANCH   1   5
ATOM      5  P   UNL     1       7.344   2.510  -1.973  0.00  0.00    +0.344 P 
ATOM      6  O   UNL     1       8.892   2.510  -1.973  0.00  0.00    -0.257 OA
BRANCH   5   7
ATOM      7  O   UNL     1       7.266   4.022  -2.638  0.00  0.00    -0.323 OA
ATOM      8  H   UNL     1       6.501   4.509  -2.251  0.00  0.00    +0.220 HD
ENDBRANCH   5   7
BRANCH   5   9
ATOM      9  O   UNL     1       7.306   1.646  -3.364  0.00  0.00    -0.323 OA
ATOM     10  H   UNL     1       8.220   1.696  -3.718  0.00  0.00    +0.220 HD
ENDBRANCH   5   9
ENDBRANCH   1   5
BRANCH   1  11
ATOM     11  C   UNL     1       4.726   2.368  -3.301  0.00  0.00    +0.041 C 
BRANCH  11  12
ATOM     12  C   UNL     1       5.052   3.429  -4.358  0.00  0.00    +0.071 C 
BRANCH  12  14
ATOM     13  C   UNL     1       4.712   4.603  -6.808  0.00  0.00    +0.084 C 
ATOM     14  S   UNL     1       4.030   3.221  -5.852  0.00  0.00    -0.164 S 
ENDBRANCH  12  14
ENDBRANCH  11  12
ENDBRANCH   1  11
TORSDOF 7
