REMARK  Name = 
REMARK  14 active torsions:
REMARK  status: ('A' for Active; 'I' for Inactive)
REMARK    1  A    between atoms: O_1  and  C_2
REMARK    2  A    between atoms: C_2  and  CA_3
REMARK    3  A    between atoms: CA_3  and  N_5
REMARK    4  A    between atoms: CA_3  and  C_15
REMARK    5  A    between atoms: C_6  and  C_8
REMARK    6  A    between atoms: C_8  and  C_9
REMARK    7  A    between atoms: C_9  and  N_10
REMARK    8  A    between atoms: C_11  and  C_13
REMARK    9  A    between atoms: N_17  and  C_18
REMARK   10  A    between atoms: C_18  and  C_19
REMARK   11  A    between atoms: C_19  and  C_20
REMARK   12  A    between atoms: C_23  and  N_24
REMARK   13  A    between atoms: C_25  and  C_27
REMARK   14  A    between atoms: C_27  and  O_28
REMARK                            x       y       z     vdW  Elec       q    Type
REMARK                         _______ _______ _______ _____ _____    ______ ____
ROOT
ATOM      1  C   UNL     1       4.505  -0.664   1.275  0.00  0.00    +0.236 C 
ATOM      2  N   UNL     1       5.158  -1.272   2.333  0.00  0.00    -0.313 N 
ATOM      3  H   UNL     1       4.634  -1.961   2.862  0.00  0.00    +0.149 HD
ATOM      4  O   UNL     1       5.129  -0.124   0.360  0.00  0.00    -0.274 OA
ENDROOT
BRANCH   1   5
ATOM      5  CA  UNL     1       2.963  -0.783   1.250  0.00  0.00    +0.184 C 
BRANCH   5   6
ATOM      6  N   UNL     1       2.367  -0.763   2.605  0.00  0.00    -0.302 N 
ATOM      7  H   UNL     1       2.290   0.143   3.050  0.00  0.00    +0.150 HD
ATOM      8  C   UNL     1       2.198  -1.893   3.366  0.00  0.00    +0.215 C 
ATOM      9  O   UNL     1       2.551  -3.001   2.977  0.00  0.00    -0.276 OA
BRANCH   8  10
ATOM     10  C   UNL     1       1.573  -1.669   4.724  0.00  0.00    +0.114 C 
BRANCH  10  11
ATOM     11  C   UNL     1       1.359  -3.024   5.391  0.00  0.00    +0.113 C 
BRANCH  11  12
ATOM     12  N   UNL     1       0.840  -2.916   6.739  0.00  0.00    -0.314 N 
ATOM     13  H   UNL     1       0.085  -2.268   6.929  0.00  0.00    +0.149 HD
ATOM     14  C   UNL     1       1.105  -3.903   7.672  0.00  0.00    +0.223 C 
ATOM     15  O   UNL     1       1.835  -4.865   7.443  0.00  0.00    -0.275 OA
BRANCH  14  16
ATOM     16  C   UNL     1       0.380  -3.752   8.987  0.00  0.00    +0.175 C 
ATOM     17 BR   UNL     1       0.923  -2.075   9.803  0.00  0.00    -0.082 Br
ENDBRANCH  14  16
ENDBRANCH  11  12
ENDBRANCH  10  11
ENDBRANCH   8  10
ENDBRANCH   5   6
BRANCH   5  18
ATOM     18  C   UNL     1       2.516  -1.986   0.396  0.00  0.00    +0.187 C 
BRANCH  18  19
ATOM     19  O   UNL     1       2.730  -1.769  -0.996  0.00  0.00    -0.393 OA
ATOM     20  H   UNL     1       2.613  -2.632  -1.432  0.00  0.00    +0.209 HD
ENDBRANCH  18  19
ENDBRANCH   5  18
ENDBRANCH   1   5
BRANCH   2  21
ATOM     21  C   UNL     1       6.608  -1.381   2.305  0.00  0.00    +0.109 C 
BRANCH  21  22
ATOM     22  C   UNL     1       7.200  -2.103   3.519  0.00  0.00    +0.054 C 
BRANCH  22  23
ATOM     23  C   UNL     1       6.801  -3.558   3.619  0.00  0.00    -0.046 A 
ATOM     24  C   UNL     1       6.080  -4.032   4.721  0.00  0.00    +0.005 A 
ATOM     25  C   UNL     1       5.693  -5.377   4.797  0.00  0.00    +0.023 A 
ATOM     26  C   UNL     1       6.046  -6.275   3.782  0.00  0.00    +0.034 A 
ATOM     27  C   UNL     1       6.787  -5.807   2.699  0.00  0.00    +0.023 A 
ATOM     28  C   UNL     1       7.160  -4.463   2.614  0.00  0.00    +0.005 A 
BRANCH  26  29
ATOM     29  N   UNL     1       5.617  -7.611   3.897  0.00  0.00    -0.276 N 
ATOM     30  H   UNL     1       4.961  -7.836   4.642  0.00  0.00    +0.155 HD
ATOM     31  C   UNL     1       6.009  -8.665   3.102  0.00  0.00    +0.325 C 
ATOM     32  O   UNL     1       6.852  -8.717   2.214  0.00  0.00    -0.263 OA
BRANCH  31  33
ATOM     33  C   UNL     1       5.298  -9.986   3.424  0.00  0.00    +0.393 C 
ATOM     34  O   UNL     1       4.420 -10.075   4.263  0.00  0.00    -0.240 OA
BRANCH  33  35
ATOM     35  O   UNL     1       5.759 -10.980   2.647  0.00  0.00    -0.474 OA
ATOM     36  H   UNL     1       6.460 -10.614   2.057  0.00  0.00    +0.296 HD
ENDBRANCH  33  35
ENDBRANCH  31  33
ENDBRANCH  26  29
ENDBRANCH  22  23
ENDBRANCH  21  22
ENDBRANCH   2  21
TORSDOF 14
