REMARK  Name = 
REMARK  2 active torsions:
REMARK  status: ('A' for Active; 'I' for Inactive)
REMARK    1  A    between atoms: O_1  and  C_2
REMARK    2  A    between atoms: C_2  and  C_4
REMARK                            x       y       z     vdW  Elec       q    Type
REMARK                         _______ _______ _______ _____ _____    ______ ____
ROOT
ATOM      1  C   UNK     1       3.184  -1.385   0.431  0.00  0.00    +0.174 C 
ATOM      2  N   UNK     1       2.543  -2.553  -0.256  0.00  0.00    -0.295 NA
ATOM      3  H   UNK     1       1.539  -2.504  -0.054  0.00  0.00    +0.123 HD
ATOM      4  C   UNK     1       3.015  -3.749   0.457  0.00  0.00    +0.151 C 
ATOM      5  S   UNK     1       3.363  -3.310   2.173  0.00  0.00    -0.143 S 
ATOM      6  C   UNK     1       3.008  -1.557   1.928  0.00  0.00    +0.100 C 
ENDROOT
BRANCH   1   7
ATOM      7  C   UNK     1       2.518  -0.096  -0.052  0.00  0.00    +0.323 C 
ATOM      8  O   UNK     1       2.424   0.933   0.596  0.00  0.00    -0.249 OA
BRANCH   7   9
ATOM      9  O   UNK     1       2.053  -0.222  -1.319  0.00  0.00    -0.480 OA
ATOM     10  H   UNK     1       2.240  -1.140  -1.625  0.00  0.00    +0.295 HD
ENDBRANCH   7   9
ENDBRANCH   1   7
TORSDOF 2
