REMARK  Name = 
REMARK  2 active torsions:
REMARK  status: ('A' for Active; 'I' for Inactive)
REMARK    1  A    between atoms: O_1  and  C_2
REMARK    2  A    between atoms: C_2  and  C_3
REMARK                            x       y       z     vdW  Elec       q    Type
REMARK                         _______ _______ _______ _____ _____    ______ ____
ROOT
ATOM      1  C   UNL     1       2.953  -1.060   0.982  0.00  0.00    -0.022 A 
ATOM      2  C   UNL     1       2.490  -2.380   0.887  0.00  0.00    +0.007 A 
ATOM      3  C   UNL     1       2.930  -3.353   1.788  0.00  0.00    +0.015 A 
ATOM      4  C   UNL     1       3.835  -3.009   2.791  0.00  0.00    +0.018 A 
ATOM      5 BR   UNL     1       4.437  -4.328   4.004  0.00  0.00    -0.050 Br
ATOM      6  C   UNL     1       4.302  -1.702   2.902  0.00  0.00    +0.015 A 
ATOM      7  C   UNL     1       3.861  -0.732   2.000  0.00  0.00    +0.007 A 
ENDROOT
BRANCH   1   8
ATOM      8  C   UNL     1       2.480  -0.006   0.019  0.00  0.00    +0.191 C 
BRANCH   8   9
ATOM      9  O   UNL     1       3.595   0.527  -0.679  0.00  0.00    -0.390 OA
ATOM     10  H   UNL     1       3.246   1.170  -1.317  0.00  0.00    +0.210 HD
ENDBRANCH   8   9
ENDBRANCH   1   8
TORSDOF 2
