REMARK  Name = 
REMARK  5 active torsions:
REMARK  status: ('A' for Active; 'I' for Inactive)
REMARK    1  A    between atoms: O5*_1  and  C5*_2
REMARK    2  A    between atoms: C5*_2  and  C4*_3
REMARK    3  A    between atoms: C1*_6  and  N_14
REMARK    4  A    between atoms: C2*_8  and  O2*_10
REMARK    5  A    between atoms: C3*_11  and  O3*_13
REMARK                            x       y       z     vdW  Elec       q    Type
REMARK                         _______ _______ _______ _____ _____    ______ ____
ROOT
ATOM      1  C4* UNL     1       2.843  -0.913  -1.254  0.00  0.00    +0.000 C 
ATOM      2  C3* UNL     1       2.259  -2.334  -1.186  0.00  0.00    +0.000 C 
ATOM      3  C2* UNL     1       3.381  -3.213  -1.734  0.00  0.00    +0.000 C 
ATOM      4  C1* UNL     1       4.464  -2.194  -2.103  0.00  0.00    +0.000 C 
ATOM      5  O4* UNL     1       4.248  -1.054  -1.301  0.00  0.00    +0.000 OA
ENDROOT
BRANCH   4   6
ATOM      6  N   UNL     1       5.810  -2.720  -1.877  0.00  0.00    +0.000 N 
ATOM      7  C   UNL     1       6.350  -3.123  -0.719  0.00  0.00    +0.000 A 
ATOM      8  N   UNL     1       5.768  -3.148   0.503  0.00  0.00    +0.000 NA
ATOM      9  C   UNL     1       6.510  -3.596   1.557  0.00  0.00    +0.000 A 
ATOM     10  N   UNL     1       7.810  -3.999   1.375  0.00  0.00    +0.000 N 
ATOM     11  H   UNL     1       8.352  -4.332   2.203  0.00  0.00    +0.000 HD
ATOM     12  C   UNL     1       8.397  -3.967   0.138  0.00  0.00    +0.000 A 
ATOM     13 SE   UNL     1      10.053  -4.473  -0.081  0.00  0.00    +0.000 Se
ATOM     14  C   UNL     1       7.628  -3.514  -0.929  0.00  0.00    +0.000 A 
ATOM     15  N   UNL     1       7.943  -3.375  -2.231  0.00  0.00    +0.000 NA
ATOM     16  C   UNL     1       6.803  -2.883  -2.788  0.00  0.00    +0.000 A 
ENDBRANCH   4   6
BRANCH   2  17
ATOM     17  O3* UNL     1       1.974  -2.694   0.148  0.00  0.00    +0.000 OA
ATOM     18  H3* UNL     1       2.774  -2.499   0.708  0.00  0.00    +0.000 HD
ENDBRANCH   2  17
BRANCH   3  19
ATOM     19  O2* UNL     1       2.968  -3.971  -2.839  0.00  0.00    +0.000 OA
ATOM     20  H2* UNL     1       3.720  -4.581  -3.056  0.00  0.00    +0.000 HD
ENDBRANCH   3  19
BRANCH   1  21
ATOM     21  C5* UNL     1       2.338  -0.109  -2.468  0.00  0.00    +0.000 C 
BRANCH  21  22
ATOM     22  O5* UNL     1       2.938   1.157  -2.464  0.00  0.00    +0.000 OA
ATOM     23  H5* UNL     1       2.448   1.701  -3.133  0.00  0.00    +0.000 HD
ENDBRANCH  21  22
ENDBRANCH   1  21
TORSDOF 5
