REMARK  Name = 
REMARK  1 active torsions:
REMARK  status: ('A' for Active; 'I' for Inactive)
REMARK    1  A    between atoms: N_1  and  C_2
REMARK                            x       y       z     vdW  Elec       q    Type
REMARK                         _______ _______ _______ _____ _____    ______ ____
ROOT
ATOM      1  C   UNL     1       2.545  -0.003  -0.138  0.00  0.00    +0.136 A 
ATOM      2  N   UNL     1       3.167  -1.193  -0.084  0.00  0.00    -0.218 NA
ATOM      3  C   UNL     1       4.517  -1.141  -0.017  0.00  0.00    +0.149 A 
ATOM      4 CL   UNL     1       5.303  -2.661   0.056  0.00  0.00    -0.060 Cl
ATOM      5  C   UNL     1       5.230   0.047  -0.001  0.00  0.00    +0.151 A 
ATOM      6  N   UNL     1       4.618   1.253  -0.057  0.00  0.00    -0.257 NA
ATOM      7  C   UNL     1       3.264   1.195  -0.135  0.00  0.00    +0.154 A 
ENDROOT
BRANCH   1   8
ATOM      8  N   UNL     1       1.156  -0.025  -0.242  0.00  0.00    -0.342 N 
ATOM      9  H   UNL     1       0.861  -0.998  -0.182  0.00  0.00    +0.144 HD
ATOM     10  H   UNL     1       0.707   0.548   0.464  0.00  0.00    +0.144 HD
ENDBRANCH   1   8
TORSDOF 1
