REMARK  Name = 
REMARK  6 active torsions:
REMARK  status: ('A' for Active; 'I' for Inactive)
REMARK    1  A    between atoms: C_2  and  C_3
REMARK    2  A    between atoms: C_2  and  C_15
REMARK    3  A    between atoms: C_2  and  P_25
REMARK    4  A    between atoms: C_3  and  C_5
REMARK    5  A    between atoms: P_25  and  O_26
REMARK    6  A    between atoms: P_25  and  O_27
REMARK                            x       y       z     vdW  Elec       q    Type
REMARK                         _______ _______ _______ _____ _____    ______ ____
ROOT
ATOM      1  C   UNL     1       2.141   0.070  -0.008  0.00  0.00    +0.204 C 
ENDROOT
BRANCH   1   2
ATOM      2  C   UNL     1       2.710   1.131  -1.033  0.00  0.00    -0.018 A 
ATOM      3  C   UNL     1       3.754   0.820  -1.953  0.00  0.00    -0.013 A 
ATOM      4  C   UNL     1       4.517   1.891  -2.489  0.00  0.00    -0.018 A 
ATOM      5  C   UNL     1       5.674   1.629  -3.240  0.00  0.00    +0.008 A 
ATOM      6  C   UNL     1       6.062   0.323  -3.524  0.00  0.00    +0.001 A 
ATOM      7  C   UNL     1       5.261  -0.734  -3.114  0.00  0.00    +0.001 A 
ATOM      8  C   UNL     1       4.147   3.221  -2.245  0.00  0.00    +0.008 A 
ATOM      9  C   UNL     1       3.053   3.519  -1.445  0.00  0.00    +0.001 A 
ATOM     10  C   UNL     1       4.121  -0.489  -2.343  0.00  0.00    +0.009 A 
ATOM     11  C   UNL     1       2.361   2.489  -0.820  0.00  0.00    +0.005 A 
ENDBRANCH   1   2
BRANCH   1  12
ATOM     12  C   UNL     1       0.589   0.110  -0.086  0.00  0.00    +0.182 C 
ATOM     13  O   UNL     1      -0.000   0.852  -0.880  0.00  0.00    -0.291 OA
BRANCH  12  14
ATOM     14  C   UNL     1      -0.318  -0.749   0.745  0.00  0.00    +0.019 A 
ATOM     15  C   UNL     1       0.116  -1.810   1.533  0.00  0.00    +0.012 A 
ATOM     16  C   UNL     1      -0.803  -2.563   2.279  0.00  0.00    +0.009 A 
ATOM     17  C   UNL     1      -2.181  -2.305   2.219  0.00  0.00    -0.018 A 
ATOM     18  C   UNL     1      -2.644  -1.258   1.395  0.00  0.00    -0.017 A 
ATOM     19  C   UNL     1      -4.028  -1.018   1.305  0.00  0.00    +0.008 A 
ATOM     20  C   UNL     1      -4.938  -1.794   2.022  0.00  0.00    +0.001 A 
ATOM     21  C   UNL     1      -4.480  -2.825   2.847  0.00  0.00    +0.001 A 
ATOM     22  C   UNL     1      -3.108  -3.076   2.943  0.00  0.00    +0.008 A 
ATOM     23  C   UNL     1      -1.706  -0.490   0.679  0.00  0.00    +0.020 A 
ENDBRANCH  12  14
ENDBRANCH   1  12
BRANCH   1  24
ATOM     24  P   UNL     1       2.751   0.462   1.673  0.00  0.00    +0.343 P 
ATOM     25  O   UNL     1       3.267   0.793   3.094  0.00  0.00    -0.258 OA
BRANCH  24  26
ATOM     26  O   UNL     1       4.252   0.703   1.037  0.00  0.00    -0.323 OA
ATOM     27  H   UNL     1       4.948   0.693   1.716  0.00  0.00    +0.220 HD
ENDBRANCH  24  26
BRANCH  24  28
ATOM     28  O   UNL     1       3.060  -1.142   1.908  0.00  0.00    -0.323 OA
ATOM     29  H   UNL     1       3.608  -1.205   2.719  0.00  0.00    +0.220 HD
ENDBRANCH  24  28
ENDBRANCH   1  24
TORSDOF 6
