REMARK  Name = 
REMARK  16 active torsions:
REMARK  status: ('A' for Active; 'I' for Inactive)
REMARK    1  A    between atoms: N_6  and  C_9
REMARK    2  A    between atoms: C_12  and  C_14
REMARK    3  A    between atoms: C_14  and  O_15
REMARK    4  A    between atoms: O_15  and  P_16
REMARK    5  A    between atoms: P_16  and  O_17
REMARK    6  A    between atoms: P_16  and  O_19
REMARK    7  A    between atoms: O_19  and  P_20
REMARK    8  A    between atoms: P_20  and  O_21
REMARK    9  A    between atoms: P_20  and  O_23
REMARK   10  A    between atoms: O_23  and  C_24
REMARK   11  A    between atoms: C_24  and  C_25
REMARK   12  A    between atoms: C_25  and  O_27
REMARK   13  A    between atoms: C_25  and  C_28
REMARK   14  A    between atoms: C_28  and  O_29
REMARK   15  A    between atoms: C_30  and  O_32
REMARK   16  A    between atoms: C_33  and  O_35
REMARK                            x       y       z     vdW  Elec       q    Type
REMARK                         _______ _______ _______ _____ _____    ______ ____
ROOT
ATOM      1  C   UNL     1       6.568   6.454   1.001  0.00  0.00    +0.255 C 
ATOM      2  C   UNL     1       8.054   6.807   1.214  0.00  0.00    +0.195 C 
ATOM      3  C   UNL     1       8.463   6.029   2.468  0.00  0.00    +0.178 C 
ATOM      4  C   UNL     1       7.228   5.212   2.849  0.00  0.00    +0.178 C 
ATOM      5  O   UNL     1       6.370   5.207   1.702  0.00  0.00    -0.346 OA
ENDROOT
BRANCH   1  12
ATOM      6  N   UNL     1       2.612  10.053   2.420  0.00  0.00    -0.343 N 
ATOM      7  H   UNL     1       2.621  10.460   3.346  0.00  0.00    +0.144 HD
ATOM      8  H   UNL     1       1.693   9.736   2.124  0.00  0.00    +0.144 HD
ATOM      9  C   UNL     1       3.603   9.171   2.095  0.00  0.00    +0.123 A 
ATOM     10  C   UNL     1       4.909   9.279   2.763  0.00  0.00    +0.061 A 
ATOM     11  C   UNL     1       5.823   8.375   2.412  0.00  0.00    +0.096 A 
ATOM     12  N   UNL     1       5.563   7.424   1.448  0.00  0.00    -0.270 N 
ATOM     13  C   UNL     1       4.300   7.357   0.832  0.00  0.00    +0.352 A 
ATOM     14  O   UNL     1       4.055   6.526  -0.040  0.00  0.00    -0.244 OA
ATOM     15  N   UNL     1       3.334   8.263   1.212  0.00  0.00    -0.178 NA
ENDBRANCH   1  12
BRANCH   3  16
ATOM     16  O   UNL     1       8.814   6.919   3.530  0.00  0.00    -0.386 OA
ATOM     17  H   UNL     1       9.153   6.364   4.255  0.00  0.00    +0.210 HD
ENDBRANCH   3  16
BRANCH   2  18
ATOM     18  O   UNL     1       8.860   6.367   0.102  0.00  0.00    -0.385 OA
ATOM     19  H   UNL     1       8.607   5.454  -0.121  0.00  0.00    +0.210 HD
ENDBRANCH   2  18
BRANCH   4  20
ATOM     20  C   UNL     1       7.555   3.778   3.285  0.00  0.00    +0.206 C 
BRANCH  20  21
ATOM     21  O   UNL     1       8.358   3.763   4.471  0.00  0.00    -0.284 OA
BRANCH  21  22
ATOM     22  P   UNL     1       8.731   2.283   5.126  0.00  0.00    +0.483 P 
ATOM     23  O   UNL     1       8.112   1.213   4.222  0.00  0.00    -0.227 OA
BRANCH  22  24
ATOM     24  O   UNL     1      10.138   2.216   4.122  0.00  0.00    -0.302 OA
ATOM     25  H   UNL     1       9.793   1.908   3.261  0.00  0.00    +0.222 HD
ENDBRANCH  22  24
BRANCH  22  26
ATOM     26  O   UNL     1       7.323   2.350   6.130  0.00  0.00    -0.186 OA
BRANCH  26  27
ATOM     27  P   UNL     1       7.790   2.725   7.753  0.00  0.00    +0.483 P 
ATOM     28  O   UNL     1       8.909   1.684   7.696  0.00  0.00    -0.227 OA
BRANCH  27  29
ATOM     29  O   UNL     1       6.465   1.875   8.197  0.00  0.00    -0.302 OA
ATOM     30  H   UNL     1       6.682   0.922   8.165  0.00  0.00    +0.222 HD
ENDBRANCH  27  29
BRANCH  27  31
ATOM     31  O   UNL     1       8.256   3.100   9.376  0.00  0.00    -0.284 OA
BRANCH  31  32
ATOM     32  C   UNL     1       7.348   2.616  10.379  0.00  0.00    +0.206 C 
BRANCH  32  33
ATOM     33  C   UNL     1       7.763   2.979  11.797  0.00  0.00    +0.166 C 
BRANCH  33  34
ATOM     34  O   UNL     1       7.767   4.407  11.927  0.00  0.00    -0.387 OA
ATOM     35  H   UNL     1       8.361   4.729  11.223  0.00  0.00    +0.210 HD
ENDBRANCH  33  34
BRANCH  33  36
ATOM     36  C   UNL     1       6.750   2.396  12.794  0.00  0.00    +0.189 C 
BRANCH  36  37
ATOM     37  O   UNL     1       5.440   2.902  12.529  0.00  0.00    -0.392 OA
ATOM     38  H   UNL     1       5.543   3.872  12.471  0.00  0.00    +0.210 HD
ENDBRANCH  36  37
ENDBRANCH  33  36
ENDBRANCH  32  33
ENDBRANCH  31  32
ENDBRANCH  27  31
ENDBRANCH  26  27
ENDBRANCH  22  26
ENDBRANCH  21  22
ENDBRANCH  20  21
ENDBRANCH   4  20
TORSDOF 16
