REMARK  Name = 
REMARK  16 active torsions:
REMARK  status: ('A' for Active; 'I' for Inactive)
REMARK    1  A    between atoms: O_1  and  C_2
REMARK    2  A    between atoms: C_5  and  C_7
REMARK    3  A    between atoms: C_7  and  O_8
REMARK    4  A    between atoms: O_8  and  P_9
REMARK    5  A    between atoms: P_9  and  O_10
REMARK    6  A    between atoms: P_9  and  O_12
REMARK    7  A    between atoms: O_12  and  P_13
REMARK    8  A    between atoms: P_13  and  O_14
REMARK    9  A    between atoms: P_13  and  O_16
REMARK   10  A    between atoms: O_16  and  C_17
REMARK   11  A    between atoms: C_17  and  C_18
REMARK   12  A    between atoms: C_21  and  N_29
REMARK   13  A    between atoms: C_23  and  O_25
REMARK   14  A    between atoms: C_26  and  O_28
REMARK   15  A    between atoms: C_41  and  O_43
REMARK   16  A    between atoms: C_44  and  O_46
REMARK                            x       y       z     vdW  Elec       q    Type
REMARK                         _______ _______ _______ _____ _____    ______ ____
ROOT
ATOM      1  O   UNL     1      14.320   0.181  -1.500  0.00  0.00    -0.284 OA
ENDROOT
BRANCH   1   2
ATOM      2  P   UNL     1      14.249  -1.435  -1.488  0.00  0.00    +0.483 P 
ATOM      3  O   UNL     1      13.996  -2.008  -0.134  0.00  0.00    -0.227 OA
BRANCH   2   4
ATOM      4  O   UNL     1      13.069  -1.662  -2.545  0.00  0.00    -0.302 OA
ATOM      5  H   UNL     1      13.216  -1.148  -3.360  0.00  0.00    +0.222 HD
ENDBRANCH   2   4
BRANCH   2   6
ATOM      6  O   UNL     1      15.562  -2.089  -2.249  0.00  0.00    -0.186 OA
BRANCH   6   7
ATOM      7  P   UNL     1      16.792  -1.781  -1.073  0.00  0.00    +0.483 P 
ATOM      8  O   UNL     1      17.636  -2.974  -1.520  0.00  0.00    -0.227 OA
BRANCH   7   9
ATOM      9  O   UNL     1      18.023  -1.474   0.104  0.00  0.00    -0.302 OA
ATOM     10  H   UNL     1      18.767  -2.032  -0.202  0.00  0.00    +0.222 HD
ENDBRANCH   7   9
BRANCH   7  11
ATOM     11  O   UNL     1      17.255  -0.447  -1.898  0.00  0.00    -0.284 OA
BRANCH  11  12
ATOM     12  C   UNL     1      18.325  -0.491  -2.830  0.00  0.00    +0.206 C 
BRANCH  12  16
ATOM     13  C   UNL     1      17.269   0.005  -5.660  0.00  0.00    +0.279 C 
ATOM     14  C   UNL     1      18.737  -0.260  -6.023  0.00  0.00    +0.201 C 
ATOM     15  C   UNL     1      19.185  -1.346  -5.052  0.00  0.00    +0.179 C 
ATOM     16  C   UNL     1      18.056  -1.416  -4.029  0.00  0.00    +0.179 C 
ATOM     17  O   UNL     1      16.868  -0.990  -4.725  0.00  0.00    -0.341 OA
BRANCH  13  18
ATOM     18  O   UNL     1      16.437  -0.081  -6.800  0.00  0.00    -0.365 OA
ATOM     19  H   UNL     1      15.603   0.344  -6.540  0.00  0.00    +0.213 HD
ENDBRANCH  13  18
BRANCH  15  20
ATOM     20  O   UNL     1      19.332  -2.589  -5.741  0.00  0.00    -0.386 OA
ATOM     21  H   UNL     1      18.439  -2.928  -5.943  0.00  0.00    +0.210 HD
ENDBRANCH  15  20
BRANCH  14  22
ATOM     22  O   UNL     1      19.521   0.921  -5.823  0.00  0.00    -0.384 OA
ATOM     23  H   UNL     1      20.403   0.731  -6.193  0.00  0.00    +0.210 HD
ENDBRANCH  14  22
ENDBRANCH  12  16
ENDBRANCH  11  12
ENDBRANCH   7  11
ENDBRANCH   6   7
ENDBRANCH   2   6
ENDBRANCH   1   2
BRANCH   1  24
ATOM     24  C   UNL     1      14.483   1.002  -0.324  0.00  0.00    +0.206 C 
BRANCH  24  25
ATOM     25  C   UNL     1      13.324   1.045   0.726  0.00  0.00    +0.178 C 
ATOM     26  C   UNL     1      13.670   1.949   1.935  0.00  0.00    +0.178 C 
ATOM     27  C   UNL     1      12.846   3.231   1.769  0.00  0.00    +0.195 C 
ATOM     28  C   UNL     1      12.075   3.013   0.470  0.00  0.00    +0.253 C 
ATOM     29  O   UNL     1      12.105   1.600   0.175  0.00  0.00    -0.346 OA
BRANCH  28  30
ATOM     30  N   UNL     1      10.705   3.511   0.544  0.00  0.00    -0.286 N 
ATOM     31  C   UNL     1      10.338   4.841   0.639  0.00  0.00    +0.168 A 
ATOM     32  N   UNL     1      11.190   5.913   0.725  0.00  0.00    -0.217 NA
ATOM     33  C   UNL     1      10.568   7.074   0.751  0.00  0.00    +0.207 A 
ATOM     34  N   UNL     1       9.170   7.215   0.706  0.00  0.00    -0.288 N 
ATOM     35  C   UNL     1       8.318   6.138   0.646  0.00  0.00    +0.168 A 
ATOM     36  N   UNL     1       7.057   6.509   0.611  0.00  0.00    -0.234 NA
ATOM     37  C   UNL     1       7.099   7.887   0.648  0.00  0.00    +0.131 A 
ATOM     38  C   UNL     1       8.398   8.348   0.710  0.00  0.00    +0.114 A 
ATOM     39  C   UNL     1       8.958   4.808   0.612  0.00  0.00    +0.151 A 
ATOM     40  N   UNL     1       8.465   3.546   0.547  0.00  0.00    -0.230 NA
ATOM     41  C   UNL     1       9.543   2.784   0.507  0.00  0.00    +0.203 A 
ENDBRANCH  28  30
BRANCH  27  42
ATOM     42  O   UNL     1      13.692   4.383   1.679  0.00  0.00    -0.385 OA
ATOM     43  H   UNL     1      13.102   5.156   1.607  0.00  0.00    +0.210 HD
ENDBRANCH  27  42
BRANCH  26  44
ATOM     44  O   UNL     1      13.297   1.308   3.166  0.00  0.00    -0.386 OA
ATOM     45  H   UNL     1      12.354   1.063   3.129  0.00  0.00    +0.210 HD
ENDBRANCH  26  44
ENDBRANCH  24  25
ENDBRANCH   1  24
TORSDOF 16
