REMARK  Name = 
REMARK  8 active torsions:
REMARK  status: ('A' for Active; 'I' for Inactive)
REMARK    1  A    between atoms: C_1  and  N_2
REMARK    2  A    between atoms: C_3  and  C_4
REMARK    3  A    between atoms: C_4  and  N_5
REMARK    4  A    between atoms: N_5  and  C_6
REMARK    5  A    between atoms: C_9  and  C_12
REMARK    6  A    between atoms: C_20  and  C_21
REMARK    7  A    between atoms: C_21  and  N_22
REMARK    8  A    between atoms: C_23  and  C_24
REMARK                            x       y       z     vdW  Elec       q    Type
REMARK                         _______ _______ _______ _____ _____    ______ ____
ROOT
ATOM      1  C   UNL     1       0.972  -0.030  -0.024  0.00  0.00    +0.150 C 
ATOM      2  N   UNL     1       2.409   0.075  -0.114  0.00  0.00    -0.329 N 
ATOM      3  C   UNL     1       3.228  -1.008  -0.313  0.00  0.00    +0.069 A 
ATOM      4  C   UNL     1       2.981  -2.320  -0.735  0.00  0.00    +0.028 A 
ATOM      5  C   UNL     1       4.044  -3.223  -0.664  0.00  0.00    +0.007 A 
ATOM      6  C   UNL     1       5.295  -2.845  -0.155  0.00  0.00    -0.026 A 
ATOM      7  C   UNL     1       5.539  -1.487   0.163  0.00  0.00    +0.035 A 
ATOM      8  C   UNL     1       4.486  -0.561   0.070  0.00  0.00    +0.090 A 
ATOM      9  N   UNL     1       4.455   0.798   0.302  0.00  0.00    -0.231 NA
ATOM     10  C   UNL     1       3.198   1.181   0.116  0.00  0.00    +0.128 A 
ENDROOT
BRANCH   6  11
ATOM     11  C   UNL     1       6.354  -3.895   0.060  0.00  0.00    +0.158 C 
BRANCH  11  12
ATOM     12  N   UNL     1       6.234  -4.762   1.240  0.00  0.00    -0.323 N 
ATOM     13  C   UNL     1       7.070  -5.862   1.400  0.00  0.00    +0.069 A 
ATOM     14  C   UNL     1       8.131  -6.381   0.642  0.00  0.00    +0.028 A 
ATOM     15  C   UNL     1       8.755  -7.542   1.119  0.00  0.00    +0.002 A 
ATOM     16  C   UNL     1       8.333  -8.161   2.296  0.00  0.00    +0.002 A 
ATOM     17  C   UNL     1       7.275  -7.630   3.038  0.00  0.00    +0.030 A 
ATOM     18  C   UNL     1       6.647  -6.462   2.577  0.00  0.00    +0.089 A 
ATOM     19  N   UNL     1       5.616  -5.764   3.132  0.00  0.00    -0.233 NA
ATOM     20  C   UNL     1       5.394  -4.730   2.340  0.00  0.00    +0.108 A 
ATOM     21  C   UNL     1       4.349  -3.730   2.675  0.00  0.00    +0.086 C 
ENDBRANCH  11  12
ENDBRANCH   6  11
BRANCH  10  22
ATOM     22  C   UNL     1       2.688   2.608   0.093  0.00  0.00    +0.176 C 
BRANCH  22  23
ATOM     23  N   UNL     1       2.226   3.132   1.384  0.00  0.00    -0.337 N 
ATOM     24  H   UNL     1       1.740   2.429   1.930  0.00  0.00    +0.147 HD
BRANCH  23  25
ATOM     25  C   UNL     1       1.637   4.395   1.467  0.00  0.00    +0.027 A 
ATOM     26  C   UNL     1       1.980   5.482   0.653  0.00  0.00    +0.024 A 
ATOM     27  C   UNL     1       1.374   6.742   0.816  0.00  0.00    +0.017 A 
ATOM     28  C   UNL     1       0.414   6.939   1.810  0.00  0.00    +0.065 A 
ATOM     29  C   UNL     1       0.112   5.885   2.677  0.00  0.00    +0.017 A 
ATOM     30  C   UNL     1       0.732   4.640   2.512  0.00  0.00    +0.024 A 
BRANCH  28  31
ATOM     31  C   UNL     1      -0.279   8.252   1.954  0.00  0.00    +0.308 C 
ATOM     32  N   UNL     1      -1.491   8.361   2.399  0.00  0.00    -0.099 NA
ATOM     33  H   UNL     1      -1.906   7.443   2.584  0.00  0.00    +0.363 HD
ATOM     34  N   UNL     1       0.346   9.414   1.617  0.00  0.00    -0.247 N 
ATOM     35  H   UNL     1      -0.180  10.212   1.966  0.00  0.00    +0.288 HD
ATOM     36  H   UNL     1       1.330   9.472   1.852  0.00  0.00    +0.288 HD
ENDBRANCH  28  31
ENDBRANCH  23  25
ENDBRANCH  22  23
ENDBRANCH  10  22
TORSDOF 6
