REMARK  Name = 
REMARK  4 active torsions:
REMARK  status: ('A' for Active; 'I' for Inactive)
REMARK    1  A    between atoms: O_1  and  C_2
REMARK    2  A    between atoms: C_4  and  N_12
REMARK    3  A    between atoms: C_6  and  N_9
REMARK    4  A    between atoms: C_7  and  O_8
REMARK                            x       y       z     vdW  Elec       q    Type
REMARK                         _______ _______ _______ _____ _____    ______ ____
ROOT
ATOM      1  C   UNL     1       2.477   0.035   0.012  0.00  0.00    +0.172 A 
ATOM      2  C   UNL     1       3.199  -1.167   0.013  0.00  0.00    +0.237 A 
ATOM      3  C   UNL     1       4.601  -1.119   0.016  0.00  0.00    +0.324 A 
ATOM      4  C   UNL     1       5.273   0.116   0.017  0.00  0.00    +0.172 A 
ATOM      5  C   UNL     1       4.525   1.302   0.015  0.00  0.00    +0.283 A 
ATOM      6  C   UNL     1       3.125   1.269   0.013  0.00  0.00    +0.133 A 
ENDROOT
BRANCH   3   7
ATOM      7  N   UNL     1       5.399  -2.350   0.018  0.00  0.00    +0.084 N 
ATOM      8  O   UNL     1       4.789  -3.430   0.017  0.00  0.00    +0.042 OA
ATOM      9  O   UNL     1       6.632  -2.240   0.021  0.00  0.00    -0.576 OA
ENDBRANCH   3   7
BRANCH   5  10
ATOM     10  N   UNL     1       5.216   2.599   0.015  0.00  0.00    +0.080 N 
ATOM     11  O   UNL     1       6.454   2.588   0.016  0.00  0.00    +0.041 OA
ATOM     12  O   UNL     1       4.517   3.621   0.014  0.00  0.00    -0.576 OA
ENDBRANCH   5  10
BRANCH   1  13
ATOM     13  O   UNL     1       1.110  -0.016   0.009  0.00  0.00    -0.503 OA
ATOM     14  H   UNL     1       0.733   0.879   0.011  0.00  0.00    +0.292 HD
ENDBRANCH   1  13
BRANCH   2  15
ATOM     15  O   UNL     1       2.464  -2.325   0.012  0.00  0.00    -0.499 OA
ATOM     16  H   UNL     1       3.048  -3.111   0.012  0.00  0.00    +0.293 HD
ENDBRANCH   2  15
TORSDOF 4
