REMARK  Name = 
REMARK  14 active torsions:
REMARK  status: ('A' for Active; 'I' for Inactive)
REMARK    1  A    between atoms: C_1  and  C_2
REMARK    2  A    between atoms: C_5  and  O_6
REMARK    3  A    between atoms: O_6  and  C_7
REMARK    4  A    between atoms: C_7  and  C_8
REMARK    5  A    between atoms: C_8  and  N_9
REMARK    6  A    between atoms: N_9  and  C_10
REMARK    7  A    between atoms: C_12  and  C_13
REMARK    8  A    between atoms: C_13  and  CA_14
REMARK    9  A    between atoms: CA_14  and  N_16
REMARK   10  A    between atoms: CA_14  and  C_17
REMARK   11  A    between atoms: C_17  and  O_18
REMARK   12  A    between atoms: C_20  and  O_21
REMARK   13  A    between atoms: C_23  and  O_24
REMARK   14  A    between atoms: C_25  and  C_26
REMARK                            x       y       z     vdW  Elec       q    Type
REMARK                         _______ _______ _______ _____ _____    ______ ____
ROOT
ATOM      1  C   UNL     1       3.760  -3.369  -1.313  0.00  0.00    +0.074 A 
ATOM      2  C   UNL     1       4.168  -4.298  -2.281  0.00  0.00    +0.141 A 
ATOM      3  C   UNL     1       4.911  -3.909  -3.390  0.00  0.00    +0.093 A 
ATOM      4  C   UNL     1       5.237  -2.564  -3.576  0.00  0.00    +0.124 A 
ATOM      5  C   UNL     1       4.786  -1.582  -2.687  0.00  0.00    -0.002 A 
ATOM      6  C   UNL     1       4.078  -2.018  -1.535  0.00  0.00    +0.034 A 
ENDROOT
BRANCH   1   7
ATOM      7  N   UNL     1       3.202  -3.862  -0.105  0.00  0.00    -0.312 N 
ATOM      8  H   UNL     1       2.669  -4.716  -0.284  0.00  0.00    +0.152 HD
BRANCH   7   9
ATOM      9  C   UNL     1       2.789  -3.124   0.991  0.00  0.00    +0.049 C 
ATOM     10  C   UNL     1       3.584  -2.865   2.048  0.00  0.00    +0.064 C 
BRANCH  10  11
ATOM     11  C   UNL     1       4.973  -3.355   2.158  0.00  0.00    +0.252 C 
ATOM     12  O   UNL     1       5.662  -3.069   3.132  0.00  0.00    -0.296 OA
ENDBRANCH  10  11
BRANCH   9  13
ATOM     13  C   UNL     1       1.371  -2.556   0.996  0.00  0.00    +0.279 C 
BRANCH  13  14
ATOM     14  O   UNL     1       0.438  -3.544   1.437  0.00  0.00    -0.486 OA
BRANCH  14  19
ATOM     15  C   UNL     1      -4.802  -2.209   3.211  0.00  0.00    +0.044 C 
ATOM     16  C   UNL     1      -3.445  -2.519   2.647  0.00  0.00    -0.050 A 
ATOM     17  C   UNL     1      -2.485  -1.508   2.541  0.00  0.00    +0.007 A 
ATOM     18  C   UNL     1      -1.183  -1.802   2.112  0.00  0.00    +0.046 A 
ATOM     19  C   UNL     1      -0.820  -3.108   1.786  0.00  0.00    +0.121 A 
ATOM     20  C   UNL     1      -1.792  -4.111   1.853  0.00  0.00    +0.046 A 
ATOM     21  C   UNL     1      -3.097  -3.819   2.269  0.00  0.00    +0.007 A 
ENDBRANCH  14  19
ENDBRANCH  13  14
ENDBRANCH   9  13
ENDBRANCH   7   9
ENDBRANCH   1   7
BRANCH   2  22
ATOM     22  O   UNL     1       3.840  -5.618  -2.098  0.00  0.00    -0.505 OA
ATOM     23  H   UNL     1       4.136  -6.115  -2.881  0.00  0.00    +0.292 HD
ENDBRANCH   2  22
BRANCH   4  24
ATOM     24  O   UNL     1       6.042  -2.334  -4.650  0.00  0.00    -0.506 OA
ATOM     25  H   UNL     1       6.437  -1.440  -4.658  0.00  0.00    +0.292 HD
ENDBRANCH   4  24
BRANCH   5  26
ATOM     26  C   UNL     1       5.106  -0.105  -2.819  0.00  0.00    +0.068 C 
BRANCH  26  27
ATOM     27  CA  UNL     1       4.500   0.719  -3.978  0.00  0.00    +0.165 C 
BRANCH  27  28
ATOM     28  N   UNL     1       3.043   0.554  -4.219  0.00  0.00    -0.318 NA
ATOM     29  H1  UNL     1       2.558   0.632  -3.321  0.00  0.00    +0.119 HD
ATOM     30  H2  UNL     1       2.871  -0.415  -4.512  0.00  0.00    +0.119 HD
ENDBRANCH  27  28
BRANCH  27  31
ATOM     31  C   UNL     1       5.238   0.555  -5.310  0.00  0.00    +0.322 C 
ATOM     32  OXT UNL     1       6.387   0.153  -5.425  0.00  0.00    -0.249 OA
BRANCH  31  33
ATOM     33  O   UNL     1       4.469   0.951  -6.356  0.00  0.00    -0.480 OA
ATOM     34  H   UNL     1       3.581   1.187  -5.990  0.00  0.00    +0.295 HD
ENDBRANCH  31  33
ENDBRANCH  27  31
ENDBRANCH  26  27
ENDBRANCH   5  26
TORSDOF 13
