REMARK  Name = 
REMARK  21 active torsions:
REMARK  status: ('A' for Active; 'I' for Inactive)
REMARK    1  A    between atoms: C_1  and  C_2
REMARK    2  A    between atoms: C_2  and  O_3
REMARK    3  A    between atoms: O_3  and  C_4
REMARK    4  A    between atoms: C_4  and  C_6
REMARK    5  A    between atoms: C_6  and  C_7
REMARK    6  A    between atoms: C_7  and  C_8
REMARK    7  A    between atoms: C_8  and  C_10
REMARK    8  A    between atoms: C_8  and  N_18
REMARK    9  A    between atoms: C_10  and  C_11
REMARK   10  A    between atoms: C_19  and  C_21
REMARK   11  A    between atoms: C_21  and  C_23
REMARK   12  A    between atoms: C_21  and  C_40
REMARK   13  A    between atoms: C_23  and  C_24
REMARK   14  A    between atoms: C_24  and  C_26
REMARK   15  A    between atoms: C_26  and  N_28
REMARK   16  A    between atoms: C_26  and  C_37
REMARK   17  A    between atoms: C_29  and  C_31
REMARK   18  A    between atoms: C_34  and  C_35
REMARK   19  A    between atoms: C_37  and  C_38
REMARK   20  A    between atoms: C_37  and  C_39
REMARK   21  A    between atoms: C_40  and  C_41
REMARK                            x       y       z     vdW  Elec       q    Type
REMARK                         _______ _______ _______ _____ _____    ______ ____
ROOT
ATOM      1  C   UNL     1       4.147   2.055  -1.536  0.00  0.00    +0.086 C 
ENDROOT
BRANCH   1   4
ATOM      2  N   UNL     1       4.352   3.272   0.582  0.00  0.00    -0.312 N 
ATOM      3  H   UNL     1       3.628   3.854   0.184  0.00  0.00    +0.149 HD
ATOM      4  C   UNL     1       4.621   2.084  -0.079  0.00  0.00    +0.217 C 
ATOM      5  O   UNL     1       5.239   1.166   0.448  0.00  0.00    -0.275 OA
BRANCH   2   6
ATOM      6  C   UNL     1       4.663   3.433   2.008  0.00  0.00    +0.074 C 
BRANCH   6   7
ATOM      7  C   UNL     1       6.191   3.576   2.191  0.00  0.00    +0.033 C 
BRANCH   7   8
ATOM      8  C   UNL     1       6.653   3.686   3.645  0.00  0.00    +0.122 C 
BRANCH   8   9
ATOM      9  C   UNL     1       8.157   3.575   3.722  0.00  0.00    +0.307 C 
ATOM     10  O   UNL     1       8.934   3.936   2.846  0.00  0.00    -0.251 OA
BRANCH   9  11
ATOM     11  O   UNL     1       8.511   2.990   4.900  0.00  0.00    -0.465 OA
BRANCH  11  13
ATOM     12  C   UNL     1       9.855   1.089   4.355  0.00  0.00    +0.048 C 
ATOM     13  C   UNL     1       9.851   2.483   4.956  0.00  0.00    +0.229 C 
ENDBRANCH  11  13
ENDBRANCH   9  11
ENDBRANCH   8   9
ENDBRANCH   7   8
ENDBRANCH   6   7
BRANCH   6  14
ATOM     14  C   UNL     1       3.899   4.640   2.606  0.00  0.00    +0.035 C 
BRANCH  14  15
ATOM     15  C   UNL     1       2.369   4.528   2.500  0.00  0.00    +0.078 C 
ATOM     16  C   UNL     1       1.830   3.436   3.405  0.00  0.00    +0.216 C 
ATOM     17  O   UNL     1       1.947   2.236   3.247  0.00  0.00    -0.276 OA
ATOM     18  N   UNL     1       1.233   4.023   4.496  0.00  0.00    -0.315 N 
ATOM     19  H   UNL     1       0.891   3.451   5.259  0.00  0.00    +0.149 HD
ATOM     20  C   UNL     1       1.382   5.443   4.509  0.00  0.00    +0.105 C 
ATOM     21  C   UNL     1       1.651   5.774   3.053  0.00  0.00    +0.031 C 
ENDBRANCH  14  15
ENDBRANCH   6  14
ENDBRANCH   2   6
ENDBRANCH   1   4
BRANCH   1  22
ATOM     22  C   UNL     1       3.231   0.870  -1.862  0.00  0.00    +0.048 C 
BRANCH  22  23
ATOM     23  C   UNL     1       1.969   0.869  -1.039  0.00  0.00    -0.046 A 
ATOM     24  C   UNL     1       1.967   0.222   0.207  0.00  0.00    +0.006 A 
ATOM     25  C   UNL     1       0.825   0.228   0.999  0.00  0.00    +0.038 A 
ATOM     26  C   UNL     1      -0.316   0.876   0.544  0.00  0.00    +0.123 A 
ATOM     27  F   UNL     1      -1.415   0.888   1.308  0.00  0.00    -0.205 F 
ATOM     28  C   UNL     1      -0.333   1.514  -0.692  0.00  0.00    +0.038 A 
ATOM     29  C   UNL     1       0.812   1.519  -1.487  0.00  0.00    +0.006 A 
ENDBRANCH  22  23
ENDBRANCH   1  22
BRANCH   1  30
ATOM     30  C   UNL     1       5.354   2.120  -2.480  0.00  0.00    +0.089 C 
BRANCH  30  31
ATOM     31  C   UNL     1       6.336   0.944  -2.409  0.00  0.00    +0.154 C 
ATOM     32  O   UNL     1       6.001  -0.151  -1.949  0.00  0.00    -0.295 OA
BRANCH  31  33
ATOM     33  C   UNL     1       7.663   1.051  -3.182  0.00  0.00    +0.142 C 
BRANCH  33  34
ATOM     34  N   UNL     1       7.402   0.391  -4.462  0.00  0.00    -0.300 N 
ATOM     35  H   UNL     1       6.612   0.676  -5.032  0.00  0.00    +0.150 HD
ATOM     36  C   UNL     1       7.984  -0.808  -4.824  0.00  0.00    +0.266 C 
ATOM     37  O   UNL     1       8.878  -1.352  -4.185  0.00  0.00    -0.268 OA
BRANCH  36  38
ATOM     38  C   UNL     1       7.463  -1.370  -6.076  0.00  0.00    +0.168 A 
ATOM     39  C   UNL     1       7.883  -2.556  -6.731  0.00  0.00    +0.080 A 
ATOM     40  C   UNL     1       7.093  -2.635  -7.850  0.00  0.00    +0.135 A 
ATOM     41  C   UNL     1       6.978  -3.603  -8.957  0.00  0.00    +0.089 C 
ATOM     42  O   UNL     1       6.256  -1.565  -7.881  0.00  0.00    -0.359 OA
ATOM     43  N   UNL     1       6.481  -0.765  -6.773  0.00  0.00    -0.073 NA
ENDBRANCH  36  38
ENDBRANCH  33  34
BRANCH  33  44
ATOM     44  C   UNL     1       8.214   2.477  -3.367  0.00  0.00    +0.010 C 
ATOM     45  C   UNL     1       9.472   2.481  -4.244  0.00  0.00    +0.009 C 
ATOM     46  C   UNL     1       8.566   3.127  -2.020  0.00  0.00    +0.009 C 
ENDBRANCH  33  44
ENDBRANCH  31  33
ENDBRANCH  30  31
ENDBRANCH   1  30
TORSDOF 17
