REMARK  Name = 
REMARK  9 active torsions:
REMARK  status: ('A' for Active; 'I' for Inactive)
REMARK    1  A    between atoms: C_1  and  N_2
REMARK    2  A    between atoms: N_4  and  C_5
REMARK    3  A    between atoms: C_5  and  C_6
REMARK    4  A    between atoms: C_6  and  C_7
REMARK    5  A    between atoms: C_7  and  CA_8
REMARK    6  A    between atoms: CA_8  and  N_10
REMARK    7  A    between atoms: CA_8  and  C_11
REMARK    8  A    between atoms: C_11  and  O_12
REMARK    9  A    between atoms: N_14  and  C_15
REMARK                            x       y       z     vdW  Elec       q    Type
REMARK                         _______ _______ _______ _____ _____    ______ ____
ROOT
ATOM      1  C   UNL     1      -2.228  -6.783   2.475  0.00  0.00    +0.039 C 
ENDROOT
BRANCH   1   2
ATOM      2  C   UNL     1      -1.524  -8.025   1.916  0.00  0.00    +0.196 C 
BRANCH   2   9
ATOM      3  C   UNL     1      -4.349 -11.237   1.444  0.00  0.00    +0.239 C 
ATOM      4  N   UNL     1      -2.934 -11.316   1.199  0.00  0.00    -0.279 N 
ATOM      5  H   UNL     1      -2.634 -12.182   0.771  0.00  0.00    +0.258 HD
ATOM      6  C   UNL     1      -1.999 -10.324   1.229  0.00  0.00    +0.381 C 
ATOM      7  N   UNL     1      -0.765 -10.460   0.886  0.00  0.00    -0.117 NA
ATOM      8  C   UNL     1      -0.276 -11.753   0.443  0.00  0.00    +0.291 C 
ATOM      9  N   UNL     1      -2.463  -9.109   1.660  0.00  0.00    -0.276 N 
ATOM     10  H   UNL     1      -3.244  -9.153   2.297  0.00  0.00    +0.258 HD
ENDBRANCH   2   9
ENDBRANCH   1   2
BRANCH   1  11
ATOM     11  C   UNL     1      -1.213  -5.639   2.662  0.00  0.00    +0.033 C 
BRANCH  11  12
ATOM     12  CA  UNL     1      -1.776  -4.336   3.243  0.00  0.00    +0.161 C 
BRANCH  12  13
ATOM     13  N   UNL     1      -2.445  -4.554   4.557  0.00  0.00    -0.318 NA
ATOM     14  H1  UNL     1      -1.771  -5.013   5.177  0.00  0.00    +0.119 HD
ATOM     15  H2  UNL     1      -2.584  -3.632   4.988  0.00  0.00    +0.119 HD
ENDBRANCH  12  13
BRANCH  12  16
ATOM     16  C   UNL     1      -2.777  -3.692   2.276  0.00  0.00    +0.322 C 
ATOM     17  OXT UNL     1      -2.483  -3.080   1.263  0.00  0.00    -0.249 OA
BRANCH  16  18
ATOM     18  O   UNL     1      -4.059  -3.906   2.681  0.00  0.00    -0.480 OA
ATOM     19  H   UNL     1      -3.994  -4.416   3.525  0.00  0.00    +0.295 HD
ENDBRANCH  16  18
ENDBRANCH  12  16
ENDBRANCH  11  12
ENDBRANCH   1  11
TORSDOF 7
