REMARK  Name = 
REMARK  11 active torsions:
REMARK  status: ('A' for Active; 'I' for Inactive)
REMARK    1  A    between atoms: C_1  and  C_2
REMARK    2  A    between atoms: C_5  and  O_7
REMARK    3  A    between atoms: C_8  and  O_10
REMARK    4  A    between atoms: C_11  and  O_13
REMARK    5  A    between atoms: C_14  and  N_16
REMARK    6  A    between atoms: N_16  and  C_17
REMARK    7  A    between atoms: C_20  and  C_21
REMARK    8  A    between atoms: C_21  and  O_22
REMARK    9  A    between atoms: C_23  and  O_25
REMARK   10  A    between atoms: C_26  and  O_28
REMARK   11  A    between atoms: C_29  and  O_31
REMARK                            x       y       z     vdW  Elec       q    Type
REMARK                         _______ _______ _______ _____ _____    ______ ____
ROOT
ATOM      1  N   UNL     1       1.192   1.283   1.373  0.00  0.00    -0.300 NA
ATOM      2  H   UNL     1       1.423   0.394   0.915  0.00  0.00    +0.123 HD
ENDROOT
BRANCH   1   5
ATOM      3  C   UNL     1      -0.802   1.734   3.652  0.00  0.00    +0.039 C 
ATOM      4  C   UNL     1      -0.969   2.293   2.241  0.00  0.00    +0.138 C 
ATOM      5  C   UNL     1      -0.277   1.407   1.176  0.00  0.00    +0.114 C 
ATOM      6  C   UNL     1      -0.726   1.697  -0.277  0.00  0.00    +0.167 C 
ATOM      7  C   UNL     1      -2.213   2.057  -0.395  0.00  0.00    +0.200 C 
ATOM      8  C   UNL     1      -2.573   3.066   0.706  0.00  0.00    +0.279 C 
ATOM      9  O   UNL     1      -2.368   2.464   1.977  0.00  0.00    -0.344 OA
BRANCH   6  10
ATOM     10  O   UNL     1      -0.450   0.549  -1.107  0.00  0.00    -0.387 OA
ATOM     11  H   UNL     1      -1.024   0.645  -1.894  0.00  0.00    +0.210 HD
ENDBRANCH   6  10
BRANCH   7  12
ATOM     12  O   UNL     1      -2.427   2.553  -1.732  0.00  0.00    -0.384 OA
ATOM     13  H   UNL     1      -2.330   3.522  -1.708  0.00  0.00    +0.210 HD
ENDBRANCH   7  12
BRANCH   8  14
ATOM     14  O   UNL     1      -3.935   3.444   0.595  0.00  0.00    -0.365 OA
ATOM     15  H   UNL     1      -4.050   4.166   1.235  0.00  0.00    +0.213 HD
ENDBRANCH   8  14
ENDBRANCH   1   5
BRANCH   1  16
ATOM     16  C   UNL     1       2.105   2.281   0.767  0.00  0.00    +0.109 C 
ATOM     17  C   UNL     1       2.111   3.799   1.140  0.00  0.00    +0.166 C 
ATOM     18  C   UNL     1       2.771   4.187   2.479  0.00  0.00    +0.177 C 
ATOM     19  C   UNL     1       4.047   3.390   2.815  0.00  0.00    +0.173 C 
ATOM     20  C   UNL     1       4.350   2.181   1.967  0.00  0.00    -0.016 C 
ATOM     21  C   UNL     1       3.481   1.717   1.050  0.00  0.00    -0.002 C 
BRANCH  17  22
ATOM     22  O   UNL     1       0.834   4.444   1.020  0.00  0.00    -0.387 OA
ATOM     23  H   UNL     1       0.647   4.780   1.920  0.00  0.00    +0.210 HD
ENDBRANCH  17  22
BRANCH  18  24
ATOM     24  O   UNL     1       1.807   4.136   3.541  0.00  0.00    -0.386 OA
ATOM     25  H   UNL     1       2.260   4.422   4.361  0.00  0.00    +0.210 HD
ENDBRANCH  18  24
BRANCH  19  26
ATOM     26  O   UNL     1       5.165   4.287   2.738  0.00  0.00    -0.385 OA
ATOM     27  H   UNL     1       5.310   4.501   1.799  0.00  0.00    +0.210 HD
ENDBRANCH  19  26
BRANCH  20  28
ATOM     28  C   UNL     1       5.658   1.505   2.310  0.00  0.00    +0.189 C 
BRANCH  28  29
ATOM     29  O   UNL     1       5.815   0.276   1.618  0.00  0.00    -0.391 OA
ATOM     30  H   UNL     1       5.152  -0.333   1.986  0.00  0.00    +0.210 HD
ENDBRANCH  28  29
ENDBRANCH  20  28
ENDBRANCH   1  16
TORSDOF 10
