REMARK  Name = 
REMARK  9 active torsions:
REMARK  status: ('A' for Active; 'I' for Inactive)
REMARK    1  A    between atoms: O_1  and  C_2
REMARK    2  A    between atoms: C_4  and  O_6
REMARK    3  A    between atoms: C_7  and  N_18
REMARK    4  A    between atoms: C_10  and  C_12
REMARK    5  A    between atoms: C_12  and  O_13
REMARK    6  A    between atoms: O_13  and  P_14
REMARK    7  A    between atoms: P_14  and  O_15
REMARK    8  A    between atoms: P_14  and  O_16
REMARK    9  A    between atoms: C_25  and  O_26
REMARK                            x       y       z     vdW  Elec       q    Type
REMARK                         _______ _______ _______ _____ _____    ______ ____
ROOT
ATOM      1  C   UNL     1       2.303   0.168  -0.164  0.00  0.00    +0.178 C 
ATOM      2  C   UNL     1       2.880  -1.076   0.519  0.00  0.00    +0.178 C 
ATOM      3  O   UNL     1       4.026  -0.675   1.292  0.00  0.00    -0.345 OA
ATOM      4  C   UNL     1       4.289   0.718   1.029  0.00  0.00    +0.258 C 
ATOM      5  C   UNL     1       2.906   1.300   0.645  0.00  0.00    +0.195 C 
ENDROOT
BRANCH   4   6
ATOM      6  N   UNL     1       5.335   0.929  -0.000  0.00  0.00    -0.235 N 
ATOM      7  C   UNL     1       6.080  -0.072  -0.606  0.00  0.00    +0.204 A 
ATOM      8  C   UNL     1       6.988   0.191  -1.552  0.00  0.00    +0.135 A 
ATOM      9  C   UNL     1       7.207   1.580  -1.966  0.00  0.00    +0.258 A 
ATOM     10  O   UNL     1       7.956   1.848  -2.894  0.00  0.00    -0.268 OA
ATOM     11  N   UNL     1       6.528   2.515  -1.253  0.00  0.00    -0.275 N 
ATOM     12  H   UNL     1       6.684   3.482  -1.492  0.00  0.00    +0.173 HD
ATOM     13  C   UNL     1       5.629   2.262  -0.261  0.00  0.00    +0.334 A 
ATOM     14  O   UNL     1       5.111   3.212   0.333  0.00  0.00    -0.246 OA
BRANCH   7  15
ATOM     15  O   UNL     1       5.847  -1.377  -0.235  0.00  0.00    -0.493 OA
ATOM     16  H   UNL     1       6.544  -1.953  -0.595  0.00  0.00    +0.294 HD
ENDBRANCH   7  15
ENDBRANCH   4   6
BRANCH   1  17
ATOM     17  O   UNL     1       2.725   0.255  -1.531  0.00  0.00    -0.386 OA
ATOM     18  H   UNL     1       3.672   0.033  -1.571  0.00  0.00    +0.210 HD
ENDBRANCH   1  17
BRANCH   5  19
ATOM     19  O   UNL     1       2.115   1.528   1.821  0.00  0.00    -0.385 OA
ATOM     20  H   UNL     1       1.351   2.070   1.551  0.00  0.00    +0.210 HD
ENDBRANCH   5  19
BRANCH   2  21
ATOM     21  C   UNL     1       1.873  -1.763   1.427  0.00  0.00    +0.206 C 
BRANCH  21  22
ATOM     22  O   UNL     1       0.791  -2.221   0.628  0.00  0.00    -0.284 OA
BRANCH  22  23
ATOM     23  P   UNL     1      -0.419  -3.032   1.562  0.00  0.00    +0.472 P 
ATOM     24  O   UNL     1      -1.502  -3.758   2.397  0.00  0.00    -0.228 OA
BRANCH  23  25
ATOM     25  O   UNL     1      -0.784  -3.746   0.133  0.00  0.00    -0.303 OA
ATOM     26  H   UNL     1       0.030  -4.076  -0.289  0.00  0.00    +0.222 HD
ENDBRANCH  23  25
BRANCH  23  27
ATOM     27  O   UNL     1      -1.297  -1.691   1.230  0.00  0.00    -0.303 OA
ATOM     28  H   UNL     1      -1.680  -1.837   0.345  0.00  0.00    +0.222 HD
ENDBRANCH  23  27
ENDBRANCH  22  23
ENDBRANCH  21  22
ENDBRANCH   2  21
TORSDOF 9
