REMARK  Name = 
REMARK  7 active torsions:
REMARK  status: ('A' for Active; 'I' for Inactive)
REMARK    1  A    between atoms: CE_1  and  SD_2
REMARK    2  A    between atoms: SD_2  and  CG_3
REMARK    3  A    between atoms: CG_3  and  CB_4
REMARK    4  A    between atoms: CB_4  and  CA_5
REMARK    5  A    between atoms: CA_5  and  N_7
REMARK    6  A    between atoms: CA_5  and  C_8
REMARK    7  A    between atoms: C_8  and  O_9
REMARK                            x       y       z     vdW  Elec       q    Type
REMARK                         _______ _______ _______ _____ _____    ______ ____
ROOT
ATOM      1  CA  MET A   1       5.352   2.632  -1.775  0.00  0.00    +0.161 C 
ENDROOT
BRANCH   1   2
ATOM      2  N   MET A   1       4.983   3.952  -1.188  0.00  0.00    -0.318 NA
ATOM      3  H1  MET A   1       5.300   4.682  -1.837  0.00  0.00    +0.119 HD
ATOM      4  H2  MET A   1       3.964   4.043  -1.201  0.00  0.00    +0.119 HD
ENDBRANCH   1   2
BRANCH   1   5
ATOM      5  C   MET A   1       6.887   2.550  -1.828  0.00  0.00    +0.322 C 
ATOM      6  OXT MET A   1       7.527   1.845  -2.591  0.00  0.00    -0.249 OA
BRANCH   5   7
ATOM      7  O   MET A   1       7.455   3.355  -0.891  0.00  0.00    -0.480 OA
ATOM      8  H   MET A   1       6.711   3.811  -0.426  0.00  0.00    +0.295 HD
ENDBRANCH   5   7
ENDBRANCH   1   5
BRANCH   1   9
ATOM      9  CB  MET A   1       4.833   1.459  -0.933  0.00  0.00    +0.040 C 
BRANCH   9  10
ATOM     10  CG  MET A   1       3.310   1.353  -0.922  0.00  0.00    +0.071 C 
BRANCH  10  12
ATOM     11  CE  MET A   1       1.007   0.089  -0.087  0.00  0.00    +0.084 C 
ATOM     12  SD  MET A   1       2.799  -0.083   0.078  0.00  0.00    -0.164 S 
ENDBRANCH  10  12
ENDBRANCH   9  10
ENDBRANCH   1   9
TORSDOF 6
