REMARK  Name = 
REMARK  22 active torsions:
REMARK  status: ('A' for Active; 'I' for Inactive)
REMARK    1  A    between atoms: C_1  and  C_2
REMARK    2  A    between atoms: C_2  and  C_3
REMARK    3  A    between atoms: C_2  and  C_4
REMARK    4  A    between atoms: C_4  and  C_5
REMARK    5  A    between atoms: C_5  and  N_7
REMARK    6  A    between atoms: C_5  and  C_34
REMARK    7  A    between atoms: C_8  and  C_10
REMARK    8  A    between atoms: C_26  and  C_28
REMARK    9  A    between atoms: C_28  and  C_29
REMARK   10  A    between atoms: C_28  and  C_30
REMARK   11  A    between atoms: C_34  and  O_36
REMARK   12  A    between atoms: C_34  and  C_37
REMARK   13  A    between atoms: C_37  and  C_38
REMARK   14  A    between atoms: C_38  and  C_40
REMARK   15  A    between atoms: C_38  and  C_41
REMARK   16  A    between atoms: N_43  and  C_44
REMARK   17  A    between atoms: C_44  and  C_46
REMARK   18  A    between atoms: C_44  and  C_49
REMARK   19  A    between atoms: C_46  and  C_47
REMARK   20  A    between atoms: C_46  and  C_48
REMARK   21  A    between atoms: N_51  and  C_52
REMARK   22  A    between atoms: C_52  and  C_53
REMARK                            x       y       z     vdW  Elec       q    Type
REMARK                         _______ _______ _______ _____ _____    ______ ____
ROOT
ATOM      1  C   UNL     1       4.524   5.403  -3.148  0.00  0.00    +0.102 C 
ENDROOT
BRANCH   1   2
ATOM      2  N   UNL     1       5.450   4.962  -4.205  0.00  0.00    -0.308 N 
ATOM      3  H   UNL     1       5.746   3.991  -4.215  0.00  0.00    +0.149 HD
ATOM      4  C   UNL     1       5.812   5.778  -5.256  0.00  0.00    +0.234 C 
ATOM      5  O   UNL     1       5.417   6.938  -5.384  0.00  0.00    -0.274 OA
BRANCH   4   6
ATOM      6  C   UNL     1       6.714   5.121  -6.317  0.00  0.00    +0.168 C 
ATOM      7  N   UNL     1       7.456   6.200  -6.990  0.00  0.00    -0.302 N 
ATOM      8  H   UNL     1       7.132   7.144  -6.786  0.00  0.00    +0.150 HD
ATOM      9  C   UNL     1       8.516   5.958  -7.806  0.00  0.00    +0.234 C 
ATOM     10  O   UNL     1       9.042   4.844  -7.835  0.00  0.00    -0.274 OA
ATOM     11  C   UNL     1       9.088   7.144  -8.646  0.00  0.00    +0.165 C 
ATOM     12  N   UNL     1      10.277   6.524  -9.294  0.00  0.00    -0.270 N 
ATOM     13  H   UNL     1      10.569   5.711  -8.754  0.00  0.00    +0.153 HD
ATOM     14  C   UNL     1      10.226   6.136 -10.607  0.00  0.00    +0.401 C 
ATOM     15  O   UNL     1      10.151   6.893 -11.561  0.00  0.00    -0.226 OA
ATOM     16  O   UNL     1      10.254   4.785 -10.717  0.00  0.00    -0.450 OA
ATOM     17  C   UNL     1      10.069   4.373 -12.076  0.00  0.00    +0.234 C 
ATOM     18  C   UNL     1       9.897   2.862 -12.183  0.00  0.00    +0.041 C 
ATOM     19  C   UNL     1       8.435   2.404 -12.119  0.00  0.00    +0.003 C 
ATOM     20  C   UNL     1       7.946   2.115 -10.700  0.00  0.00    +0.002 C 
ATOM     21  C   UNL     1       6.523   1.544 -10.731  0.00  0.00    +0.019 C 
ATOM     22  C   UNL     1       5.991   1.198  -9.340  0.00  0.00    +0.104 C 
ATOM     23  N   UNL     1       5.572   2.398  -8.647  0.00  0.00    -0.315 N 
ATOM     24  H   UNL     1       4.768   2.890  -9.014  0.00  0.00    +0.149 HD
ATOM     25  C   UNL     1       6.323   2.984  -7.649  0.00  0.00    +0.215 C 
ATOM     26  O   UNL     1       7.257   2.430  -7.086  0.00  0.00    -0.276 OA
ATOM     27  C   UNL     1       5.813   4.364  -7.300  0.00  0.00    +0.127 C 
BRANCH  11  28
ATOM     28  C   UNL     1       8.074   7.812  -9.625  0.00  0.00    +0.012 C 
ATOM     29  C   UNL     1       6.755   8.271  -8.992  0.00  0.00    +0.009 C 
ATOM     30  C   UNL     1       8.661   9.060 -10.309  0.00  0.00    +0.009 C 
ENDBRANCH  11  28
ENDBRANCH   4   6
ENDBRANCH   1   2
BRANCH   1  31
ATOM     31  C   UNL     1       3.085   4.916  -3.507  0.00  0.00    +0.028 C 
BRANCH  31  33
ATOM     32  C   UNL     1       1.796   6.796  -2.322  0.00  0.00    +0.007 C 
ATOM     33  C   UNL     1       1.944   5.286  -2.530  0.00  0.00    -0.015 C 
ATOM     34  C   UNL     1       0.604   4.693  -2.970  0.00  0.00    +0.007 C 
ENDBRANCH  31  33
ENDBRANCH   1  31
BRANCH   1  35
ATOM     35  C   UNL     1       5.009   4.936  -1.739  0.00  0.00    +0.135 C 
BRANCH  35  36
ATOM     36  O   UNL     1       4.094   5.401  -0.756  0.00  0.00    -0.390 OA
ATOM     37  H   UNL     1       4.105   4.783   0.004  0.00  0.00    +0.210 HD
ENDBRANCH  35  36
BRANCH  35  38
ATOM     38  C   UNL     1       6.402   5.490  -1.364  0.00  0.00    +0.045 C 
BRANCH  38  39
ATOM     39  C   UNL     1       6.914   5.103   0.044  0.00  0.00    +0.074 C 
ATOM     40  C   UNL     1       7.123   3.595   0.198  0.00  0.00    +0.017 C 
BRANCH  39  41
ATOM     41  C   UNL     1       6.005   5.605   1.164  0.00  0.00    +0.217 C 
ATOM     42  N   UNL     1       6.179   6.917   1.517  0.00  0.00    -0.304 N 
ATOM     43  H   UNL     1       6.771   7.525   0.958  0.00  0.00    +0.149 HD
ATOM     44  O   UNL     1       5.150   4.881   1.675  0.00  0.00    -0.276 OA
BRANCH  42  45
ATOM     45  C   UNL     1       5.361   7.574   2.538  0.00  0.00    +0.161 C 
BRANCH  45  46
ATOM     46  C   UNL     1       5.176   9.047   2.099  0.00  0.00    +0.234 C 
ATOM     47  N   UNL     1       4.093   9.691   2.650  0.00  0.00    -0.310 N 
ATOM     48  H   UNL     1       3.416   9.164   3.186  0.00  0.00    +0.149 HD
ATOM     49  O   UNL     1       5.975   9.599   1.342  0.00  0.00    -0.274 OA
BRANCH  47  50
ATOM     50  C   UNL     1       3.763  11.063   2.325  0.00  0.00    +0.139 C 
BRANCH  50  51
ATOM     51  C   UNL     1       3.517  11.862   3.578  0.00  0.00    -0.030 A 
ATOM     52  C   UNL     1       2.244  11.912   4.164  0.00  0.00    +0.005 A 
ATOM     53  C   UNL     1       2.036  12.629   5.344  0.00  0.00    +0.000 A 
ATOM     54  C   UNL     1       3.096  13.301   5.950  0.00  0.00    +0.000 A 
ATOM     55  C   UNL     1       4.365  13.258   5.377  0.00  0.00    +0.000 A 
ATOM     56  C   UNL     1       4.576  12.539   4.200  0.00  0.00    +0.005 A 
ENDBRANCH  50  51
ENDBRANCH  47  50
ENDBRANCH  45  46
BRANCH  45  57
ATOM     57  C   UNL     1       5.977   7.476   3.959  0.00  0.00    +0.012 C 
ATOM     58  C   UNL     1       7.344   8.164   4.067  0.00  0.00    +0.009 C 
ATOM     59  C   UNL     1       6.098   6.026   4.448  0.00  0.00    +0.009 C 
ENDBRANCH  45  57
ENDBRANCH  42  45
ENDBRANCH  39  41
ENDBRANCH  38  39
ENDBRANCH  35  38
ENDBRANCH   1  35
TORSDOF 15
