REMARK  Name = 
REMARK  25 active torsions:
REMARK  status: ('A' for Active; 'I' for Inactive)
REMARK    1  A    between atoms: O_1  and  C_2
REMARK    2  A    between atoms: C_2  and  C_3
REMARK    3  A    between atoms: C_6  and  O_8
REMARK    4  A    between atoms: O_8  and  C_9
REMARK    5  A    between atoms: C_11  and  O_13
REMARK    6  A    between atoms: C_14  and  O_16
REMARK    7  A    between atoms: C_17  and  O_19
REMARK    8  A    between atoms: O_19  and  C_20
REMARK    9  A    between atoms: C_22  and  O_24
REMARK   10  A    between atoms: C_25  and  O_27
REMARK   11  A    between atoms: C_28  and  O_30
REMARK   12  A    between atoms: O_30  and  C_31
REMARK   13  A    between atoms: C_33  and  O_35
REMARK   14  A    between atoms: C_36  and  O_38
REMARK   15  A    between atoms: C_39  and  O_40
REMARK   16  A    between atoms: C_39  and  O_41
REMARK   17  A    between atoms: C_43  and  C_45
REMARK   18  A    between atoms: C_45  and  O_46
REMARK   19  A    between atoms: C_48  and  C_50
REMARK   20  A    between atoms: C_50  and  O_51
REMARK   21  A    between atoms: C_53  and  C_55
REMARK   22  A    between atoms: C_55  and  O_56
REMARK   23  A    between atoms: C_57  and  O_59
REMARK   24  A    between atoms: C_60  and  O_62
REMARK   25  A    between atoms: C_63  and  O_65
REMARK                            x       y       z     vdW  Elec       q    Type
REMARK                         _______ _______ _______ _____ _____    ______ ____
ROOT
ATOM      1  C   UNL     1      -0.139   1.912   2.603  0.00  0.00    +0.183 C 
ATOM      2  C   UNL     1       0.495   3.317   2.669  0.00  0.00    +0.178 C 
ATOM      3  O   UNL     1       1.839   3.208   3.144  0.00  0.00    -0.341 OA
ATOM      4  C   UNL     1       2.036   2.485   4.357  0.00  0.00    +0.282 C 
ATOM      5  C   UNL     1       1.286   1.151   4.496  0.00  0.00    +0.201 C 
ATOM      6  C   UNL     1      -0.156   1.280   3.998  0.00  0.00    +0.179 C 
ENDROOT
BRANCH   6   7
ATOM      7  O   UNL     1      -0.994   1.979   4.921  0.00  0.00    -0.386 OA
ATOM      8  H   UNL     1      -0.820   2.936   4.908  0.00  0.00    +0.210 HD
ENDBRANCH   6   7
BRANCH   5   9
ATOM      9  O   UNL     1       2.023   0.147   3.781  0.00  0.00    -0.384 OA
ATOM     10  H   UNL     1       2.207   0.506   2.887  0.00  0.00    +0.210 HD
ENDBRANCH   5   9
BRANCH   4  11
ATOM     11  O   UNL     1       1.834   3.327   5.483  0.00  0.00    -0.340 OA
BRANCH  11  12
ATOM     12  C   UNL     1       2.468   2.861   6.697  0.00  0.00    +0.184 C 
ATOM     13  C   UNL     1       2.321   3.964   7.761  0.00  0.00    +0.183 C 
ATOM     14  O   UNL     1       3.014   5.155   7.348  0.00  0.00    -0.297 OA
ATOM     15  C   UNL     1       4.423   4.963   7.168  0.00  0.00    +0.391 C 
ATOM     16  C   UNL     1       4.698   3.855   6.111  0.00  0.00    +0.262 C 
ATOM     17  C   UNL     1       3.973   2.563   6.519  0.00  0.00    +0.185 C 
BRANCH  17  18
ATOM     18  O   UNL     1       4.536   2.048   7.732  0.00  0.00    -0.386 OA
ATOM     19  H   UNL     1       4.165   1.156   7.880  0.00  0.00    +0.210 HD
ENDBRANCH  17  18
BRANCH  16  20
ATOM     20  O   UNL     1       4.294   4.338   4.812  0.00  0.00    -0.379 OA
ATOM     21  H   UNL     1       3.365   4.661   4.902  0.00  0.00    +0.210 HD
ENDBRANCH  16  20
BRANCH  15  22
ATOM     22  O   UNL     1       4.962   6.175   6.654  0.00  0.00    -0.482 OA
ATOM     23  H   UNL     1       5.105   6.025   5.702  0.00  0.00    +0.290 HD
ENDBRANCH  15  22
BRANCH  15  24
ATOM     24  O   UNL     1       5.058   4.673   8.396  0.00  0.00    -0.482 OA
ATOM     25  H   UNL     1       5.312   3.729   8.374  0.00  0.00    +0.290 HD
ENDBRANCH  15  24
BRANCH  13  26
ATOM     26  C   UNL     1       0.847   4.329   7.970  0.00  0.00    +0.190 C 
BRANCH  26  27
ATOM     27  O   UNL     1       0.734   5.305   9.002  0.00  0.00    -0.392 OA
ATOM     28  H   UNL     1       1.387   5.998   8.780  0.00  0.00    +0.210 HD
ENDBRANCH  26  27
ENDBRANCH  13  26
ENDBRANCH  11  12
ENDBRANCH   4  11
BRANCH   2  29
ATOM     29  C   UNL     1       0.575   4.001   1.296  0.00  0.00    +0.190 C 
BRANCH  29  30
ATOM     30  O   UNL     1       1.112   5.316   1.431  0.00  0.00    -0.392 OA
ATOM     31  H   UNL     1       2.000   5.202   1.821  0.00  0.00    +0.210 HD
ENDBRANCH  29  30
ENDBRANCH   2  29
BRANCH   1  32
ATOM     32  O   UNL     1       0.662   1.107   1.688  0.00  0.00    -0.340 OA
BRANCH  32  36
ATOM     33  C   UNL     1      -0.454  -0.235  -1.375  0.00  0.00    +0.183 C 
ATOM     34  C   UNL     1       0.986  -0.425  -0.774  0.00  0.00    +0.178 C 
ATOM     35  O   UNL     1       1.015  -0.956   0.569  0.00  0.00    -0.341 OA
ATOM     36  C   UNL     1       0.201  -0.237   1.512  0.00  0.00    +0.282 C 
ATOM     37  C   UNL     1      -1.231  -0.316   1.033  0.00  0.00    +0.201 C 
ATOM     38  C   UNL     1      -1.315   0.453  -0.305  0.00  0.00    +0.179 C 
BRANCH  38  39
ATOM     39  O   UNL     1      -0.913   1.828  -0.225  0.00  0.00    -0.386 OA
ATOM     40  H   UNL     1       0.021   1.844   0.044  0.00  0.00    +0.210 HD
ENDBRANCH  38  39
BRANCH  37  41
ATOM     41  O   UNL     1      -1.543  -1.716   0.966  0.00  0.00    -0.384 OA
ATOM     42  H   UNL     1      -0.816  -2.150   0.479  0.00  0.00    +0.210 HD
ENDBRANCH  37  41
BRANCH  34  43
ATOM     43  C   UNL     1       1.931  -1.307  -1.587  0.00  0.00    +0.190 C 
BRANCH  43  44
ATOM     44  O   UNL     1       3.224  -1.299  -0.961  0.00  0.00    -0.392 OA
ATOM     45  H   UNL     1       3.063  -1.464  -0.009  0.00  0.00    +0.210 HD
ENDBRANCH  43  44
ENDBRANCH  34  43
BRANCH  33  46
ATOM     46  O   UNL     1      -1.109  -1.440  -1.843  0.00  0.00    -0.340 OA
BRANCH  46  51
ATOM     47  C   UNL     1      -3.943  -1.691  -0.974  0.00  0.00    +0.178 C 
ATOM     48  C   UNL     1      -4.467  -2.902  -1.740  0.00  0.00    +0.177 C 
ATOM     49  C   UNL     1      -3.397  -3.407  -2.724  0.00  0.00    +0.179 C 
ATOM     50  C   UNL     1      -2.725  -2.285  -3.522  0.00  0.00    +0.201 C 
ATOM     51  C   UNL     1      -2.301  -1.114  -2.630  0.00  0.00    +0.282 C 
ATOM     52  O   UNL     1      -3.437  -0.697  -1.871  0.00  0.00    -0.341 OA
BRANCH  50  53
ATOM     53  O   UNL     1      -1.610  -2.824  -4.247  0.00  0.00    -0.384 OA
ATOM     54  H   UNL     1      -0.888  -2.933  -3.598  0.00  0.00    +0.210 HD
ENDBRANCH  50  53
BRANCH  49  55
ATOM     55  O   UNL     1      -4.003  -4.326  -3.649  0.00  0.00    -0.386 OA
ATOM     56  H   UNL     1      -3.370  -4.436  -4.385  0.00  0.00    +0.210 HD
ENDBRANCH  49  55
BRANCH  48  57
ATOM     57  O   UNL     1      -4.805  -3.948  -0.803  0.00  0.00    -0.386 OA
ATOM     58  H   UNL     1      -4.005  -4.174  -0.305  0.00  0.00    +0.210 HD
ENDBRANCH  48  57
BRANCH  47  59
ATOM     59  C   UNL     1      -4.996  -1.088  -0.024  0.00  0.00    +0.190 C 
BRANCH  59  60
ATOM     60  O   UNL     1      -4.374  -0.213   0.927  0.00  0.00    -0.392 OA
ATOM     61  H   UNL     1      -4.868  -0.303   1.762  0.00  0.00    +0.210 HD
ENDBRANCH  59  60
ENDBRANCH  47  59
ENDBRANCH  46  51
ENDBRANCH  33  46
ENDBRANCH  32  36
ENDBRANCH   1  32
TORSDOF 25
