REMARK  Name = 
REMARK  10 active torsions:
REMARK  status: ('A' for Active; 'I' for Inactive)
REMARK    1  A    between atoms: N_1  and  CA_2
REMARK    2  A    between atoms: CA_2  and  C_4
REMARK    3  A    between atoms: CA_2  and  C_13
REMARK    4  A    between atoms: C_4  and  O_6
REMARK    5  A    between atoms: C_4  and  C_7
REMARK    6  A    between atoms: C_7  and  O_8
REMARK    7  A    between atoms: O_8  and  P_9
REMARK    8  A    between atoms: P_9  and  O_10
REMARK    9  A    between atoms: P_9  and  O_11
REMARK   10  A    between atoms: C_13  and  O_14
REMARK                            x       y       z     vdW  Elec       q    Type
REMARK                         _______ _______ _______ _____ _____    ______ ____
ROOT
ATOM      1  C   UNL     1       2.922   0.253   1.444  0.00  0.00    +0.168 C 
ENDROOT
BRANCH   1   2
ATOM      2  O   UNL     1       4.357   0.303   1.385  0.00  0.00    -0.387 OA
ATOM      3  H   UNL     1       4.676  -0.610   1.271  0.00  0.00    +0.210 HD
ENDBRANCH   1   2
BRANCH   1   4
ATOM      4  CA  UNL     1       2.376  -0.187   0.076  0.00  0.00    +0.192 C 
BRANCH   4   5
ATOM      5  N   UNL     1       2.724   0.745  -1.053  0.00  0.00    -0.316 NA
ATOM      6  H1  UNL     1       2.706   1.711  -0.704  0.00  0.00    +0.119 HD
ATOM      7  H2  UNL     1       3.723   0.601  -1.243  0.00  0.00    +0.119 HD
ENDBRANCH   4   5
BRANCH   4   8
ATOM      8  C   UNL     1       0.852  -0.406   0.105  0.00  0.00    +0.324 C 
ATOM      9  OXT UNL     1       0.269  -1.146   0.885  0.00  0.00    -0.249 OA
BRANCH   8  10
ATOM     10  O   UNL     1       0.228   0.305  -0.872  0.00  0.00    -0.479 OA
ATOM     11  H   UNL     1       0.953   0.736  -1.390  0.00  0.00    +0.295 HD
ENDBRANCH   8  10
ENDBRANCH   4   8
ENDBRANCH   1   4
BRANCH   1  12
ATOM     12  C   UNL     1       2.437   1.628   1.921  0.00  0.00    +0.205 C 
BRANCH  12  13
ATOM     13  O   UNL     1       1.019   1.682   1.940  0.00  0.00    -0.284 OA
BRANCH  13  14
ATOM     14  P   UNL     1       0.383   3.244   2.325  0.00  0.00    +0.472 P 
ATOM     15  O   UNL     1      -0.186   4.642   2.670  0.00  0.00    -0.228 OA
BRANCH  14  16
ATOM     16  O   UNL     1      -1.077   2.526   2.447  0.00  0.00    -0.303 OA
ATOM     17  H   UNL     1      -1.668   3.148   2.914  0.00  0.00    +0.222 HD
ENDBRANCH  14  16
BRANCH  14  18
ATOM     18  O   UNL     1       0.303   3.454   0.703  0.00  0.00    -0.303 OA
ATOM     19  H   UNL     1      -0.468   2.939   0.397  0.00  0.00    +0.222 HD
ENDBRANCH  14  18
ENDBRANCH  13  14
ENDBRANCH  12  13
ENDBRANCH   1  12
TORSDOF 10
