REMARK  Name = 
REMARK  3 active torsions:
REMARK  status: ('A' for Active; 'I' for Inactive)
REMARK    1  A    between atoms: C_4  and  O_5
REMARK    2  A    between atoms: O_5  and  C_6
REMARK    3  A    between atoms: C_6  and  C_7
REMARK                            x       y       z     vdW  Elec       q    Type
REMARK                         _______ _______ _______ _____ _____    ______ ____
ROOT
ATOM      1  N   UNL     1       0.222   1.603   1.389  0.00  0.00    -0.327 N 
ATOM      2  H   UNL     1      -0.391   1.255   2.112  0.00  0.00    +0.145 HD
ATOM      3  H   UNL     1       0.189   2.592   1.185  0.00  0.00    +0.145 HD
ATOM      4  C   UNL     1       1.525   1.213   1.645  0.00  0.00    +0.218 A 
ATOM      5  N   UNL     1       1.681   0.121   2.408  0.00  0.00    -0.195 NA
ATOM      6  C   UNL     1       2.972  -0.177   2.593  0.00  0.00    +0.166 A 
ATOM      7  C   UNL     1       4.074   0.509   2.119  0.00  0.00    +0.169 A 
ATOM      8  N   UNL     1       5.237  -0.112   2.526  0.00  0.00    -0.229 NA
ATOM      9  C   UNL     1       4.838  -1.152   3.232  0.00  0.00    +0.199 A 
ATOM     10  C   UNL     1       3.792   1.651   1.368  0.00  0.00    +0.248 A 
ATOM     11  N   UNL     1       3.476  -1.226   3.306  0.00  0.00    -0.329 N 
ATOM     12  H   UNL     1       2.927  -1.919   3.792  0.00  0.00    +0.168 HD
ATOM     13  N   UNL     1       2.495   1.995   1.140  0.00  0.00    -0.178 NA
ENDROOT
BRANCH  10  14
ATOM     14  O   UNL     1       4.825   2.410   0.856  0.00  0.00    -0.475 OA
BRANCH  14  15
ATOM     15  C   UNL     1       4.411   3.685   0.364  0.00  0.00    +0.234 C 
BRANCH  15  16
ATOM     16  C   UNL     1       5.654   4.463  -0.115  0.00  0.00    +0.027 C 
ATOM     17  C   UNL     1       6.707   4.688   0.989  0.00  0.00    +0.007 C 
ATOM     18  C   UNL     1       6.402   5.846   1.942  0.00  0.00    +0.000 C 
ATOM     19  C   UNL     1       5.977   7.119   1.218  0.00  0.00    +0.000 C 
ATOM     20  C   UNL     1       4.842   6.849   0.239  0.00  0.00    +0.000 C 
ATOM     21  C   UNL     1       5.257   5.790  -0.778  0.00  0.00    +0.007 C 
ENDBRANCH  15  16
ENDBRANCH  14  15
ENDBRANCH  10  14
TORSDOF 3
