REMARK  Name = 
REMARK  14 active torsions:
REMARK  status: ('A' for Active; 'I' for Inactive)
REMARK    1  A    between atoms: O_1  and  C_2
REMARK    2  A    between atoms: C_2  and  C_3
REMARK    3  A    between atoms: C_3  and  C_5
REMARK    4  A    between atoms: C_5  and  C_7
REMARK    5  A    between atoms: C_5  and  N_15
REMARK    6  A    between atoms: C_7  and  C_8
REMARK    7  A    between atoms: C_8  and  C_9
REMARK    8  A    between atoms: C_16  and  C_18
REMARK    9  A    between atoms: C_18  and  C_20
REMARK   10  A    between atoms: C_18  and  N_27
REMARK   11  A    between atoms: C_20  and  C_21
REMARK   12  A    between atoms: C_28  and  O_30
REMARK   13  A    between atoms: O_30  and  C_31
REMARK   14  A    between atoms: C_31  and  C_32
REMARK                            x       y       z     vdW  Elec       q    Type
REMARK                         _______ _______ _______ _____ _____    ______ ____
ROOT
ATOM      1  C   UNL     1       6.340   4.361  -3.052  0.00  0.00    +0.166 C 
ENDROOT
BRANCH   1   4
ATOM      2  N   UNL     1       6.556   1.913  -2.867  0.00  0.00    -0.304 N 
ATOM      3  H   UNL     1       6.710   1.943  -3.878  0.00  0.00    +0.149 HD
ATOM      4  C   UNL     1       6.317   3.088  -2.182  0.00  0.00    +0.234 C 
ATOM      5  O   UNL     1       6.138   3.110  -0.967  0.00  0.00    -0.274 OA
BRANCH   2   6
ATOM      6  C   UNL     1       6.345   0.607  -2.239  0.00  0.00    +0.142 C 
BRANCH   6   7
ATOM      7  C   UNL     1       7.197  -0.433  -2.973  0.00  0.00    +0.178 C 
ATOM      8  O   UNL     1       7.027  -0.670  -4.172  0.00  0.00    -0.293 OA
BRANCH   7   9
ATOM      9  C   UNL     1       8.281  -1.132  -2.151  0.00  0.00    +0.232 C 
BRANCH   9  10
ATOM     10  O   UNL     1       9.572  -0.963  -2.707  0.00  0.00    -0.387 OA
ATOM     11  H   UNL     1      10.224  -1.154  -2.012  0.00  0.00    +0.210 HD
ENDBRANCH   9  10
ENDBRANCH   7   9
ENDBRANCH   6   7
BRANCH   6  12
ATOM     12  C   UNL     1       4.853   0.249  -2.295  0.00  0.00    +0.035 C 
BRANCH  12  13
ATOM     13  C   UNL     1       4.508  -1.117  -1.694  0.00  0.00    +0.037 C 
BRANCH  13  14
ATOM     14  C   UNL     1       3.010  -1.315  -1.686  0.00  0.00    -0.047 A 
ATOM     15  C   UNL     1       2.243  -0.873  -0.599  0.00  0.00    +0.003 A 
ATOM     16  C   UNL     1       0.851  -0.968  -0.629  0.00  0.00    +0.000 A 
ATOM     17  C   UNL     1       0.212  -1.506  -1.744  0.00  0.00    +0.000 A 
ATOM     18  C   UNL     1       0.964  -1.958  -2.826  0.00  0.00    +0.000 A 
ATOM     19  C   UNL     1       2.357  -1.864  -2.799  0.00  0.00    +0.003 A 
ENDBRANCH  13  14
ENDBRANCH  12  13
ENDBRANCH   6  12
ENDBRANCH   2   6
ENDBRANCH   1   4
BRANCH   1  20
ATOM     20  N   UNL     1       7.733   4.716  -3.315  0.00  0.00    -0.269 N 
ATOM     21  H   UNL     1       8.251   5.273  -2.651  0.00  0.00    +0.153 HD
ATOM     22  C   UNL     1       8.422   4.223  -4.379  0.00  0.00    +0.401 C 
ATOM     23  O   UNL     1       7.952   3.459  -5.203  0.00  0.00    -0.226 OA
BRANCH  22  24
ATOM     24  O   UNL     1       9.687   4.702  -4.356  0.00  0.00    -0.446 OA
BRANCH  24  25
ATOM     25  C   UNL     1      10.549   4.249  -5.408  0.00  0.00    +0.270 C 
BRANCH  25  26
ATOM     26  C   UNL     1      11.049   5.431  -6.188  0.00  0.00    +0.008 A 
ATOM     27  C   UNL     1      12.234   6.073  -5.847  0.00  0.00    +0.117 A 
ATOM     28  N   UNL     1      12.750   7.127  -6.520  0.00  0.00    -0.263 NA
ATOM     29  C   UNL     1      12.043   7.574  -7.580  0.00  0.00    +0.111 A 
ATOM     30  C   UNL     1      10.842   7.021  -7.992  0.00  0.00    +0.020 A 
ATOM     31  C   UNL     1      10.337   5.937  -7.280  0.00  0.00    +0.010 A 
ENDBRANCH  25  26
ENDBRANCH  24  25
ENDBRANCH  22  24
ENDBRANCH   1  20
BRANCH   1  32
ATOM     32  C   UNL     1       5.577   5.509  -2.361  0.00  0.00    +0.067 C 
BRANCH  32  33
ATOM     33  C   UNL     1       5.482   6.812  -3.137  0.00  0.00    -0.045 A 
ATOM     34  C   UNL     1       5.351   8.021  -2.433  0.00  0.00    +0.004 A 
ATOM     35  C   UNL     1       5.335   9.244  -3.108  0.00  0.00    +0.000 A 
ATOM     36  C   UNL     1       5.437   9.277  -4.496  0.00  0.00    +0.000 A 
ATOM     37  C   UNL     1       5.503   8.085  -5.211  0.00  0.00    +0.000 A 
ATOM     38  C   UNL     1       5.504   6.861  -4.538  0.00  0.00    +0.004 A 
ENDBRANCH  32  33
ENDBRANCH   1  32
TORSDOF 14
