REMARK  Name = 
REMARK  42 active torsions:
REMARK  status: ('A' for Active; 'I' for Inactive)
REMARK    1  A    between atoms: C_1  and  C_2
REMARK    2  A    between atoms: C_2  and  C_3
REMARK    3  A    between atoms: C_3  and  C_4
REMARK    4  A    between atoms: C_4  and  C_5
REMARK    5  A    between atoms: C_5  and  C_6
REMARK    6  A    between atoms: C_6  and  C_7
REMARK    7  A    between atoms: C_7  and  C_8
REMARK    8  A    between atoms: C_8  and  C_9
REMARK    9  A    between atoms: C_9  and  C_10
REMARK   10  A    between atoms: C_10  and  C_11
REMARK   11  A    between atoms: C_11  and  C_12
REMARK   12  A    between atoms: C_12  and  C_13
REMARK   13  A    between atoms: C_13  and  C_14
REMARK   14  A    between atoms: C_14  and  C_16
REMARK   15  A    between atoms: C_16  and  S_17
REMARK   16  A    between atoms: S_17  and  C_18
REMARK   17  A    between atoms: C_18  and  C_19
REMARK   18  A    between atoms: C_19  and  N_20
REMARK   19  A    between atoms: C_21  and  C_23
REMARK   20  A    between atoms: C_23  and  C_24
REMARK   21  A    between atoms: C_24  and  N_25
REMARK   22  A    between atoms: C_26  and  C_28
REMARK   23  A    between atoms: C_28  and  O_30
REMARK   24  A    between atoms: C_28  and  C_31
REMARK   25  A    between atoms: C_31  and  C_32
REMARK   26  A    between atoms: C_31  and  C_33
REMARK   27  A    between atoms: C_31  and  C_34
REMARK   28  A    between atoms: C_34  and  O_35
REMARK   29  A    between atoms: O_35  and  P_36
REMARK   30  A    between atoms: P_36  and  O_37
REMARK   31  A    between atoms: P_36  and  O_39
REMARK   32  A    between atoms: O_39  and  P_40
REMARK   33  A    between atoms: P_40  and  O_41
REMARK   34  A    between atoms: P_40  and  O_43
REMARK   35  A    between atoms: O_43  and  C_44
REMARK   36  A    between atoms: C_44  and  C_45
REMARK   37  A    between atoms: C_48  and  N_60
REMARK   38  A    between atoms: C_50  and  O_52
REMARK   39  A    between atoms: C_53  and  O_55
REMARK   40  A    between atoms: O_55  and  P_56
REMARK   41  A    between atoms: P_56  and  O_57
REMARK   42  A    between atoms: P_56  and  O_58
REMARK                            x       y       z     vdW  Elec       q    Type
REMARK                         _______ _______ _______ _____ _____    ______ ____
ROOT
ATOM      1  O   UNL     1      20.903  19.105  -1.271  0.00  0.00    -0.286 OA
ENDROOT
BRANCH   1   2
ATOM      2  P   UNL     1      20.145  19.804  -0.017  0.00  0.00    +0.483 P 
ATOM      3  O   UNL     1      20.707  21.206   0.204  0.00  0.00    -0.227 OA
BRANCH   2   4
ATOM      4  O   UNL     1      19.087  20.485  -1.204  0.00  0.00    -0.302 OA
ATOM      5  H   UNL     1      19.336  21.434  -1.187  0.00  0.00    +0.222 HD
ENDBRANCH   2   4
BRANCH   2   6
ATOM      6  O   UNL     1      21.204  19.122   1.170  0.00  0.00    -0.186 OA
BRANCH   6   7
ATOM      7  P   UNL     1      19.997  18.040   1.767  0.00  0.00    +0.483 P 
ATOM      8  O   UNL     1      18.737  17.986   0.946  0.00  0.00    -0.227 OA
BRANCH   7   9
ATOM      9  O   UNL     1      19.609  18.725   3.162  0.00  0.00    -0.302 OA
ATOM     10  H   UNL     1      18.688  19.054   3.153  0.00  0.00    +0.222 HD
ENDBRANCH   7   9
BRANCH   7  11
ATOM     11  O   UNL     1      20.399  16.521   2.223  0.00  0.00    -0.284 OA
BRANCH  11  12
ATOM     12  C   UNL     1      19.949  15.388   1.420  0.00  0.00    +0.206 C 
BRANCH  12  13
ATOM     13  C   UNL     1      19.207  14.068   1.992  0.00  0.00    +0.179 C 
ATOM     14  C   UNL     1      17.686  14.155   2.241  0.00  0.00    +0.194 C 
ATOM     15  C   UNL     1      16.965  13.256   1.226  0.00  0.00    +0.196 C 
ATOM     16  C   UNL     1      18.072  12.734   0.349  0.00  0.00    +0.253 C 
ATOM     17  O   UNL     1      19.346  12.977   1.001  0.00  0.00    -0.346 OA
BRANCH  16  18
ATOM     18  N   UNL     1      17.935  11.386  -0.211  0.00  0.00    -0.286 N 
ATOM     19  C   UNL     1      16.994  11.032  -1.175  0.00  0.00    +0.167 A 
ATOM     20  N   UNL     1      15.925  11.766  -1.595  0.00  0.00    -0.216 NA
ATOM     21  C   UNL     1      15.294  11.118  -2.611  0.00  0.00    +0.225 A 
ATOM     22  N   UNL     1      15.580   9.936  -3.197  0.00  0.00    -0.219 NA
ATOM     23  C   UNL     1      16.682   9.273  -2.765  0.00  0.00    +0.147 A 
ATOM     24  N   UNL     1      17.038   8.098  -3.410  0.00  0.00    -0.341 N 
ATOM     25  H   UNL     1      17.718   7.517  -2.908  0.00  0.00    +0.144 HD
ATOM     26  H   UNL     1      16.294   7.642  -3.881  0.00  0.00    +0.144 HD
ATOM     27  C   UNL     1      17.432   9.828  -1.703  0.00  0.00    +0.147 A 
ATOM     28  N   UNL     1      18.602   9.431  -1.077  0.00  0.00    -0.231 NA
ATOM     29  C   UNL     1      18.900  10.407  -0.238  0.00  0.00    +0.203 A 
ENDBRANCH  16  18
BRANCH  15  30
ATOM     30  O   UNL     1      16.033  14.074   0.497  0.00  0.00    -0.385 OA
ATOM     31  H   UNL     1      15.662  13.527  -0.231  0.00  0.00    +0.210 HD
ENDBRANCH  15  30
BRANCH  14  32
ATOM     32  O   UNL     1      17.352  13.666   3.540  0.00  0.00    -0.278 OA
BRANCH  32  33
ATOM     33  P   UNL     1      15.818  13.812   4.008  0.00  0.00    +0.473 P 
ATOM     34  O   UNL     1      14.873  12.769   3.524  0.00  0.00    -0.228 OA
BRANCH  33  35
ATOM     35  O   UNL     1      15.942  13.884   5.593  0.00  0.00    -0.303 OA
ATOM     36  H   UNL     1      16.022  12.998   5.987  0.00  0.00    +0.222 HD
ENDBRANCH  33  35
BRANCH  33  37
ATOM     37  O   UNL     1      15.431  15.302   3.594  0.00  0.00    -0.303 OA
ATOM     38  H   UNL     1      15.108  15.349   2.672  0.00  0.00    +0.222 HD
ENDBRANCH  33  37
ENDBRANCH  32  33
ENDBRANCH  14  32
ENDBRANCH  12  13
ENDBRANCH  11  12
ENDBRANCH   7  11
ENDBRANCH   6   7
ENDBRANCH   2   6
ENDBRANCH   1   2
BRANCH   1  39
ATOM     39  C   UNL     1      20.067  18.397  -2.244  0.00  0.00    +0.181 C 
BRANCH  39  40
ATOM     40  C   UNL     1      21.041  17.722  -3.198  0.00  0.00    +0.024 C 
ATOM     41  C   UNL     1      21.872  18.891  -3.814  0.00  0.00    +0.016 C 
ATOM     42  C   UNL     1      21.684  16.746  -2.198  0.00  0.00    +0.016 C 
BRANCH  40  43
ATOM     43  C   UNL     1      20.572  16.923  -4.442  0.00  0.00    +0.208 C 
BRANCH  43  46
ATOM     44  N   UNL     1      19.141  15.418  -3.263  0.00  0.00    -0.313 N 
ATOM     45  H   UNL     1      18.641  16.284  -3.084  0.00  0.00    +0.149 HD
ATOM     46  C   UNL     1      20.203  15.494  -4.121  0.00  0.00    +0.242 C 
ATOM     47  O   UNL     1      20.841  14.543  -4.546  0.00  0.00    -0.273 OA
BRANCH  44  48
ATOM     48  C   UNL     1      18.980  14.339  -2.348  0.00  0.00    +0.113 C 
BRANCH  48  49
ATOM     49  C   UNL     1      19.761  13.043  -2.570  0.00  0.00    +0.114 C 
BRANCH  49  52
ATOM     50  N   UNL     1      21.462  13.506  -0.823  0.00  0.00    -0.314 N 
ATOM     51  H   UNL     1      20.663  13.443  -0.206  0.00  0.00    +0.149 HD
ATOM     52  C   UNL     1      21.198  12.923  -2.047  0.00  0.00    +0.215 C 
ATOM     53  O   UNL     1      22.009  12.196  -2.601  0.00  0.00    -0.276 OA
BRANCH  50  54
ATOM     54  C   UNL     1      22.731  13.382  -0.100  0.00  0.00    +0.115 C 
BRANCH  54  55
ATOM     55  C   UNL     1      24.055  13.225  -0.850  0.00  0.00    +0.088 C 
BRANCH  55  56
ATOM     56  S   UNL     1      24.588  14.490  -2.021  0.00  0.00    -0.152 S 
BRANCH  56  57
ATOM     57  C   UNL     1      24.534  16.041  -1.043  0.00  0.00    +0.143 C 
BRANCH  57  58
ATOM     58  C   UNL     1      24.506  17.164  -2.068  0.00  0.00    +0.143 C 
ATOM     59  O   UNL     1      23.905  17.062  -3.146  0.00  0.00    -0.297 OA
BRANCH  58  60
ATOM     60  C   UNL     1      25.372  18.359  -1.924  0.00  0.00    +0.075 C 
BRANCH  60  61
ATOM     61  C   UNL     1      26.130  18.139  -3.207  0.00  0.00    +0.008 C 
BRANCH  61  62
ATOM     62  C   UNL     1      27.198  19.103  -3.510  0.00  0.00    +0.000 C 
BRANCH  62  63
ATOM     63  C   UNL     1      27.818  18.525  -4.763  0.00  0.00    +0.000 C 
BRANCH  63  64
ATOM     64  C   UNL     1      28.997  19.374  -5.056  0.00  0.00    +0.000 C 
BRANCH  64  65
ATOM     65  C   UNL     1      29.744  18.808  -6.227  0.00  0.00    +0.000 C 
BRANCH  65  66
ATOM     66  C   UNL     1      30.949  19.691  -6.393  0.00  0.00    -0.000 C 
BRANCH  66  67
ATOM     67  C   UNL     1      31.803  19.164  -7.512  0.00  0.00    -0.000 C 
BRANCH  67  68
ATOM     68  C   UNL     1      32.997  20.076  -7.670  0.00  0.00    -0.000 C 
BRANCH  68  69
ATOM     69  C   UNL     1      33.851  19.582  -8.817  0.00  0.00    -0.000 C 
BRANCH  69  70
ATOM     70  C   UNL     1      35.054  20.491  -9.000  0.00  0.00    -0.000 C 
BRANCH  70  72
ATOM     71  C   UNL     1      37.123  20.903 -10.341  0.00  0.00    +0.004 C 
ATOM     72  C   UNL     1      35.919  19.997 -10.150  0.00  0.00    -0.003 C 
ENDBRANCH  70  72
ENDBRANCH  69  70
ENDBRANCH  68  69
ENDBRANCH  67  68
ENDBRANCH  66  67
ENDBRANCH  65  66
ENDBRANCH  64  65
ENDBRANCH  63  64
ENDBRANCH  62  63
ENDBRANCH  61  62
ENDBRANCH  60  61
ENDBRANCH  58  60
ENDBRANCH  57  58
ENDBRANCH  56  57
ENDBRANCH  55  56
ENDBRANCH  54  55
ENDBRANCH  50  54
ENDBRANCH  49  52
ENDBRANCH  48  49
ENDBRANCH  44  48
ENDBRANCH  43  46
BRANCH  43  73
ATOM     73  O   UNL     1      19.487  17.530  -5.124  0.00  0.00    -0.382 OA
ATOM     74  H   UNL     1      19.380  16.988  -5.932  0.00  0.00    +0.210 HD
ENDBRANCH  43  73
ENDBRANCH  40  43
ENDBRANCH  39  40
ENDBRANCH   1  39
TORSDOF 39
