REMARK  Name = 
REMARK  4 active torsions:
REMARK  status: ('A' for Active; 'I' for Inactive)
REMARK    1  A    between atoms: O_1  and  C_2
REMARK    2  A    between atoms: C_2  and  C_3
REMARK    3  A    between atoms: C_3  and  O_5
REMARK    4  A    between atoms: C_3  and  C_6
REMARK                            x       y       z     vdW  Elec       q    Type
REMARK                         _______ _______ _______ _____ _____    ______ ____
ROOT
ATOM      1  C   UNL     1       2.996   1.522  -0.161  0.00  0.00    +0.202 C 
ENDROOT
BRANCH   1   2
ATOM      2  C   UNL     1       4.510   1.554  -0.121  0.00  0.00    +0.256 C 
ATOM      3  O   UNL     1       5.229   0.563  -0.223  0.00  0.00    -0.298 OA
ENDBRANCH   1   2
BRANCH   1   4
ATOM      4  O   UNL     1       2.476   2.333   0.894  0.00  0.00    -0.382 OA
ATOM      5  H   UNL     1       1.558   2.016   1.024  0.00  0.00    +0.210 HD
ENDBRANCH   1   4
BRANCH   1   6
ATOM      6  C   UNL     1       2.471   0.096  -0.012  0.00  0.00    +0.194 C 
BRANCH   6   7
ATOM      7  O   UNL     1       1.041   0.141   0.019  0.00  0.00    -0.392 OA
ATOM      8  H   UNL     1       0.736  -0.784   0.064  0.00  0.00    +0.210 HD
ENDBRANCH   6   7
ENDBRANCH   1   6
TORSDOF 4
