REMARK  Name = 
REMARK  35 active torsions:
REMARK  status: ('A' for Active; 'I' for Inactive)
REMARK    1  A    between atoms: C_1  and  C_2
REMARK    2  A    between atoms: C_2  and  C_3
REMARK    3  A    between atoms: C_3  and  C_4
REMARK    4  A    between atoms: C_4  and  C_5
REMARK    5  A    between atoms: C_5  and  C_6
REMARK    6  A    between atoms: C_6  and  C_7
REMARK    7  A    between atoms: C_7  and  C_8
REMARK    8  A    between atoms: C_8  and  S_10
REMARK    9  A    between atoms: S_10  and  C_11
REMARK   10  A    between atoms: C_11  and  C_12
REMARK   11  A    between atoms: C_12  and  N_13
REMARK   12  A    between atoms: C_14  and  C_16
REMARK   13  A    between atoms: C_16  and  C_17
REMARK   14  A    between atoms: C_17  and  N_18
REMARK   15  A    between atoms: C_19  and  C_21
REMARK   16  A    between atoms: C_21  and  O_23
REMARK   17  A    between atoms: C_21  and  C_24
REMARK   18  A    between atoms: C_24  and  C_25
REMARK   19  A    between atoms: C_24  and  C_26
REMARK   20  A    between atoms: C_24  and  C_27
REMARK   21  A    between atoms: C_27  and  O_28
REMARK   22  A    between atoms: O_28  and  P_29
REMARK   23  A    between atoms: P_29  and  O_30
REMARK   24  A    between atoms: P_29  and  O_32
REMARK   25  A    between atoms: O_32  and  P_33
REMARK   26  A    between atoms: P_33  and  O_34
REMARK   27  A    between atoms: P_33  and  O_36
REMARK   28  A    between atoms: O_36  and  C_37
REMARK   29  A    between atoms: C_37  and  C_38
REMARK   30  A    between atoms: C_41  and  N_53
REMARK   31  A    between atoms: C_43  and  O_45
REMARK   32  A    between atoms: C_46  and  O_48
REMARK   33  A    between atoms: O_48  and  P_49
REMARK   34  A    between atoms: P_49  and  O_50
REMARK   35  A    between atoms: P_49  and  O_51
REMARK                            x       y       z     vdW  Elec       q    Type
REMARK                         _______ _______ _______ _____ _____    ______ ____
ROOT
ATOM      1  P   UNL     1      32.908   5.624 -11.488  0.00  0.00    +0.483 P 
ATOM      2  O   UNL     1      31.865   4.784 -12.230  0.00  0.00    -0.227 OA
ENDROOT
BRANCH   1   3
ATOM      3  O   UNL     1      33.748   5.759 -12.995  0.00  0.00    -0.302 OA
ATOM      4  H   UNL     1      33.004   5.844 -13.628  0.00  0.00    +0.222 HD
ENDBRANCH   1   3
BRANCH   1   5
ATOM      5  O   UNL     1      32.068   5.488  -9.982  0.00  0.00    -0.186 OA
BRANCH   5   6
ATOM      6  P   UNL     1      31.738   4.457  -8.836  0.00  0.00    +0.483 P 
ATOM      7  O   UNL     1      32.930   4.050  -8.024  0.00  0.00    -0.227 OA
BRANCH   6   8
ATOM      8  O   UNL     1      31.037   3.241  -9.562  0.00  0.00    -0.302 OA
ATOM      9  H   UNL     1      31.329   2.372  -9.170  0.00  0.00    +0.222 HD
ENDBRANCH   6   8
BRANCH   6  10
ATOM     10  O   UNL     1      30.491   5.025  -7.935  0.00  0.00    -0.284 OA
BRANCH  10  11
ATOM     11  C   UNL     1      29.405   4.105  -7.724  0.00  0.00    +0.206 C 
BRANCH  11  12
ATOM     12  C   UNL     1      28.335   4.442  -6.658  0.00  0.00    +0.179 C 
ATOM     13  C   UNL     1      28.894   4.612  -5.247  0.00  0.00    +0.194 C 
ATOM     14  C   UNL     1      28.883   6.114  -5.011  0.00  0.00    +0.196 C 
ATOM     15  C   UNL     1      28.330   6.710  -6.309  0.00  0.00    +0.253 C 
ATOM     16  O   UNL     1      27.637   5.656  -6.990  0.00  0.00    -0.346 OA
BRANCH  15  17
ATOM     17  N   UNL     1      27.453   7.844  -6.086  0.00  0.00    -0.286 N 
ATOM     18  C   UNL     1      27.863   9.003  -5.482  0.00  0.00    +0.167 A 
ATOM     19  N   UNL     1      29.065   9.250  -4.929  0.00  0.00    -0.216 NA
ATOM     20  C   UNL     1      29.110  10.509  -4.445  0.00  0.00    +0.225 A 
ATOM     21  N   UNL     1      28.144  11.451  -4.464  0.00  0.00    -0.219 NA
ATOM     22  C   UNL     1      26.958  11.150  -5.045  0.00  0.00    +0.147 A 
ATOM     23  N   UNL     1      25.980  12.134  -5.072  0.00  0.00    -0.341 N 
ATOM     24  H   UNL     1      25.039  11.777  -5.195  0.00  0.00    +0.144 HD
ATOM     25  H   UNL     1      26.129  12.847  -4.370  0.00  0.00    +0.144 HD
ATOM     26  C   UNL     1      26.781   9.860  -5.573  0.00  0.00    +0.147 A 
ATOM     27  N   UNL     1      25.716   9.232  -6.187  0.00  0.00    -0.231 NA
ATOM     28  C   UNL     1      26.158   8.024  -6.487  0.00  0.00    +0.203 A 
ENDBRANCH  15  17
BRANCH  14  29
ATOM     29  O   UNL     1      30.203   6.583  -4.728  0.00  0.00    -0.385 OA
ATOM     30  H   UNL     1      30.150   7.563  -4.709  0.00  0.00    +0.210 HD
ENDBRANCH  14  29
BRANCH  13  31
ATOM     31  O   UNL     1      27.998   4.039  -4.286  0.00  0.00    -0.278 OA
BRANCH  31  32
ATOM     32  P   UNL     1      28.205   2.513  -3.863  0.00  0.00    +0.473 P 
ATOM     33  O   UNL     1      28.064   1.501  -4.944  0.00  0.00    -0.228 OA
BRANCH  32  34
ATOM     34  O   UNL     1      27.197   2.383  -2.635  0.00  0.00    -0.303 OA
ATOM     35  H   UNL     1      27.290   3.146  -2.036  0.00  0.00    +0.222 HD
ENDBRANCH  32  34
BRANCH  32  36
ATOM     36  O   UNL     1      29.595   2.474  -3.087  0.00  0.00    -0.303 OA
ATOM     37  H   UNL     1      29.784   1.578  -2.749  0.00  0.00    +0.222 HD
ENDBRANCH  32  36
ENDBRANCH  31  32
ENDBRANCH  13  31
ENDBRANCH  11  12
ENDBRANCH  10  11
ENDBRANCH   6  10
ENDBRANCH   5   6
ENDBRANCH   1   5
BRANCH   1  38
ATOM     38  O   UNL     1      32.340   7.145 -11.639  0.00  0.00    -0.286 OA
BRANCH  38  39
ATOM     39  C   UNL     1      33.004   8.285 -11.136  0.00  0.00    +0.181 C 
BRANCH  39  40
ATOM     40  C   UNL     1      33.168   8.391  -9.592  0.00  0.00    +0.024 C 
ATOM     41  C   UNL     1      33.702   9.812  -9.303  0.00  0.00    +0.016 C 
ATOM     42  C   UNL     1      31.782   8.326  -8.897  0.00  0.00    +0.016 C 
BRANCH  40  43
ATOM     43  C   UNL     1      34.152   7.318  -9.006  0.00  0.00    +0.208 C 
BRANCH  43  46
ATOM     44  N   UNL     1      35.888   5.851 -10.018  0.00  0.00    -0.313 N 
ATOM     45  H   UNL     1      35.700   5.189  -9.267  0.00  0.00    +0.149 HD
ATOM     46  C   UNL     1      35.453   7.161  -9.825  0.00  0.00    +0.242 C 
ATOM     47  O   UNL     1      36.032   8.116 -10.363  0.00  0.00    -0.273 OA
BRANCH  44  48
ATOM     48  C   UNL     1      37.111   5.674 -10.791  0.00  0.00    +0.113 C 
BRANCH  48  49
ATOM     49  C   UNL     1      37.558   4.244 -11.038  0.00  0.00    +0.114 C 
BRANCH  49  52
ATOM     50  N   UNL     1      35.859   3.917 -12.819  0.00  0.00    -0.314 N 
ATOM     51  H   UNL     1      35.693   4.918 -12.836  0.00  0.00    +0.149 HD
ATOM     52  C   UNL     1      36.740   3.342 -11.941  0.00  0.00    +0.215 C 
ATOM     53  O   UNL     1      36.912   2.124 -11.911  0.00  0.00    -0.276 OA
BRANCH  50  54
ATOM     54  C   UNL     1      35.034   3.114 -13.714  0.00  0.00    +0.115 C 
BRANCH  54  55
ATOM     55  C   UNL     1      34.052   2.107 -13.073  0.00  0.00    +0.096 C 
BRANCH  55  56
ATOM     56  S   UNL     1      33.590   2.449 -11.364  0.00  0.00    -0.087 S 
BRANCH  56  57
ATOM     57  C   UNL     1      32.138   1.494 -11.112  0.00  0.00    +0.189 C 
ATOM     58  O   UNL     1      32.029   0.930 -10.023  0.00  0.00    -0.285 OA
BRANCH  57  59
ATOM     59  C   UNL     1      30.991   1.564 -12.105  0.00  0.00    +0.086 C 
BRANCH  59  60
ATOM     60  C   UNL     1      29.608   1.451 -11.411  0.00  0.00    +0.008 C 
BRANCH  60  61
ATOM     61  C   UNL     1      28.585   0.735 -12.290  0.00  0.00    +0.000 C 
BRANCH  61  62
ATOM     62  C   UNL     1      27.267   0.459 -11.560  0.00  0.00    +0.000 C 
BRANCH  62  63
ATOM     63  C   UNL     1      26.316  -0.328 -12.467  0.00  0.00    -0.000 C 
BRANCH  63  65
ATOM     64  C   UNL     1      24.072  -1.438 -12.710  0.00  0.00    +0.004 C 
ATOM     65  C   UNL     1      24.990  -0.655 -11.782  0.00  0.00    -0.003 C 
ENDBRANCH  63  65
ENDBRANCH  62  63
ENDBRANCH  61  62
ENDBRANCH  60  61
ENDBRANCH  59  60
ENDBRANCH  57  59
ENDBRANCH  56  57
ENDBRANCH  55  56
ENDBRANCH  54  55
ENDBRANCH  50  54
ENDBRANCH  49  52
ENDBRANCH  48  49
ENDBRANCH  44  48
ENDBRANCH  43  46
BRANCH  43  66
ATOM     66  O   UNL     1      34.349   7.477  -7.612  0.00  0.00    -0.382 OA
ATOM     67  H   UNL     1      34.436   6.586  -7.222  0.00  0.00    +0.210 HD
ENDBRANCH  43  66
ENDBRANCH  40  43
ENDBRANCH  39  40
ENDBRANCH  38  39
ENDBRANCH   1  38
TORSDOF 32
