REMARK  Name = 
REMARK  7 active torsions:
REMARK  status: ('A' for Active; 'I' for Inactive)
REMARK    1  A    between atoms: N_4  and  C_5
REMARK    2  A    between atoms: C_5  and  C_6
REMARK    3  A    between atoms: C_6  and  C_7
REMARK    4  A    between atoms: C_7  and  C_8
REMARK    5  A    between atoms: C_8  and  N_10
REMARK    6  A    between atoms: C_8  and  C_15
REMARK    7  A    between atoms: C_15  and  O_16
REMARK                            x       y       z     vdW  Elec       q    Type
REMARK                         _______ _______ _______ _____ _____    ______ ____
ROOT
ATOM      1  C   UNL     1       6.676  -2.204  -1.645  0.00  0.00    +0.037 C 
ENDROOT
BRANCH   1   2
ATOM      2  C   UNL     1       5.143  -2.216  -1.528  0.00  0.00    +0.039 C 
BRANCH   2   3
ATOM      3  C   UNL     1       4.615  -3.561  -1.033  0.00  0.00    +0.196 C 
BRANCH   3   8
ATOM      4  N   UNL     1       1.183  -4.556  -0.545  0.00  0.00    -0.289 N 
ATOM      5  H   UNL     1       0.819  -3.629  -0.383  0.00  0.00    +0.255 HD
ATOM      6  H   UNL     1       0.669  -5.281  -0.064  0.00  0.00    +0.255 HD
ATOM      7  C   UNL     1       2.516  -4.698  -0.602  0.00  0.00    +0.376 C 
ATOM      8  N   UNL     1       3.166  -3.569  -0.970  0.00  0.00    -0.276 N 
ATOM      9  H   UNL     1       2.735  -2.689  -0.730  0.00  0.00    +0.258 HD
ATOM     10  N   UNL     1       3.107  -5.816  -0.374  0.00  0.00    -0.130 NA
ATOM     11  H   UNL     1       2.413  -6.533  -0.159  0.00  0.00    +0.306 HD
ENDBRANCH   3   8
ENDBRANCH   2   3
ENDBRANCH   1   2
BRANCH   1  12
ATOM     12  C   UNL     1       7.218  -3.233  -2.650  0.00  0.00    +0.184 C 
BRANCH  12  13
ATOM     13  N   UNL     1       6.715  -3.007  -3.992  0.00  0.00    -0.288 N 
ATOM     14  C   UNL     1       7.082  -1.997  -4.816  0.00  0.00    +0.218 C 
ATOM     15  O   UNL     1       7.623  -0.951  -4.535  0.00  0.00    -0.276 OA
ATOM     16  C   UNL     1       6.833  -2.866  -6.060  0.00  0.00    +0.115 C 
ATOM     17  C   UNL     1       6.534  -3.994  -5.053  0.00  0.00    +0.118 C 
ENDBRANCH  12  13
BRANCH  12  18
ATOM     18  C   UNL     1       8.752  -3.320  -2.592  0.00  0.00    +0.325 C 
ATOM     19  O   UNL     1       9.348  -4.304  -2.177  0.00  0.00    -0.249 OA
BRANCH  18  20
ATOM     20  O   UNL     1       9.409  -2.210  -2.999  0.00  0.00    -0.479 OA
ATOM     21  H   UNL     1       8.829  -1.493  -3.352  0.00  0.00    +0.295 HD
ENDBRANCH  18  20
ENDBRANCH  12  18
ENDBRANCH   1  12
TORSDOF 7
