REMARK  Name = 
REMARK  5 active torsions:
REMARK  status: ('A' for Active; 'I' for Inactive)
REMARK    1  A    between atoms: C_1  and  N_2
REMARK    2  A    between atoms: N_2  and  C_3
REMARK    3  A    between atoms: N_2  and  C_4
REMARK    4  A    between atoms: C_9  and  S_14
REMARK    5  A    between atoms: S_14  and  N_15
REMARK                            x       y       z     vdW  Elec       q    Type
REMARK                         _______ _______ _______ _____ _____    ______ ____
ROOT
ATOM      1  C   UNL     1       3.060  -0.958  -0.735  0.00  0.00    +0.037 A 
ATOM      2  C   UNL     1       4.118  -0.444  -1.504  0.00  0.00    +0.024 A 
ATOM      3  C   UNL     1       4.897  -1.260  -2.309  0.00  0.00    +0.002 A 
ATOM      4  C   UNL     1       4.647  -2.624  -2.369  0.00  0.00    +0.010 A 
ATOM      5  C   UNL     1       3.563  -3.214  -1.676  0.00  0.00    +0.010 A 
ATOM      6  C   UNL     1       3.230  -4.599  -1.746  0.00  0.00    +0.113 A 
ATOM      7  C   UNL     1       2.138  -5.129  -1.043  0.00  0.00    +0.029 A 
ATOM      8  C   UNL     1       1.341  -4.293  -0.282  0.00  0.00    +0.003 A 
ATOM      9  C   UNL     1       1.641  -2.934  -0.213  0.00  0.00    +0.010 A 
ATOM     10  C   UNL     1       2.757  -2.354  -0.862  0.00  0.00    +0.005 A 
ENDROOT
BRANCH   1  12
ATOM     11  C   UNL     1       2.196   1.293  -0.168  0.00  0.00    +0.129 C 
ATOM     12  N   UNL     1       2.326  -0.129   0.158  0.00  0.00    -0.336 N 
ATOM     13  C   UNL     1       2.613  -0.405   1.573  0.00  0.00    +0.129 C 
ENDBRANCH   1  12
BRANCH   6  14
ATOM     14  S   UNL     1       4.185  -5.765  -2.709  0.00  0.00    +0.057 S 
ATOM     15  O   UNL     1       3.529  -7.053  -2.649  0.00  0.00    -0.153 OA
ATOM     16  O   UNL     1       5.582  -5.606  -2.381  0.00  0.00    -0.153 OA
BRANCH  14  17
ATOM     17  N   UNL     1       3.973  -5.231  -4.281  0.00  0.00    -0.203 NA
ATOM     18  H   UNL     1       3.016  -5.044  -4.565  0.00  0.00    +0.144 HD
ATOM     19  H   UNL     1       4.714  -4.628  -4.629  0.00  0.00    +0.144 HD
ENDBRANCH  14  17
ENDBRANCH   6  14
TORSDOF 3
