REMARK  Name = 
REMARK  16 active torsions:
REMARK  status: ('A' for Active; 'I' for Inactive)
REMARK    1  A    between atoms: C_1  and  O_2
REMARK    2  A    between atoms: O_2  and  C_3
REMARK    3  A    between atoms: C_3  and  C_4
REMARK    4  A    between atoms: C_4  and  O_5
REMARK    5  A    between atoms: O_5  and  C_6
REMARK    6  A    between atoms: C_6  and  C_7
REMARK    7  A    between atoms: C_7  and  O_8
REMARK    8  A    between atoms: O_8  and  C_9
REMARK    9  A    between atoms: C_9  and  C_10
REMARK   10  A    between atoms: C_10  and  O_11
REMARK   11  A    between atoms: O_11  and  C_12
REMARK   12  A    between atoms: C_12  and  C_13
REMARK   13  A    between atoms: C_13  and  O_14
REMARK   14  A    between atoms: O_14  and  C_15
REMARK   15  A    between atoms: C_15  and  C_16
REMARK   16  A    between atoms: C_16  and  O_17
REMARK                            x       y       z     vdW  Elec       q    Type
REMARK                         _______ _______ _______ _____ _____    ______ ____
ROOT
ATOM      1  C   UNL     1       8.650   4.724   2.631  0.00  0.00    +0.188 C 
ENDROOT
BRANCH   1   2
ATOM      2  O   UNL     1       8.150   3.551   1.992  0.00  0.00    -0.375 OA
BRANCH   2   3
ATOM      3  C   UNL     1       6.723   3.531   1.980  0.00  0.00    +0.188 C 
BRANCH   3   4
ATOM      4  C   UNL     1       6.242   2.261   1.288  0.00  0.00    +0.188 C 
BRANCH   4   5
ATOM      5  O   UNL     1       4.815   2.241   1.276  0.00  0.00    -0.375 OA
BRANCH   5   6
ATOM      6  C   UNL     1       4.318   1.066   0.636  0.00  0.00    +0.188 C 
BRANCH   6   7
ATOM      7  C   UNL     1       2.794   1.095   0.647  0.00  0.00    +0.187 C 
BRANCH   7   9
ATOM      8  C   UNL     1       0.870  -0.094  -0.005  0.00  0.00    +0.194 C 
ATOM      9  O   UNL     1       2.292  -0.079   0.009  0.00  0.00    -0.381 OA
ENDBRANCH   7   9
ENDBRANCH   6   7
ENDBRANCH   5   6
ENDBRANCH   4   5
ENDBRANCH   3   4
ENDBRANCH   2   3
ENDBRANCH   1   2
BRANCH   1  10
ATOM     10  C   UNL     1      10.174   4.694   2.616  0.00  0.00    +0.188 C 
BRANCH  10  11
ATOM     11  O   UNL     1      10.678   5.866   3.257  0.00  0.00    -0.375 OA
BRANCH  11  12
ATOM     12  C   UNL     1      12.105   5.882   3.269  0.00  0.00    +0.188 C 
BRANCH  12  13
ATOM     13  C   UNL     1      12.583   7.152   3.963  0.00  0.00    +0.188 C 
BRANCH  13  14
ATOM     14  O   UNL     1      14.012   7.179   3.993  0.00  0.00    -0.375 OA
BRANCH  14  15
ATOM     15  C   UNL     1      14.490   8.376   4.624  0.00  0.00    +0.187 C 
BRANCH  15  16
ATOM     16  C   UNL     1      16.014   8.336   4.645  0.00  0.00    +0.184 C 
BRANCH  16  17
ATOM     17  O   UNL     1      16.519   8.274   3.312  0.00  0.00    -0.393 OA
ATOM     18  H   UNL     1      16.027   7.546   2.886  0.00  0.00    +0.209 HD
ENDBRANCH  16  17
ENDBRANCH  15  16
ENDBRANCH  14  15
ENDBRANCH  13  14
ENDBRANCH  12  13
ENDBRANCH  11  12
ENDBRANCH  10  11
ENDBRANCH   1  10
TORSDOF 15
