REMARK  Name = 
REMARK  14 active torsions:
REMARK  status: ('A' for Active; 'I' for Inactive)
REMARK    1  A    between atoms: N_1  and  C_2
REMARK    2  A    between atoms: C_2  and  C_3
REMARK    3  A    between atoms: C_3  and  C_4
REMARK    4  A    between atoms: C_4  and  C_5
REMARK    5  A    between atoms: C_5  and  C_6
REMARK    6  A    between atoms: C_6  and  C_7
REMARK    7  A    between atoms: C_7  and  S_8
REMARK    8  A    between atoms: S_8  and  C_9
REMARK    9  A    between atoms: C_9  and  C_10
REMARK   10  A    between atoms: C_13  and  N_21
REMARK   11  A    between atoms: C_15  and  O_17
REMARK   12  A    between atoms: C_18  and  O_20
REMARK   13  A    between atoms: C_31  and  C_32
REMARK   14  A    between atoms: C_32  and  N_33
REMARK                            x       y       z     vdW  Elec       q    Type
REMARK                         _______ _______ _______ _____ _____    ______ ____
ROOT
ATOM      1  C   UNL     1       2.981  -4.541  -4.552  0.00  0.00    +0.162 C 
ATOM      2  C   UNL     1       3.897  -3.903  -3.502  0.00  0.00    +0.177 C 
ATOM      3  C   UNL     1       3.263  -2.552  -3.175  0.00  0.00    +0.195 C 
ATOM      4  C   UNL     1       1.943  -2.544  -3.956  0.00  0.00    +0.253 C 
ATOM      5  O   UNL     1       1.698  -3.902  -4.362  0.00  0.00    -0.347 OA
ENDROOT
BRANCH   4   6
ATOM      6  N   UNL     1       0.827  -2.057  -3.164  0.00  0.00    -0.286 N 
ATOM      7  C   UNL     1       0.796  -0.853  -2.509  0.00  0.00    +0.167 A 
ATOM      8  N   UNL     1       1.711   0.133  -2.552  0.00  0.00    -0.216 NA
ATOM      9  C   UNL     1       1.353   1.143  -1.724  0.00  0.00    +0.225 A 
ATOM     10  N   UNL     1       0.288   1.216  -0.896  0.00  0.00    -0.219 NA
ATOM     11  C   UNL     1      -0.575   0.175  -0.865  0.00  0.00    +0.147 A 
ATOM     12  N   UNL     1      -1.628   0.212   0.036  0.00  0.00    -0.341 N 
ATOM     13  H   UNL     1      -2.383  -0.431  -0.175  0.00  0.00    +0.144 HD
ATOM     14  H   UNL     1      -1.857   1.142   0.356  0.00  0.00    +0.144 HD
ATOM     15  C   UNL     1      -0.354  -0.902  -1.738  0.00  0.00    +0.147 A 
ATOM     16  N   UNL     1      -1.063  -2.058  -1.990  0.00  0.00    -0.231 NA
ATOM     17  C   UNL     1      -0.339  -2.712  -2.876  0.00  0.00    +0.203 A 
ENDBRANCH   4   6
BRANCH   2  18
ATOM     18  O   UNL     1       3.911  -4.714  -2.315  0.00  0.00    -0.386 OA
ATOM     19  H   UNL     1       2.994  -4.937  -2.073  0.00  0.00    +0.210 HD
ENDBRANCH   2  18
BRANCH   3  20
ATOM     20  O   UNL     1       4.101  -1.469  -3.586  0.00  0.00    -0.385 OA
ATOM     21  H   UNL     1       3.680  -0.654  -3.238  0.00  0.00    +0.210 HD
ENDBRANCH   3  20
BRANCH   1  22
ATOM     22  C   UNL     1       3.508  -4.348  -5.992  0.00  0.00    +0.108 C 
BRANCH  22  23
ATOM     23  S   UNL     1       2.383  -5.154  -7.194  0.00  0.00    -0.127 S 
BRANCH  23  24
ATOM     24  C   UNL     1       3.183  -4.920  -8.739  0.00  0.00    -0.017 C 
ATOM     25  C   UNL     1       4.363  -5.541  -8.961  0.00  0.00    -0.002 C 
BRANCH  24  26
ATOM     26  C   UNL     1       2.415  -4.236  -9.861  0.00  0.00    +0.042 C 
BRANCH  26  27
ATOM     27  C   UNL     1       1.474  -3.069  -9.524  0.00  0.00    +0.005 C 
BRANCH  27  28
ATOM     28  C   UNL     1       2.126  -1.862  -8.844  0.00  0.00    +0.002 C 
BRANCH  28  29
ATOM     29  C   UNL     1       3.240  -1.225  -9.676  0.00  0.00    +0.015 C 
BRANCH  29  30
ATOM     30  C   UNL     1       3.842  -0.016  -8.964  0.00  0.00    +0.077 C 
BRANCH  30  31
ATOM     31  N   UNL     1       4.897   0.564  -9.786  0.00  0.00    -0.330 NA
ATOM     32  H   UNL     1       4.503   0.891 -10.667  0.00  0.00    +0.118 HD
ATOM     33  H   UNL     1       5.272   1.389  -9.320  0.00  0.00    +0.118 HD
ENDBRANCH  30  31
ENDBRANCH  29  30
ENDBRANCH  28  29
ENDBRANCH  27  28
ENDBRANCH  26  27
ENDBRANCH  24  26
BRANCH  25  34
ATOM     34  C   UNL     1       5.078  -5.692 -10.269  0.00  0.00    +0.106 C 
BRANCH  34  35
ATOM     35  N   UNL     1       6.404  -5.101 -10.198  0.00  0.00    -0.327 NA
ATOM     36  H   UNL     1       6.873  -5.241 -11.092  0.00  0.00    +0.119 HD
ATOM     37  H   UNL     1       6.310  -4.090 -10.095  0.00  0.00    +0.119 HD
ENDBRANCH  34  35
ENDBRANCH  25  34
ENDBRANCH  23  24
ENDBRANCH  22  23
ENDBRANCH   1  22
TORSDOF 14
