REMARK  Name = 
REMARK  5 active torsions:
REMARK  status: ('A' for Active; 'I' for Inactive)
REMARK    1  A    between atoms: C_7  and  C_11
REMARK    2  A    between atoms: C_14  and  C_16
REMARK    3  A    between atoms: C_16  and  O_17
REMARK    4  A    between atoms: C_18  and  O_20
REMARK    5  A    between atoms: C_21  and  O_23
REMARK                            x       y       z     vdW  Elec       q    Type
REMARK                         _______ _______ _______ _____ _____    ______ ____
ROOT
ATOM      1  N   UNL     1       8.092  -2.972  -5.935  0.00  0.00    -0.341 N 
ATOM      2  H   UNL     1       8.674  -2.162  -5.759  0.00  0.00    +0.144 HD
ATOM      3  H   UNL     1       8.402  -3.642  -6.626  0.00  0.00    +0.144 HD
ATOM      4  C   UNL     1       7.636  -3.587  -4.778  0.00  0.00    +0.147 A 
ATOM      5  C   UNL     1       7.551  -2.969  -3.501  0.00  0.00    +0.150 A 
ATOM      6  C   UNL     1       7.033  -3.719  -2.394  0.00  0.00    +0.119 A 
ATOM      7  C   UNL     1       7.039  -2.905  -1.295  0.00  0.00    +0.093 A 
ATOM      8  N   UNL     1       7.547  -1.723  -1.769  0.00  0.00    -0.276 N 
ATOM      9  H   UNL     1       7.700  -0.872  -1.236  0.00  0.00    +0.189 HD
ATOM     10  N   UNL     1       6.605  -4.994  -2.446  0.00  0.00    -0.232 NA
ATOM     11  C   UNL     1       6.766  -5.492  -3.700  0.00  0.00    +0.224 A 
ATOM     12  N   UNL     1       7.885  -1.731  -3.076  0.00  0.00    -0.168 NA
ATOM     13  N   UNL     1       7.243  -4.888  -4.831  0.00  0.00    -0.219 NA
ENDROOT
BRANCH   7  14
ATOM     14  C   UNL     1       6.579  -3.070   0.107  0.00  0.00    +0.200 C 
ATOM     15  C   UNL     1       6.661  -4.480   0.704  0.00  0.00    +0.180 C 
ATOM     16  C   UNL     1       8.009  -4.528   1.417  0.00  0.00    +0.177 C 
ATOM     17  C   UNL     1       8.528  -3.090   1.351  0.00  0.00    +0.175 C 
ATOM     18  O   UNL     1       7.433  -2.252   0.941  0.00  0.00    -0.360 OA
BRANCH  15  19
ATOM     19  O   UNL     1       5.609  -4.649   1.680  0.00  0.00    -0.386 OA
ATOM     20  H   UNL     1       5.601  -3.866   2.257  0.00  0.00    +0.210 HD
ENDBRANCH  15  19
BRANCH  16  21
ATOM     21  O   UNL     1       8.924  -5.408   0.765  0.00  0.00    -0.386 OA
ATOM     22  H   UNL     1       9.706  -5.470   1.344  0.00  0.00    +0.210 HD
ENDBRANCH  16  21
BRANCH  17  23
ATOM     23  C   UNL     1       9.112  -2.630   2.684  0.00  0.00    +0.190 C 
BRANCH  23  24
ATOM     24  O   UNL     1      10.243  -3.424   3.031  0.00  0.00    -0.392 OA
ATOM     25  H   UNL     1      11.019  -3.037   2.587  0.00  0.00    +0.210 HD
ENDBRANCH  23  24
ENDBRANCH  17  23
ENDBRANCH   7  14
TORSDOF 5
