REMARK  Name = 
REMARK  10 active torsions:
REMARK  status: ('A' for Active; 'I' for Inactive)
REMARK    1  A    between atoms: C_1  and  C_2
REMARK    2  A    between atoms: C_2  and  N_4
REMARK    3  A    between atoms: C_2  and  C_5
REMARK    4  A    between atoms: C_5  and  C_7
REMARK    5  A    between atoms: C_7  and  C_8
REMARK    6  A    between atoms: C_8  and  C_9
REMARK    7  A    between atoms: C_9  and  C_10
REMARK    8  A    between atoms: C_10  and  C_11
REMARK    9  A    between atoms: C_11  and  C_12
REMARK   10  A    between atoms: C_12  and  O_13
REMARK                            x       y       z     vdW  Elec       q    Type
REMARK                         _______ _______ _______ _____ _____    ______ ____
ROOT
ATOM      1  C   UNL     1       4.531   1.678   0.044  0.00  0.00    +0.076 C 
ENDROOT
BRANCH   1   2
ATOM      2  C   UNL     1       3.034   1.404   0.029  0.00  0.00    +0.150 C 
ATOM      3  O   UNL     1       2.201   2.313   0.079  0.00  0.00    -0.296 OA
BRANCH   2   5
ATOM      4  C   UNL     1       3.006  -0.697  -1.369  0.00  0.00    +0.032 C 
ATOM      5  C   UNL     1       2.586  -0.064  -0.050  0.00  0.00    +0.115 C 
BRANCH   5   6
ATOM      6  N   UNL     1       3.139  -0.821   1.083  0.00  0.00    -0.322 NA
ATOM      7  H   UNL     1       2.743  -0.456   1.951  0.00  0.00    +0.119 HD
ATOM      8  H   UNL     1       2.831  -1.791   1.025  0.00  0.00    +0.119 HD
ENDBRANCH   5   6
ENDBRANCH   2   5
ENDBRANCH   1   2
BRANCH   1   9
ATOM      9  C   UNL     1       4.874   3.164   0.139  0.00  0.00    +0.008 C 
BRANCH   9  10
ATOM     10  C   UNL     1       6.386   3.423   0.167  0.00  0.00    +0.001 C 
BRANCH  10  11
ATOM     11  C   UNL     1       7.071   2.796   1.384  0.00  0.00    +0.011 C 
BRANCH  11  12
ATOM     12  C   UNL     1       8.568   3.092   1.424  0.00  0.00    +0.120 C 
BRANCH  12  13
ATOM     13  C   UNL     1       9.221   2.434   2.621  0.00  0.00    +0.305 C 
ATOM     14  O   UNL     1       8.645   1.773   3.468  0.00  0.00    -0.251 OA
BRANCH  13  15
ATOM     15  O   UNL     1      10.557   2.658   2.664  0.00  0.00    -0.481 OA
ATOM     16  H   UNL     1      10.885   3.202   1.926  0.00  0.00    +0.295 HD
ENDBRANCH  13  15
ENDBRANCH  12  13
ENDBRANCH  11  12
ENDBRANCH  10  11
ENDBRANCH   9  10
ENDBRANCH   1   9
TORSDOF 9
