REMARK  Name = 
REMARK  10 active torsions:
REMARK  status: ('A' for Active; 'I' for Inactive)
REMARK    1  A    between atoms: C_1  and  C_2
REMARK    2  A    between atoms: C_2  and  C_3
REMARK    3  A    between atoms: C_3  and  N_4
REMARK    4  A    between atoms: N_9  and  C_10
REMARK    5  A    between atoms: C_10  and  C_11
REMARK    6  A    between atoms: C_11  and  C_12
REMARK    7  A    between atoms: C_12  and  C_13
REMARK    8  A    between atoms: C_13  and  N_15
REMARK    9  A    between atoms: C_13  and  C_16
REMARK   10  A    between atoms: C_16  and  O_17
REMARK                            x       y       z     vdW  Elec       q    Type
REMARK                         _______ _______ _______ _____ _____    ______ ____
ROOT
ATOM      1  N   UNK     1      16.403   0.535  -5.061  0.00  0.00    -0.279 N 
ATOM      2  H   UNK     1      16.974  -0.297  -5.105  0.00  0.00    +0.258 HD
ATOM      3  C   UNK     1      15.074   0.380  -4.866  0.00  0.00    +0.343 C 
ATOM      4  N   UNK     1      14.612  -0.830  -4.472  0.00  0.00    -0.279 N 
ATOM      5  H   UNK     1      15.316  -1.522  -4.245  0.00  0.00    +0.258 HD
ATOM      6  N   UNK     1      14.232   1.401  -5.093  0.00  0.00    -0.292 N 
ATOM      7  H   UNK     1      14.566   2.284  -5.450  0.00  0.00    +0.255 HD
ATOM      8  H   UNK     1      13.243   1.327  -4.908  0.00  0.00    +0.255 HD
ENDROOT
BRANCH   1   9
ATOM      9  C   UNK     1      17.096   1.834  -5.096  0.00  0.00    +0.195 C 
BRANCH   9  11
ATOM     10  C   UNK     1      17.677   1.750  -2.643  0.00  0.00    +0.007 C 
ATOM     11  C   UNK     1      17.008   2.552  -3.752  0.00  0.00    +0.034 C 
ENDBRANCH   9  11
ENDBRANCH   1   9
BRANCH   4  12
ATOM     12  C   UNK     1      13.205  -1.121  -4.172  0.00  0.00    +0.196 C 
BRANCH  12  13
ATOM     13  C   UNK     1      13.034  -2.402  -3.353  0.00  0.00    +0.039 C 
BRANCH  13  14
ATOM     14  C   UNK     1      13.791  -2.489  -2.016  0.00  0.00    +0.033 C 
BRANCH  14  15
ATOM     15  C   UNK     1      13.404  -1.501  -0.903  0.00  0.00    +0.161 C 
BRANCH  15  16
ATOM     16  N   UNK     1      11.957  -1.562  -0.557  0.00  0.00    -0.318 NA
ATOM     17  H   UNK     1      11.692  -2.551  -0.467  0.00  0.00    +0.119 HD
ATOM     18  H   UNK     1      11.844  -1.217   0.406  0.00  0.00    +0.119 HD
ENDBRANCH  15  16
BRANCH  15  19
ATOM     19  C   UNK     1      13.768  -0.065  -1.294  0.00  0.00    +0.322 C 
ATOM     20  O   UNK     1      14.875   0.306  -1.657  0.00  0.00    -0.249 OA
BRANCH  19  21
ATOM     21  O   UNK     1      12.676   0.740  -1.330  0.00  0.00    -0.480 OA
ATOM     22  H   UNK     1      11.902   0.174  -1.076  0.00  0.00    +0.295 HD
ENDBRANCH  19  21
ENDBRANCH  15  19
ENDBRANCH  14  15
ENDBRANCH  13  14
ENDBRANCH  12  13
ENDBRANCH   4  12
TORSDOF 9
