REMARK  Name = 
REMARK  7 active torsions:
REMARK  status: ('A' for Active; 'I' for Inactive)
REMARK    1  A    between atoms: N_1  and  O_2
REMARK    2  A    between atoms: O_2  and  C_3
REMARK    3  A    between atoms: C_3  and  C_4
REMARK    4  A    between atoms: C_4  and  CA_5
REMARK    5  A    between atoms: CA_5  and  N_7
REMARK    6  A    between atoms: CA_5  and  C_8
REMARK    7  A    between atoms: C_8  and  O_9
REMARK                            x       y       z     vdW  Elec       q    Type
REMARK                         _______ _______ _______ _____ _____    ______ ____
ROOT
ATOM      1  CA  UNL     1       4.979  -2.585   0.860  0.00  0.00    +0.163 C 
ENDROOT
BRANCH   1   2
ATOM      2  N   UNL     1       4.648  -3.656  -0.126  0.00  0.00    -0.318 NA
ATOM      3  H1  UNL     1       4.958  -4.549   0.276  0.00  0.00    +0.119 HD
ATOM      4  H2  UNL     1       3.628  -3.753  -0.157  0.00  0.00    +0.119 HD
ENDBRANCH   1   2
BRANCH   1   5
ATOM      5  C   UNL     1       6.505  -2.443   0.914  0.00  0.00    +0.322 C 
ATOM      6  OXT UNL     1       7.138  -1.945   1.832  0.00  0.00    -0.249 OA
BRANCH   5   7
ATOM      7  O   UNL     1       7.084  -2.918  -0.223  0.00  0.00    -0.480 OA
ATOM      8  H   UNL     1       6.344  -3.264  -0.781  0.00  0.00    +0.295 HD
ENDBRANCH   5   7
ENDBRANCH   1   5
BRANCH   1   9
ATOM      9  C   UNL     1       4.386  -1.231   0.452  0.00  0.00    +0.060 C 
BRANCH   9  10
ATOM     10  C   UNL     1       2.864  -1.186   0.478  0.00  0.00    +0.187 C 
BRANCH  10  11
ATOM     11  O   UNL     1       2.405  -1.599   1.770  0.00  0.00    -0.302 OA
BRANCH  11  12
ATOM     12  N   UNL     1       0.951  -1.542   1.779  0.00  0.00    -0.215 NA
ATOM     13  H   UNL     1       0.707  -2.516   1.960  0.00  0.00    +0.150 HD
ATOM     14  H   UNL     1       0.778  -1.047   2.657  0.00  0.00    +0.150 HD
ENDBRANCH  11  12
ENDBRANCH  10  11
ENDBRANCH   9  10
ENDBRANCH   1   9
TORSDOF 7
