REMARK  Name = 
REMARK  5 active torsions:
REMARK  status: ('A' for Active; 'I' for Inactive)
REMARK    1  A    between atoms: O_1  and  C_2
REMARK    2  A    between atoms: C_2  and  C_4
REMARK    3  A    between atoms: C_4  and  C_5
REMARK    4  A    between atoms: C_5  and  C_6
REMARK    5  A    between atoms: C_6  and  C_7
REMARK                            x       y       z     vdW  Elec       q    Type
REMARK                         _______ _______ _______ _____ _____    ______ ____
ROOT
ATOM      1  C   UNL     1       4.570  -0.720  -0.568  0.00  0.00    +0.016 C 
ENDROOT
BRANCH   1   2
ATOM      2  C   UNL     1       3.058  -0.870  -0.723  0.00  0.00    +0.121 C 
BRANCH   2   3
ATOM      3  C   UNL     1       2.309   0.103   0.159  0.00  0.00    +0.305 C 
ATOM      4  O   UNL     1       2.822   0.928   0.898  0.00  0.00    -0.251 OA
BRANCH   3   5
ATOM      5  O   UNL     1       0.967  -0.027   0.043  0.00  0.00    -0.481 OA
ATOM      6  H   UNL     1       0.689  -0.723  -0.581  0.00  0.00    +0.295 HD
ENDBRANCH   3   5
ENDBRANCH   2   3
ENDBRANCH   1   2
BRANCH   1   7
ATOM      7  C   UNL     1       5.329  -1.705  -1.460  0.00  0.00    +0.043 C 
BRANCH   7   8
ATOM      8  C   UNL     1       6.812  -1.552  -1.299  0.00  0.00    -0.010 A 
ATOM      9  S   UNL     1       7.654  -2.474  -0.126  0.00  0.00    -0.102 S 
ATOM     10  C   UNL     1       9.146  -1.743  -0.530  0.00  0.00    +0.045 A 
ATOM     11  C   UNL     1       9.013  -0.825  -1.547  0.00  0.00    +0.008 A 
ATOM     12  C   UNL     1       7.665  -0.717  -1.995  0.00  0.00    +0.011 A 
ENDBRANCH   7   8
ENDBRANCH   1   7
TORSDOF 5
