REMARK  Name = 
REMARK  8 active torsions:
REMARK  status: ('A' for Active; 'I' for Inactive)
REMARK    1  A    between atoms: C_1  and  C_2
REMARK    2  A    between atoms: C_2  and  N_3
REMARK    3  A    between atoms: N_3  and  S_4
REMARK    4  A    between atoms: C_5  and  N_6
REMARK    5  A    between atoms: C_11  and  C_13
REMARK    6  A    between atoms: C_13  and  O_14
REMARK    7  A    between atoms: C_20  and  O_21
REMARK    8  A    between atoms: C_27  and  O_28
REMARK                            x       y       z     vdW  Elec       q    Type
REMARK                         _______ _______ _______ _____ _____    ______ ____
ROOT
ATOM      1  N   UNL     1       6.757   2.769  -1.430  0.00  0.00    -0.215 NA
ATOM      2  C   UNL     1       7.116   3.743  -2.200  0.00  0.00    +0.054 C 
ATOM      3  C   UNL     1       8.575   3.997  -2.387  0.00  0.00    +0.040 C 
ATOM      4  C   UNL     1       8.994   5.182  -2.875  0.00  0.00    +0.068 C 
ATOM      5  C   UNL     1       8.004   6.278  -3.003  0.00  0.00    -0.002 C 
ATOM      6  C   UNL     1       8.205   7.600  -2.686  0.00  0.00    +0.004 C 
ATOM      7  C   UNL     1       7.150   8.662  -2.886  0.00  0.00    +0.026 A 
ATOM      8  C   UNL     1       7.605   9.947  -3.230  0.00  0.00    +0.140 A 
ATOM      9  C   UNL     1       6.714  10.997  -3.488  0.00  0.00    +0.092 A 
ATOM     10  C   UNL     1       5.348  10.765  -3.411  0.00  0.00    +0.120 A 
ATOM     11  C   UNL     1       4.869   9.522  -3.029  0.00  0.00    +0.046 A 
ATOM     12  O   UNL     1       8.941  10.262  -3.360  0.00  0.00    -0.455 OA
ATOM     13  C   UNL     1       9.858   9.435  -2.751  0.00  0.00    +0.140 A 
ATOM     14  C   UNL     1      11.156   9.941  -2.655  0.00  0.00    +0.092 A 
ATOM     15  C   UNL     1      12.148   9.164  -2.078  0.00  0.00    +0.120 A 
ATOM     16  C   UNL     1      11.832   7.954  -1.475  0.00  0.00    +0.046 A 
ATOM     17  C   UNL     1      10.515   7.480  -1.523  0.00  0.00    +0.016 A 
ATOM     18  C   UNL     1       5.766   8.494  -2.719  0.00  0.00    +0.016 A 
ATOM     19  C   UNL     1       9.544   8.149  -2.280  0.00  0.00    +0.026 A 
ATOM     20  C   UNL     1       6.707   5.782  -3.488  0.00  0.00    +0.011 C 
ATOM     21  C   UNL     1       6.240   4.600  -3.058  0.00  0.00    +0.026 C 
ENDROOT
BRANCH   1  23
ATOM     22  S   UNL     1       5.018   0.811  -0.879  0.00  0.00    -0.035 S 
ATOM     23  C   UNL     1       5.437   2.468  -1.256  0.00  0.00    +0.154 C 
BRANCH  22  24
ATOM     24  N   UNL     1       3.356   0.901  -0.782  0.00  0.00    -0.259 NA
ATOM     25  H   UNL     1       3.087   1.562  -0.053  0.00  0.00    +0.135 HD
BRANCH  24  27
ATOM     26  C   UNL     1       1.109  -0.074  -0.533  0.00  0.00    +0.021 C 
ATOM     27  C   UNL     1       2.606  -0.342  -0.573  0.00  0.00    +0.090 C 
ENDBRANCH  24  27
ENDBRANCH  22  24
ENDBRANCH   1  23
BRANCH   4  28
ATOM     28  C   UNL     1      10.402   5.182  -3.362  0.00  0.00    +0.337 C 
ATOM     29  O   UNL     1      11.265   4.423  -2.938  0.00  0.00    -0.245 OA
BRANCH  28  30
ATOM     30  O   UNL     1      10.644   6.047  -4.367  0.00  0.00    -0.477 OA
ATOM     31  H   UNL     1       9.915   6.662  -4.570  0.00  0.00    +0.295 HD
ENDBRANCH  28  30
ENDBRANCH   4  28
BRANCH  10  32
ATOM     32  O   UNL     1       4.436  11.738  -3.688  0.00  0.00    -0.507 OA
ATOM     33  H   UNL     1       4.904  12.569  -3.876  0.00  0.00    +0.292 HD
ENDBRANCH  10  32
BRANCH  15  34
ATOM     34  O   UNL     1      13.430   9.619  -2.128  0.00  0.00    -0.507 OA
ATOM     35  H   UNL     1      14.027   8.868  -1.966  0.00  0.00    +0.292 HD
ENDBRANCH  15  34
TORSDOF 7
