REMARK  Name = 
REMARK  16 active torsions:
REMARK  status: ('A' for Active; 'I' for Inactive)
REMARK    1  A    between atoms: C_2  and  O_3
REMARK    2  A    between atoms: C_2  and  C_4
REMARK    3  A    between atoms: C_2  and  C_9
REMARK    4  A    between atoms: C_4  and  C_5
REMARK    5  A    between atoms: C_5  and  C_6
REMARK    6  A    between atoms: C_6  and  C_7
REMARK    7  A    between atoms: C_7  and  C_8
REMARK    8  A    between atoms: C_10  and  C_11
REMARK    9  A    between atoms: C_16  and  O_18
REMARK   10  A    between atoms: C_19  and  C_21
REMARK   11  A    between atoms: C_21  and  C_22
REMARK   12  A    between atoms: C_23  and  C_24
REMARK   13  A    between atoms: C_24  and  C_25
REMARK   14  A    between atoms: C_25  and  C_26
REMARK   15  A    between atoms: C_26  and  C_27
REMARK   16  A    between atoms: C_27  and  O_28
REMARK                            x       y       z     vdW  Elec       q    Type
REMARK                         _______ _______ _______ _____ _____    ______ ____
ROOT
ATOM      1  C   UNL     1       4.557   3.198   0.614  0.00  0.00    +0.084 C 
ATOM      2  C   UNL     1       4.156   3.791   1.983  0.00  0.00    +0.036 C 
ATOM      3  C   UNL     1       4.118   5.330   1.805  0.00  0.00    +0.126 C 
ATOM      4  C   UNL     1       4.278   5.657   0.327  0.00  0.00    +0.106 C 
ATOM      5  C   UNL     1       4.178   4.320  -0.333  0.00  0.00    +0.143 C 
ATOM      6  O   UNL     1       3.905   4.185  -1.519  0.00  0.00    -0.297 OA
ENDROOT
BRANCH   1   8
ATOM      7  C   UNL     1       4.426   0.691   0.404  0.00  0.00    +0.000 C 
ATOM      8  C   UNL     1       3.861   1.907   0.271  0.00  0.00    -0.017 C 
BRANCH   7   9
ATOM      9  C   UNL     1       3.755  -0.591  -0.009  0.00  0.00    +0.137 C 
BRANCH   9  10
ATOM     10  O   UNL     1       4.636  -1.269  -0.899  0.00  0.00    -0.388 OA
ATOM     11  H   UNL     1       5.429  -1.521  -0.400  0.00  0.00    +0.210 HD
ENDBRANCH   9  10
BRANCH   9  12
ATOM     12  C   UNL     1       3.435  -1.524   1.164  0.00  0.00    +0.035 C 
BRANCH  12  13
ATOM     13  C   UNL     1       2.427  -0.924   2.144  0.00  0.00    +0.003 C 
BRANCH  13  14
ATOM     14  C   UNL     1       2.023  -1.947   3.203  0.00  0.00    -0.000 C 
BRANCH  14  15
ATOM     15  C   UNL     1       1.007  -1.360   4.182  0.00  0.00    -0.003 C 
ATOM     16  C   UNL     1       0.618  -2.382   5.240  0.00  0.00    +0.004 C 
ENDBRANCH  14  15
ENDBRANCH  13  14
ENDBRANCH  12  13
ENDBRANCH   9  12
ENDBRANCH   7   9
ENDBRANCH   1   8
BRANCH   3  17
ATOM     17  O   UNL     1       5.148   5.993   2.527  0.00  0.00    -0.391 OA
ATOM     18  H   UNL     1       4.929   6.942   2.552  0.00  0.00    +0.210 HD
ENDBRANCH   3  17
BRANCH   2  19
ATOM     19  C   UNL     1       5.106   3.281   3.080  0.00  0.00    +0.034 C 
BRANCH  19  20
ATOM     20  C   UNL     1       4.701   3.693   4.470  0.00  0.00    -0.031 C 
ATOM     21  C   UNL     1       4.459   2.883   5.507  0.00  0.00    -0.031 C 
BRANCH  21  22
ATOM     22  C   UNL     1       4.511   1.386   5.478  0.00  0.00    +0.027 C 
BRANCH  22  23
ATOM     23  C   UNL     1       3.562   0.762   6.497  0.00  0.00    +0.015 C 
BRANCH  23  24
ATOM     24  C   UNL     1       3.748  -0.753   6.518  0.00  0.00    +0.121 C 
BRANCH  24  25
ATOM     25  C   UNL     1       2.857  -1.418   7.533  0.00  0.00    +0.305 C 
ATOM     26  O   UNL     1       2.051  -0.849   8.252  0.00  0.00    -0.251 OA
BRANCH  25  27
ATOM     27  O   UNL     1       3.038  -2.759   7.565  0.00  0.00    -0.481 OA
ATOM     28  H   UNL     1       3.653  -3.087   6.881  0.00  0.00    +0.295 HD
ENDBRANCH  25  27
ENDBRANCH  24  25
ENDBRANCH  23  24
ENDBRANCH  22  23
ENDBRANCH  21  22
ENDBRANCH  19  20
ENDBRANCH   2  19
TORSDOF 15
