REMARK  Name = 
REMARK  14 active torsions:
REMARK  status: ('A' for Active; 'I' for Inactive)
REMARK    1  A    between atoms: C_1  and  S_2
REMARK    2  A    between atoms: S_2  and  C_3
REMARK    3  A    between atoms: C_3  and  C_4
REMARK    4  A    between atoms: C_4  and  C_5
REMARK    5  A    between atoms: C_5  and  N_7
REMARK    6  A    between atoms: C_5  and  C_8
REMARK    7  A    between atoms: N_10  and  S_11
REMARK    8  A    between atoms: S_11  and  O_14
REMARK    9  A    between atoms: O_14  and  C_15
REMARK   10  A    between atoms: C_15  and  C_16
REMARK   11  A    between atoms: C_19  and  N_27
REMARK   12  A    between atoms: C_21  and  O_23
REMARK   13  A    between atoms: C_24  and  O_26
REMARK   14  A    between atoms: C_31  and  N_32
REMARK                            x       y       z     vdW  Elec       q    Type
REMARK                         _______ _______ _______ _____ _____    ______ ____
ROOT
ATOM      1  C   UNL     1      15.954  -5.461  -9.923  0.00  0.00    +0.180 C 
ATOM      2  C   UNL     1      16.375  -4.261  -9.099  0.00  0.00    +0.178 C 
ATOM      3  C   UNL     1      15.080  -3.635  -8.565  0.00  0.00    +0.193 C 
ATOM      4  C   UNL     1      13.907  -4.470  -9.120  0.00  0.00    +0.240 C 
ATOM      5  O   UNL     1      14.527  -5.513  -9.929  0.00  0.00    -0.348 OA
ENDROOT
BRANCH   4   6
ATOM      6  N   UNL     1      13.022  -5.155  -8.125  0.00  0.00    -0.265 N 
ATOM      7  C   UNL     1      11.758  -4.596  -7.546  0.00  0.00    +0.255 C 
ATOM      8  C   UNL     1      10.731  -5.210  -8.470  0.00  0.00    +0.169 C 
ATOM      9  C   UNL     1       9.466  -4.754  -8.522  0.00  0.00    +0.284 C 
ATOM     10  N   UNL     1       9.153  -3.793  -7.595  0.00  0.00    -0.195 N 
ATOM     11  H   UNL     1       8.165  -3.734  -7.372  0.00  0.00    +0.299 HD
ATOM     12  C   UNL     1      10.113  -3.179  -6.820  0.00  0.00    +0.300 C 
ATOM     13  N   UNL     1      11.235  -6.347  -9.057  0.00  0.00    -0.233 NA
ATOM     14  N   UNL     1      11.408  -3.316  -6.887  0.00  0.00    -0.225 NA
ATOM     15  C   UNL     1      12.493  -6.307  -8.721  0.00  0.00    +0.188 C 
BRANCH   9  16
ATOM     16  N   UNL     1       8.521  -5.265  -9.385  0.00  0.00    -0.250 N 
ATOM     17  H   UNL     1       7.980  -4.522  -9.819  0.00  0.00    +0.288 HD
ATOM     18  H   UNL     1       9.011  -5.803 -10.110  0.00  0.00    +0.288 HD
ENDBRANCH   9  16
ENDBRANCH   4   6
BRANCH   2  19
ATOM     19  O   UNL     1      17.242  -4.664  -8.024  0.00  0.00    -0.386 OA
ATOM     20  H   UNL     1      16.844  -5.425  -7.566  0.00  0.00    +0.210 HD
ENDBRANCH   2  19
BRANCH   3  21
ATOM     21  O   UNL     1      15.036  -2.283  -9.070  0.00  0.00    -0.385 OA
ATOM     22  H   UNL     1      14.300  -1.837  -8.622  0.00  0.00    +0.210 HD
ENDBRANCH   3  21
BRANCH   1  23
ATOM     23  C   UNL     1      16.447  -5.444 -11.379  0.00  0.00    +0.229 C 
BRANCH  23  24
ATOM     24  O   UNL     1      15.918  -4.335 -12.079  0.00  0.00    -0.220 OA
BRANCH  24  25
ATOM     25  S   UNL     1      16.292  -4.234 -13.659  0.00  0.00    +0.169 S 
ATOM     26  O   UNL     1      17.687  -3.845 -13.750  0.00  0.00    -0.126 OA
ATOM     27  O   UNL     1      15.810  -5.391 -14.374  0.00  0.00    -0.126 OA
BRANCH  25  29
ATOM     28  C   UNL     1      14.058  -2.773 -14.068  0.00  0.00    +0.250 C 
ATOM     29  N   UNL     1      15.445  -2.908 -14.186  0.00  0.00    -0.164 N 
ATOM     30  H   UNL     1      15.936  -2.264 -14.821  0.00  0.00    +0.179 HD
ATOM     31  O   UNL     1      13.381  -3.535 -13.380  0.00  0.00    -0.272 OA
BRANCH  28  32
ATOM     32  C   UNL     1      13.470  -1.553 -14.787  0.00  0.00    +0.140 C 
BRANCH  32  33
ATOM     33  N   UNL     1      14.319  -1.167 -15.948  0.00  0.00    -0.320 NA
ATOM     34  H   UNL     1      14.246  -1.913 -16.647  0.00  0.00    +0.119 HD
ATOM     35  H   UNL     1      13.883  -0.362 -16.405  0.00  0.00    +0.119 HD
ENDBRANCH  32  33
BRANCH  32  36
ATOM     36  C   UNL     1      13.358  -0.420 -13.755  0.00  0.00    +0.038 C 
BRANCH  36  37
ATOM     37  C   UNL     1      12.638   0.844 -14.226  0.00  0.00    +0.071 C 
BRANCH  37  39
ATOM     38  C   UNL     1      10.418   2.173 -15.181  0.00  0.00    +0.084 C 
ATOM     39  S   UNL     1      10.913   0.502 -14.701  0.00  0.00    -0.164 S 
ENDBRANCH  37  39
ENDBRANCH  36  37
ENDBRANCH  32  36
ENDBRANCH  28  32
ENDBRANCH  25  29
ENDBRANCH  24  25
ENDBRANCH  23  24
ENDBRANCH   1  23
TORSDOF 13
