REMARK  Name = 
REMARK  6 active torsions:
REMARK  status: ('A' for Active; 'I' for Inactive)
REMARK    1  A    between atoms: C_2  and  C_3
REMARK    2  A    between atoms: C_2  and  C_4
REMARK    3  A    between atoms: C_2  and  C_6
REMARK    4  A    between atoms: C_4  and  S_5
REMARK    5  A    between atoms: C_12  and  C_14
REMARK    6  A    between atoms: C_14  and  O_15
REMARK                            x       y       z     vdW  Elec       q    Type
REMARK                         _______ _______ _______ _____ _____    ______ ____
ROOT
ATOM      1  C   UNL     1       2.793   0.607  -1.154  0.00  0.00    +0.220 C 
ATOM      2  N   UNL     1       4.183   0.694  -1.220  0.00  0.00    -0.288 N 
ATOM      3  C   UNL     1       5.014  -0.393  -1.790  0.00  0.00    +0.184 C 
ATOM      4  C   UNL     1       6.127   0.321  -2.569  0.00  0.00    +0.035 C 
ATOM      5  C   UNL     1       5.641   1.753  -2.732  0.00  0.00    +0.021 C 
ATOM      6  C   UNL     1       4.800   1.987  -1.495  0.00  0.00    +0.109 C 
ATOM      7  O   UNL     1       2.072   1.589  -1.329  0.00  0.00    -0.275 OA
ENDROOT
BRANCH   1   8
ATOM      8  C   UNL     1       2.195  -0.724  -0.698  0.00  0.00    +0.082 C 
ATOM      9  C   UNL     1       2.018  -0.645   0.823  0.00  0.00    +0.018 C 
BRANCH   8  10
ATOM     10  C   UNL     1       0.833  -0.987  -1.352  0.00  0.00    +0.078 C 
BRANCH  10  11
ATOM     11  S   UNL     1       0.986  -1.285  -3.141  0.00  0.00    -0.178 S 
ATOM     12  H   UNL     1       1.210  -0.005  -3.481  0.00  0.00    +0.102 HD
ENDBRANCH  10  11
ENDBRANCH   8  10
ENDBRANCH   1   8
BRANCH   3  13
ATOM     13  C   UNL     1       5.646  -1.288  -0.721  0.00  0.00    +0.325 C 
ATOM     14  O   UNL     1       6.305  -2.287  -0.964  0.00  0.00    -0.249 OA
BRANCH  13  15
ATOM     15  O   UNL     1       5.459  -0.828   0.539  0.00  0.00    -0.479 OA
ATOM     16  H   UNL     1       4.950   0.010   0.515  0.00  0.00    +0.295 HD
ENDBRANCH  13  15
ENDBRANCH   3  13
TORSDOF 5
