REMARK  Name = 
REMARK  18 active torsions:
REMARK  status: ('A' for Active; 'I' for Inactive)
REMARK    1  A    between atoms: O_1  and  C_2
REMARK    2  A    between atoms: C_2  and  C_3
REMARK    3  A    between atoms: C_3  and  C_4
REMARK    4  A    between atoms: C_3  and  C_6
REMARK    5  A    between atoms: C_3  and  N_8
REMARK    6  A    between atoms: C_4  and  O_5
REMARK    7  A    between atoms: C_6  and  O_7
REMARK    8  A    between atoms: N_8  and  C_9
REMARK    9  A    between atoms: C_9  and  C_10
REMARK   10  A    between atoms: C_10  and  C_11
REMARK   11  A    between atoms: C_11  and  N_12
REMARK   12  A    between atoms: N_12  and  C_13
REMARK   13  A    between atoms: C_13  and  C_14
REMARK   14  A    between atoms: C_13  and  C_16
REMARK   15  A    between atoms: C_13  and  C_18
REMARK   16  A    between atoms: C_14  and  O_15
REMARK   17  A    between atoms: C_16  and  O_17
REMARK   18  A    between atoms: C_18  and  O_19
REMARK                            x       y       z     vdW  Elec       q    Type
REMARK                         _______ _______ _______ _____ _____    ______ ____
ROOT
ATOM      1  C   UNL     1       6.444  -1.514  -2.142  0.00  0.00    +0.030 C 
ENDROOT
BRANCH   1   2
ATOM      2  C   UNL     1       7.039  -2.225  -3.363  0.00  0.00    +0.083 C 
BRANCH   2   3
ATOM      3  N   UNL     1       6.552  -1.676  -4.636  0.00  0.00    -0.305 NA
ATOM      4  H   UNL     1       6.855  -0.699  -4.688  0.00  0.00    +0.123 HD
BRANCH   3   5
ATOM      5  C   UNL     1       7.083  -2.365  -5.859  0.00  0.00    +0.089 C 
BRANCH   5   6
ATOM      6  C   UNL     1       8.637  -2.416  -5.891  0.00  0.00    +0.182 C 
BRANCH   6   7
ATOM      7  O   UNL     1       9.218  -1.123  -5.717  0.00  0.00    -0.393 OA
ATOM      8  H   UNL     1       9.196  -0.660  -6.572  0.00  0.00    +0.209 HD
ENDBRANCH   6   7
ENDBRANCH   5   6
BRANCH   5   9
ATOM      9  C   UNL     1       6.529  -3.812  -5.957  0.00  0.00    +0.182 C 
BRANCH   9  10
ATOM     10  O   UNL     1       5.103  -3.823  -6.032  0.00  0.00    -0.393 OA
ATOM     11  H   UNL     1       4.773  -3.319  -5.254  0.00  0.00    +0.209 HD
ENDBRANCH   9  10
ENDBRANCH   5   9
BRANCH   5  12
ATOM     12  C   UNL     1       6.607  -1.563  -7.119  0.00  0.00    +0.182 C 
BRANCH  12  13
ATOM     13  O   UNL     1       5.187  -1.453  -7.235  0.00  0.00    -0.393 OA
ATOM     14  H   UNL     1       4.836  -2.354  -7.078  0.00  0.00    +0.209 HD
ENDBRANCH  12  13
ENDBRANCH   5  12
ENDBRANCH   3   5
ENDBRANCH   2   3
ENDBRANCH   1   2
BRANCH   1  15
ATOM     15  C   UNL     1       4.913  -1.470  -2.076  0.00  0.00    +0.083 C 
BRANCH  15  16
ATOM     16  N   UNL     1       4.294  -2.804  -2.119  0.00  0.00    -0.305 NA
ATOM     17  H   UNL     1       4.610  -3.246  -2.987  0.00  0.00    +0.123 HD
BRANCH  16  18
ATOM     18  C   UNL     1       2.793  -2.756  -2.225  0.00  0.00    +0.089 C 
BRANCH  18  19
ATOM     19  C   UNL     1       2.115  -2.040  -1.019  0.00  0.00    +0.182 C 
BRANCH  19  20
ATOM     20  O   UNL     1       2.454  -2.604   0.248  0.00  0.00    -0.393 OA
ATOM     21  H   UNL     1       2.380  -3.576   0.152  0.00  0.00    +0.209 HD
ENDBRANCH  19  20
ENDBRANCH  18  19
BRANCH  18  22
ATOM     22  C   UNL     1       2.327  -4.242  -2.269  0.00  0.00    +0.182 C 
BRANCH  22  23
ATOM     23  O   UNL     1       2.730  -4.929  -1.084  0.00  0.00    -0.393 OA
ATOM     24  H   UNL     1       3.688  -4.723  -1.003  0.00  0.00    +0.209 HD
ENDBRANCH  22  23
ENDBRANCH  18  22
BRANCH  18  25
ATOM     25  C   UNL     1       2.333  -2.075  -3.544  0.00  0.00    +0.182 C 
BRANCH  25  26
ATOM     26  O   UNL     1       3.025  -2.643  -4.658  0.00  0.00    -0.393 OA
ATOM     27  H   UNL     1       2.797  -2.100  -5.437  0.00  0.00    +0.209 HD
ENDBRANCH  25  26
ENDBRANCH  18  25
ENDBRANCH  16  18
ENDBRANCH  15  16
ENDBRANCH   1  15
TORSDOF 18
