REMARK  Name = 
REMARK  35 active torsions:
REMARK  status: ('A' for Active; 'I' for Inactive)
REMARK    1  A    between atoms: C_1  and  C_2
REMARK    2  A    between atoms: C_2  and  C_3
REMARK    3  A    between atoms: C_2  and  C_4
REMARK    4  A    between atoms: C_2  and  C_40
REMARK    5  A    between atoms: C_4  and  O_5
REMARK    6  A    between atoms: O_5  and  P_6
REMARK    7  A    between atoms: P_6  and  O_9
REMARK    8  A    between atoms: O_9  and  P_10
REMARK    9  A    between atoms: P_10  and  O_11
REMARK   10  A    between atoms: P_10  and  O_13
REMARK   11  A    between atoms: O_13  and  C_14
REMARK   12  A    between atoms: C_14  and  C_15
REMARK   13  A    between atoms: C_18  and  N_30
REMARK   14  A    between atoms: C_20  and  O_22
REMARK   15  A    between atoms: C_23  and  O_25
REMARK   16  A    between atoms: O_25  and  P_26
REMARK   17  A    between atoms: P_26  and  O_27
REMARK   18  A    between atoms: P_26  and  O_28
REMARK   19  A    between atoms: C_40  and  O_42
REMARK   20  A    between atoms: C_40  and  C_43
REMARK   21  A    between atoms: N_45  and  C_46
REMARK   22  A    between atoms: C_46  and  C_47
REMARK   23  A    between atoms: C_47  and  C_48
REMARK   24  A    between atoms: N_50  and  C_51
REMARK   25  A    between atoms: C_51  and  C_52
REMARK   26  A    between atoms: C_52  and  S_53
REMARK   27  A    between atoms: S_53  and  C_54
REMARK   28  A    between atoms: C_54  and  C_56
REMARK   29  A    between atoms: C_56  and  C_57
REMARK   30  A    between atoms: C_57  and  O_59
REMARK   31  A    between atoms: C_57  and  C_60
REMARK   32  A    between atoms: C_60  and  N_61
REMARK   33  A    between atoms: N_61  and  C_62
REMARK   34  A    between atoms: N_61  and  C_63
REMARK   35  A    between atoms: N_61  and  C_64
REMARK                            x       y       z     vdW  Elec       q    Type
REMARK                         _______ _______ _______ _____ _____    ______ ____
ROOT
ATOM      1  P   UNL     1      -3.793   6.463   3.681  0.00  0.00    +0.222 P 
ATOM      2  O   UNL     1      -4.242   6.687   2.227  0.00  0.00    -0.437 OA
ATOM      3  O   UNL     1      -4.973   5.916   4.456  0.00  0.00    -0.517 OA
ENDROOT
BRANCH   1   4
ATOM      4  O   UNL     1      -2.584   5.254   4.015  0.00  0.00    -0.229 OA
BRANCH   4   5
ATOM      5  P   UNL     1      -2.980   3.831   3.115  0.00  0.00    +0.480 P 
ATOM      6  O   UNL     1      -1.495   3.546   2.845  0.00  0.00    -0.227 OA
BRANCH   5   7
ATOM      7  O   UNL     1      -3.430   4.614   1.758  0.00  0.00    -0.302 OA
ATOM      8  H   UNL     1      -4.222   5.220   1.785  0.00  0.00    +0.222 HD
ENDBRANCH   5   7
BRANCH   5   9
ATOM      9  O   UNL     1      -3.376   2.407   2.215  0.00  0.00    -0.284 OA
BRANCH   9  10
ATOM     10  C   UNL     1      -2.472   1.254   2.609  0.00  0.00    +0.206 C 
BRANCH  10  11
ATOM     11  C   UNL     1      -2.384   0.902   4.158  0.00  0.00    +0.179 C 
ATOM     12  C   UNL     1      -1.356  -0.175   4.670  0.00  0.00    +0.194 C 
ATOM     13  C   UNL     1      -0.412   0.586   5.623  0.00  0.00    +0.196 C 
ATOM     14  C   UNL     1      -0.770   2.056   5.441  0.00  0.00    +0.253 C 
ATOM     15  O   UNL     1      -2.114   2.089   4.926  0.00  0.00    -0.346 OA
BRANCH  14  16
ATOM     16  N   UNL     1      -0.790   2.781   6.703  0.00  0.00    -0.286 N 
ATOM     17  C   UNL     1       0.265   3.384   7.335  0.00  0.00    +0.167 A 
ATOM     18  N   UNL     1       1.556   3.426   6.961  0.00  0.00    -0.216 NA
ATOM     19  C   UNL     1       2.275   4.159   7.848  0.00  0.00    +0.225 A 
ATOM     20  N   UNL     1       1.873   4.730   9.008  0.00  0.00    -0.219 NA
ATOM     21  C   UNL     1       0.566   4.662   9.327  0.00  0.00    +0.147 A 
ATOM     22  N   UNL     1       0.136   5.256  10.511  0.00  0.00    -0.341 N 
ATOM     23  H   UNL     1      -0.725   4.850  10.860  0.00  0.00    +0.144 HD
ATOM     24  H   UNL     1       0.900   5.374  11.164  0.00  0.00    +0.144 HD
ATOM     25  C   UNL     1      -0.297   3.958   8.473  0.00  0.00    +0.147 A 
ATOM     26  N   UNL     1      -1.645   3.686   8.560  0.00  0.00    -0.231 NA
ATOM     27  C   UNL     1      -1.905   2.978   7.485  0.00  0.00    +0.203 A 
ENDBRANCH  14  16
BRANCH  13  28
ATOM     28  O   UNL     1       0.958   0.262   5.359  0.00  0.00    -0.385 OA
ATOM     29  H   UNL     1       1.518   0.974   5.732  0.00  0.00    +0.210 HD
ENDBRANCH  13  28
BRANCH  12  30
ATOM     30  O   UNL     1      -2.079  -1.135   5.453  0.00  0.00    -0.278 OA
BRANCH  30  31
ATOM     31  P   UNL     1      -1.438  -2.418   6.158  0.00  0.00    +0.473 P 
ATOM     32  O   UNL     1      -0.806  -3.477   5.330  0.00  0.00    -0.228 OA
BRANCH  31  33
ATOM     33  O   UNL     1      -0.464  -1.872   7.307  0.00  0.00    -0.303 OA
ATOM     34  H   UNL     1       0.464  -2.097   7.096  0.00  0.00    +0.222 HD
ENDBRANCH  31  33
BRANCH  31  35
ATOM     35  O   UNL     1      -2.610  -2.963   7.082  0.00  0.00    -0.303 OA
ATOM     36  H   UNL     1      -2.294  -3.615   7.755  0.00  0.00    +0.222 HD
ENDBRANCH  31  35
ENDBRANCH  30  31
ENDBRANCH  12  30
ENDBRANCH  10  11
ENDBRANCH   9  10
ENDBRANCH   5   9
ENDBRANCH   4   5
ENDBRANCH   1   4
BRANCH   1  37
ATOM     37  O   UNL     1      -3.129   8.232   4.145  0.00  0.00    -0.327 OA
BRANCH  37  38
ATOM     38  C   UNL     1      -2.200   8.961   5.527  0.00  0.00    +0.177 C 
BRANCH  38  40
ATOM     39  C   UNL     1      -1.035  10.999   5.712  0.00  0.00    +0.016 C 
ATOM     40  C   UNL     1      -0.660   9.515   5.986  0.00  0.00    +0.023 C 
ATOM     41  C   UNL     1      -0.607   9.212   7.542  0.00  0.00    +0.016 C 
BRANCH  40  42
ATOM     42  C   UNL     1       0.790   9.056   5.236  0.00  0.00    +0.208 C 
BRANCH  42  43
ATOM     43  C   UNL     1       1.456   7.613   5.474  0.00  0.00    +0.242 C 
ATOM     44  N   UNL     1       2.241   6.889   4.542  0.00  0.00    -0.313 N 
ATOM     45  H   UNL     1       2.392   5.948   4.910  0.00  0.00    +0.149 HD
ATOM     46  O   UNL     1       1.301   7.024   6.587  0.00  0.00    -0.273 OA
BRANCH  44  47
ATOM     47  C   UNL     1       2.836   7.049   3.173  0.00  0.00    +0.113 C 
BRANCH  47  48
ATOM     48  C   UNL     1       2.386   6.087   2.015  0.00  0.00    +0.114 C 
BRANCH  48  49
ATOM     49  C   UNL     1       1.419   6.727   1.015  0.00  0.00    +0.215 C 
ATOM     50  N   UNL     1       0.702   7.749   1.596  0.00  0.00    -0.314 N 
ATOM     51  H   UNL     1       0.775   7.759   2.608  0.00  0.00    +0.149 HD
ATOM     52  O   UNL     1       1.201   6.252  -0.097  0.00  0.00    -0.276 OA
BRANCH  50  53
ATOM     53  C   UNL     1      -0.689   7.703   1.335  0.00  0.00    +0.115 C 
BRANCH  53  54
ATOM     54  C   UNL     1      -1.141   6.345   1.922  0.00  0.00    +0.096 C 
BRANCH  54  55
ATOM     55  S   UNL     1      -0.363   5.725   3.877  0.00  0.00    -0.087 S 
BRANCH  55  56
ATOM     56  C   UNL     1      -1.528   6.850   4.747  0.00  0.00    +0.192 C 
ATOM     57  O   UNL     1      -1.137   7.756   3.989  0.00  0.00    -0.285 OA
BRANCH  56  58
ATOM     58  C   UNL     1      -3.196   6.854   5.887  0.00  0.00    +0.123 C 
BRANCH  58  59
ATOM     59  C   UNL     1      -4.809   7.997   5.594  0.00  0.00    +0.167 C 
BRANCH  59  60
ATOM     60  O   UNL     1      -5.308   8.370   4.249  0.00  0.00    -0.386 OA
ATOM     61  H   UNL     1      -4.594   8.532   3.611  0.00  0.00    +0.210 HD
ENDBRANCH  59  60
BRANCH  59  62
ATOM     62  C   UNL     1      -6.359   7.885   6.184  0.00  0.00    +0.164 C 
BRANCH  62  63
ATOM     63  N   UNL     1      -7.637   8.686   5.182  0.00  0.00    +0.239 N 
ATOM     64  C   UNL     1      -8.912   8.780   6.002  0.00  0.00    +0.192 C 
ATOM     65  C   UNL     1      -7.980   7.846   3.922  0.00  0.00    +0.192 C 
ATOM     66  C   UNL     1      -7.292  10.102   4.697  0.00  0.00    +0.192 C 
ENDBRANCH  62  63
ENDBRANCH  59  62
ENDBRANCH  58  59
ENDBRANCH  56  58
ENDBRANCH  55  56
ENDBRANCH  54  55
ENDBRANCH  53  54
ENDBRANCH  50  53
ENDBRANCH  48  49
ENDBRANCH  47  48
ENDBRANCH  44  47
ENDBRANCH  42  43
BRANCH  42  67
ATOM     67  O   UNL     1       1.817  10.006   5.589  0.00  0.00    -0.382 OA
ATOM     68  H   UNL     1       1.472  10.595   6.277  0.00  0.00    +0.210 HD
ENDBRANCH  42  67
ENDBRANCH  40  42
ENDBRANCH  38  40
ENDBRANCH  37  38
ENDBRANCH   1  37
TORSDOF 30
