REMARK  Name = 
REMARK  5 active torsions:
REMARK  status: ('A' for Active; 'I' for Inactive)
REMARK    1  A    between atoms: C_1  and  O_2
REMARK    2  A    between atoms: O_2  and  C_3
REMARK    3  A    between atoms: C_6  and  O_7
REMARK    4  A    between atoms: O_7  and  C_8
REMARK    5  A    between atoms: C_17  and  N_18
REMARK                            x       y       z     vdW  Elec       q    Type
REMARK                         _______ _______ _______ _____ _____    ______ ____
ROOT
ATOM      1  C   UNL     1       6.340   4.424   2.388  0.00  0.00    +0.141 A 
ATOM      2  C   UNL     1       6.927   3.130   2.549  0.00  0.00    +0.082 A 
ATOM      3  C   UNL     1       7.941   2.975   3.495  0.00  0.00    +0.081 A 
ATOM      4  N   UNL     1       8.403   1.775   3.880  0.00  0.00    -0.214 NA
ATOM      5  C   UNL     1       7.902   0.705   3.269  0.00  0.00    +0.215 A 
ATOM      6  N   UNL     1       7.114   0.743   2.200  0.00  0.00    -0.199 NA
ATOM      7  N   UNL     1       8.261  -0.529   3.768  0.00  0.00    -0.327 N 
ATOM      8  H   UNL     1       8.190  -1.240   3.056  0.00  0.00    +0.145 HD
ATOM      9  H   UNL     1       9.115  -0.468   4.302  0.00  0.00    +0.145 HD
ATOM     10  C   UNL     1       8.502   4.110   4.062  0.00  0.00    +0.029 A 
ATOM     11  C   UNL     1       8.057   5.400   3.745  0.00  0.00    +0.006 A 
ATOM     12  C   UNL     1       6.653   1.951   1.836  0.00  0.00    +0.133 A 
ATOM     13  C   UNL     1       6.953   5.555   2.926  0.00  0.00    +0.047 A 
ENDROOT
BRANCH  12  14
ATOM     14  N   UNL     1       6.073   1.985   0.565  0.00  0.00    -0.342 N 
ATOM     15  H   UNL     1       5.244   2.561   0.503  0.00  0.00    +0.144 HD
ATOM     16  H   UNL     1       5.966   1.036   0.218  0.00  0.00    +0.144 HD
ENDBRANCH  12  14
BRANCH   1  17
ATOM     17  O   UNL     1       5.146   4.553   1.707  0.00  0.00    -0.455 OA
BRANCH  17  21
ATOM     18  C   UNL     1       1.741   6.453   3.284  0.00  0.00    +0.120 A 
ATOM     19  C   UNL     1       2.753   6.067   4.166  0.00  0.00    +0.049 A 
ATOM     20  C   UNL     1       3.916   5.437   3.690  0.00  0.00    +0.050 A 
ATOM     21  C   UNL     1       4.092   5.222   2.316  0.00  0.00    +0.129 A 
ATOM     22  C   UNL     1       3.100   5.663   1.438  0.00  0.00    +0.050 A 
ATOM     23  C   UNL     1       1.937   6.282   1.915  0.00  0.00    +0.049 A 
BRANCH  18  25
ATOM     24  C   UNL     1      -0.548   6.994   3.028  0.00  0.00    +0.277 C 
ATOM     25  O   UNL     1       0.613   6.983   3.856  0.00  0.00    -0.495 OA
ENDBRANCH  18  25
ENDBRANCH  17  21
ENDBRANCH   1  17
TORSDOF 4
