REMARK  Name = 
REMARK  7 active torsions:
REMARK  status: ('A' for Active; 'I' for Inactive)
REMARK    1  A    between atoms: C_1  and  N_2
REMARK    2  A    between atoms: N_2  and  C_4
REMARK    3  A    between atoms: N_2  and  C_5
REMARK    4  A    between atoms: C_5  and  C_6
REMARK    5  A    between atoms: C_6  and  N_7
REMARK    6  A    between atoms: C_8  and  C_10
REMARK    7  A    between atoms: C_15  and  N_16
REMARK                            x       y       z     vdW  Elec       q    Type
REMARK                         _______ _______ _______ _____ _____    ______ ____
ROOT
ATOM      1  C   UNL     1       6.980  -0.059   4.514  0.00  0.00    +0.108 A 
ATOM      2  C   UNL     1       7.321   1.115   5.238  0.00  0.00    +0.228 A 
ATOM      3  C   UNL     1       7.767   1.035   6.573  0.00  0.00    +0.068 A 
ATOM      4  C   UNL     1       8.079   2.245   7.263  0.00  0.00    +0.052 A 
ATOM      5  C   UNL     1       7.855   3.501   6.625  0.00  0.00    +0.069 A 
ATOM      6  C   UNL     1       8.039   4.766   7.235  0.00  0.00    +0.016 A 
ATOM      7  C   UNL     1       7.823   5.962   6.540  0.00  0.00    +0.002 A 
ATOM      8  C   UNL     1       7.408   5.937   5.215  0.00  0.00    +0.022 A 
ATOM      9  C   UNL     1       7.208   4.711   4.591  0.00  0.00    +0.090 A 
ATOM     10 BR   UNL     1       6.609   4.701   2.789  0.00  0.00    -0.043 Br
ATOM     11  C   UNL     1       7.425   3.503   5.284  0.00  0.00    +0.230 A 
ATOM     12  C   UNL     1       7.875  -0.262   7.133  0.00  0.00    +0.016 A 
ATOM     13  C   UNL     1       7.573  -1.417   6.403  0.00  0.00    +0.002 A 
ATOM     14  N   UNL     1       7.205   2.332   4.669  0.00  0.00    -0.202 N 
ATOM     15  H   UNL     1       6.919   2.370   3.679  0.00  0.00    +0.454 HD
ATOM     16  C   UNL     1       7.124  -1.321   5.092  0.00  0.00    +0.019 A 
ENDROOT
BRANCH   1  19
ATOM     17  N   UNL     1       5.726  -0.902   2.553  0.00  0.00    -0.306 N 
ATOM     18  H   UNL     1       5.346  -1.625   3.160  0.00  0.00    +0.149 HD
ATOM     19  C   UNL     1       6.470   0.105   3.133  0.00  0.00    +0.251 C 
ATOM     20  O   UNL     1       6.682   1.179   2.572  0.00  0.00    -0.270 OA
BRANCH  17  21
ATOM     21  C   UNL     1       4.947  -0.599   1.349  0.00  0.00    +0.155 C 
BRANCH  21  22
ATOM     22  C   UNL     1       5.807  -0.458   0.078  0.00  0.00    +0.149 C 
BRANCH  22  24
ATOM     23  C   UNL     1       5.914  -2.935  -0.429  0.00  0.00    +0.190 C 
ATOM     24  N   UNL     1       6.689  -1.681  -0.126  0.00  0.00    +0.232 N 
ATOM     25  C   UNL     1       7.737  -1.429  -1.179  0.00  0.00    +0.190 C 
ATOM     26  H   UNL     1       7.186  -1.833   0.762  0.00  0.00    +0.203 HD
ENDBRANCH  22  24
ENDBRANCH  21  22
ENDBRANCH  17  21
ENDBRANCH   1  19
BRANCH   4  27
ATOM     27  N   UNL     1       8.379   2.204   8.638  0.00  0.00    -0.357 N 
ATOM     28  H   UNL     1       8.846   3.018   9.031  0.00  0.00    +0.142 HD
ATOM     29  H   UNL     1       8.815   1.360   8.995  0.00  0.00    +0.142 HD
ENDBRANCH   4  27
TORSDOF 5
