REMARK  Name = 
REMARK  15 active torsions:
REMARK  status: ('A' for Active; 'I' for Inactive)
REMARK    1  A    between atoms: C_1  and  C_2
REMARK    2  A    between atoms: C_7  and  C_8
REMARK    3  A    between atoms: C_8  and  N_9
REMARK    4  A    between atoms: C_10  and  C_12
REMARK    5  A    between atoms: C_17  and  C_18
REMARK    6  A    between atoms: C_17  and  C_19
REMARK    7  A    between atoms: C_20  and  C_22
REMARK    8  A    between atoms: C_22  and  O_24
REMARK    9  A    between atoms: C_22  and  C_25
REMARK   10  A    between atoms: C_25  and  C_27
REMARK   11  A    between atoms: C_25  and  N_34
REMARK   12  A    between atoms: C_27  and  C_28
REMARK   13  A    between atoms: C_35  and  C_37
REMARK   14  A    between atoms: C_41  and  O_42
REMARK   15  A    between atoms: C_43  and  C_44
REMARK                            x       y       z     vdW  Elec       q    Type
REMARK                         _______ _______ _______ _____ _____    ______ ____
ROOT
ATOM      1  C   UNL     1      -0.003  -5.800   1.204  0.00  0.00    +0.220 C 
ENDROOT
BRANCH   1   9
ATOM      2  C   UNL     1      -2.830  -3.071   1.279  0.00  0.00    +0.178 C 
ATOM      3  C   UNL     1      -4.104  -3.554   0.531  0.00  0.00    +0.040 C 
ATOM      4  C   UNL     1      -5.148  -2.464   0.265  0.00  0.00    +0.025 C 
ATOM      5  C   UNL     1      -4.730  -4.818   1.125  0.00  0.00    +0.025 C 
ATOM      6  S   UNL     1      -3.440  -4.015  -1.126  0.00  0.00    -0.133 S 
ATOM      7  C   UNL     1      -1.757  -4.270  -0.541  0.00  0.00    +0.178 C 
ATOM      8  N   UNL     1      -1.721  -3.996   0.895  0.00  0.00    -0.277 N 
ATOM      9  C   UNL     1      -1.065  -4.838   1.811  0.00  0.00    +0.247 C 
ATOM     10  O   UNL     1      -1.251  -4.756   3.024  0.00  0.00    -0.273 OA
BRANCH   2  13
ATOM     11  N   UNL     1      -1.899  -2.033   3.329  0.00  0.00    -0.310 N 
ATOM     12  H   UNL     1      -1.019  -2.434   3.032  0.00  0.00    +0.149 HD
ATOM     13  C   UNL     1      -3.038  -2.564   2.742  0.00  0.00    +0.235 C 
ATOM     14  O   UNL     1      -4.154  -2.437   3.245  0.00  0.00    -0.274 OA
BRANCH  11  15
ATOM     15  C   UNL     1      -1.916  -1.446   4.660  0.00  0.00    +0.139 C 
BRANCH  15  18
ATOM     16  C   UNL     1       0.572  -1.246   6.485  0.00  0.00    +0.044 C 
ATOM     17  C   UNL     1       0.102  -0.117   5.606  0.00  0.00    -0.046 A 
ATOM     18  C   UNL     1      -1.016  -0.225   4.748  0.00  0.00    -0.027 A 
ATOM     19  C   UNL     1      -1.363   0.892   3.961  0.00  0.00    +0.005 A 
ATOM     20  C   UNL     1      -0.628   2.079   4.009  0.00  0.00    +0.000 A 
ATOM     21  C   UNL     1       0.471   2.174   4.851  0.00  0.00    +0.000 A 
ATOM     22  C   UNL     1       0.831   1.086   5.640  0.00  0.00    +0.003 A 
ENDBRANCH  15  18
ENDBRANCH  11  15
ENDBRANCH   2  13
ENDBRANCH   1   9
BRANCH   1  23
ATOM     23  O   UNL     1       1.017  -4.996   0.572  0.00  0.00    -0.381 OA
ATOM     24  H   UNL     1       0.602  -4.202   0.201  0.00  0.00    +0.211 HD
ENDBRANCH   1  23
BRANCH   1  25
ATOM     25  C   UNL     1       0.733  -6.816   2.135  0.00  0.00    +0.115 C 
BRANCH  25  26
ATOM     26  N   UNL     1       1.659  -7.652   1.321  0.00  0.00    -0.305 N 
ATOM     27  H   UNL     1       2.613  -7.739   1.645  0.00  0.00    +0.149 HD
ATOM     28  C   UNL     1       1.216  -8.442   0.274  0.00  0.00    +0.245 C 
ATOM     29  O   UNL     1       0.038  -8.489  -0.064  0.00  0.00    -0.270 OA
BRANCH  28  30
ATOM     30  C   UNL     1       2.240  -9.253  -0.447  0.00  0.00    +0.043 A 
ATOM     31  C   UNL     1       1.922 -10.528  -0.970  0.00  0.00    +0.003 A 
ATOM     32  C   UNL     1       0.559 -11.143  -0.781  0.00  0.00    +0.048 C 
ATOM     33  C   UNL     1       2.921 -11.225  -1.666  0.00  0.00    +0.120 A 
ATOM     34  C   UNL     1       4.200 -10.695  -1.836  0.00  0.00    +0.046 A 
ATOM     35  C   UNL     1       4.498  -9.433  -1.330  0.00  0.00    +0.004 A 
ATOM     36  C   UNL     1       3.521  -8.708  -0.649  0.00  0.00    +0.013 A 
BRANCH  33  37
ATOM     37  O   UNL     1       2.631 -12.455  -2.189  0.00  0.00    -0.506 OA
ATOM     38  H   UNL     1       3.380 -12.759  -2.727  0.00  0.00    +0.292 HD
ENDBRANCH  33  37
ENDBRANCH  28  30
ENDBRANCH  25  26
BRANCH  25  39
ATOM     39  C   UNL     1      -0.199  -7.720   2.973  0.00  0.00    +0.060 C 
BRANCH  39  40
ATOM     40  C   UNL     1       0.498  -8.716   3.894  0.00  0.00    -0.046 A 
ATOM     41  C   UNL     1       0.283 -10.094   3.730  0.00  0.00    +0.004 A 
ATOM     42  C   UNL     1       0.791 -11.015   4.649  0.00  0.00    +0.000 A 
ATOM     43  C   UNL     1       1.534 -10.572   5.743  0.00  0.00    +0.000 A 
ATOM     44  C   UNL     1       1.795  -9.212   5.894  0.00  0.00    +0.000 A 
ATOM     45  C   UNL     1       1.282  -8.287   4.975  0.00  0.00    +0.004 A 
ENDBRANCH  39  40
ENDBRANCH  25  39
ENDBRANCH   1  25
TORSDOF 11
