REMARK  Name = 
REMARK  7 active torsions:
REMARK  status: ('A' for Active; 'I' for Inactive)
REMARK    1  A    between atoms: C_1  and  S_2
REMARK    2  A    between atoms: S_2  and  C_3
REMARK    3  A    between atoms: C_5  and  C_7
REMARK    4  A    between atoms: C_7  and  O_8
REMARK    5  A    between atoms: C_10  and  O_12
REMARK    6  A    between atoms: C_13  and  O_15
REMARK    7  A    between atoms: C_16  and  O_18
REMARK                            x       y       z     vdW  Elec       q    Type
REMARK                         _______ _______ _______ _____ _____    ______ ____
ROOT
ATOM      1  C   UNL     1       3.489   0.842  -1.446  0.00  0.00    +0.108 C 
ATOM      2  C   UNL     1       3.913   2.256  -1.010  0.00  0.00    +0.163 C 
ATOM      3  C   UNL     1       2.706   3.131  -0.663  0.00  0.00    +0.200 C 
ATOM      4  C   UNL     1       1.658   3.075  -1.789  0.00  0.00    +0.279 C 
ATOM      5  O   UNL     1       1.282   1.744  -2.109  0.00  0.00    -0.342 OA
ATOM      6  C   UNL     1       2.420   0.975  -2.564  0.00  0.00    +0.162 C 
ENDROOT
BRANCH   1   8
ATOM      7  C   UNL     1       4.337  -0.178   1.043  0.00  0.00    +0.085 C 
ATOM      8  S   UNL     1       2.866  -0.157  -0.013  0.00  0.00    -0.155 S 
ENDBRANCH   1   8
BRANCH   2   9
ATOM      9  O   UNL     1       4.648   2.874  -2.080  0.00  0.00    -0.388 OA
ATOM     10  H   UNL     1       4.760   3.810  -1.806  0.00  0.00    +0.210 HD
ENDBRANCH   2   9
BRANCH   3  11
ATOM     11  O   UNL     1       3.156   4.480  -0.452  0.00  0.00    -0.384 OA
ATOM     12  H   UNL     1       2.343   5.024  -0.413  0.00  0.00    +0.210 HD
ENDBRANCH   3  11
BRANCH   4  13
ATOM     13  O   UNL     1       0.496   3.776  -1.365  0.00  0.00    -0.365 OA
ATOM     14  H   UNL     1       0.053   3.165  -0.750  0.00  0.00    +0.213 HD
ENDBRANCH   4  13
BRANCH   6  15
ATOM     15  C   UNL     1       1.909  -0.366  -3.105  0.00  0.00    +0.188 C 
BRANCH  15  16
ATOM     16  O   UNL     1       1.005  -0.132  -4.189  0.00  0.00    -0.392 OA
ATOM     17  H   UNL     1       0.321   0.468  -3.832  0.00  0.00    +0.210 HD
ENDBRANCH  15  16
ENDBRANCH   6  15
TORSDOF 6
