REMARK  Name = 
REMARK  15 active torsions:
REMARK  status: ('A' for Active; 'I' for Inactive)
REMARK    1  A    between atoms: C_1  and  C_2
REMARK    2  A    between atoms: C_2  and  C_3
REMARK    3  A    between atoms: C_3  and  C_4
REMARK    4  A    between atoms: C_4  and  C_5
REMARK    5  A    between atoms: C_5  and  C_6
REMARK    6  A    between atoms: C_6  and  O_8
REMARK    7  A    between atoms: C_6  and  C_9
REMARK    8  A    between atoms: C_10  and  C_11
REMARK    9  A    between atoms: C_12  and  C_13
REMARK   10  A    between atoms: C_13  and  C_14
REMARK   11  A    between atoms: C_15  and  C_16
REMARK   12  A    between atoms: C_16  and  C_17
REMARK   13  A    between atoms: C_17  and  C_18
REMARK   14  A    between atoms: C_18  and  C_19
REMARK   15  A    between atoms: C_19  and  O_20
REMARK                            x       y       z     vdW  Elec       q    Type
REMARK                         _______ _______ _______ _____ _____    ______ ____
ROOT
ATOM      1  C   UNL     1       8.864  -3.096   5.303  0.00  0.00    -0.040 C 
ATOM      2  C   UNL     1       9.661  -2.480   6.417  0.00  0.00    +0.043 C 
ATOM      3  C   UNL     1      10.114  -3.664   7.259  0.00  0.00    +0.084 C 
ATOM      4  C   UNL     1       9.297  -4.789   6.701  0.00  0.00    +0.160 C 
ATOM      5  O   UNL     1       9.188  -5.890   7.219  0.00  0.00    -0.292 OA
ATOM      6  C   UNL     1       8.660  -4.415   5.425  0.00  0.00    +0.002 C 
ENDROOT
BRANCH   1   8
ATOM      7  C   UNL     1       9.268  -1.658   3.389  0.00  0.00    +0.004 C 
ATOM      8  C   UNL     1       8.408  -2.287   4.202  0.00  0.00    +0.002 C 
BRANCH   7   9
ATOM      9  C   UNL     1       8.936  -0.781   2.210  0.00  0.00    +0.137 C 
BRANCH   9  10
ATOM     10  O   UNL     1       7.683  -0.137   2.419  0.00  0.00    -0.388 OA
ATOM     11  H   UNL     1       6.998  -0.824   2.399  0.00  0.00    +0.210 HD
ENDBRANCH   9  10
BRANCH   9  12
ATOM     12  C   UNL     1       9.985   0.318   1.967  0.00  0.00    +0.035 C 
BRANCH  12  13
ATOM     13  C   UNL     1      11.358  -0.244   1.589  0.00  0.00    +0.003 C 
BRANCH  13  14
ATOM     14  C   UNL     1      12.388   0.855   1.336  0.00  0.00    -0.000 C 
BRANCH  14  16
ATOM     15  C   UNL     1      14.807   1.297   0.773  0.00  0.00    +0.004 C 
ATOM     16  C   UNL     1      13.751   0.236   1.026  0.00  0.00    -0.003 C 
ENDBRANCH  14  16
ENDBRANCH  13  14
ENDBRANCH  12  13
ENDBRANCH   9  12
ENDBRANCH   7   9
ENDBRANCH   1   8
BRANCH   6  17
ATOM     17  C   UNL     1       7.960  -5.399   4.557  0.00  0.00    +0.065 C 
BRANCH  17  18
ATOM     18  C   UNL     1       8.896  -6.021   3.555  0.00  0.00    -0.026 C 
ATOM     19  C   UNL     1       9.475  -7.223   3.714  0.00  0.00    -0.031 C 
BRANCH  19  20
ATOM     20  C   UNL     1      10.398  -7.852   2.710  0.00  0.00    +0.027 C 
BRANCH  20  21
ATOM     21  C   UNL     1       9.866  -9.208   2.242  0.00  0.00    +0.015 C 
BRANCH  21  22
ATOM     22  C   UNL     1      10.791  -9.838   1.201  0.00  0.00    +0.121 C 
BRANCH  22  23
ATOM     23  C   UNL     1      10.277 -11.180   0.732  0.00  0.00    +0.305 C 
ATOM     24  O   UNL     1       9.251 -11.719   1.110  0.00  0.00    -0.251 OA
BRANCH  23  25
ATOM     25  O   UNL     1      11.094 -11.748  -0.187  0.00  0.00    -0.481 OA
ATOM     26  H   UNL     1      11.882 -11.212  -0.399  0.00  0.00    +0.295 HD
ENDBRANCH  23  25
ENDBRANCH  22  23
ENDBRANCH  21  22
ENDBRANCH  20  21
ENDBRANCH  19  20
ENDBRANCH  17  18
ENDBRANCH   6  17
TORSDOF 14
