REMARK  Name = 
REMARK  9 active torsions:
REMARK  status: ('A' for Active; 'I' for Inactive)
REMARK    1  A    between atoms: C_1  and  C_2
REMARK    2  A    between atoms: C_2  and  C_3
REMARK    3  A    between atoms: C_2  and  N_4
REMARK    4  A    between atoms: C_2  and  C_5
REMARK    5  A    between atoms: C_8  and  C_11
REMARK    6  A    between atoms: N_14  and  C_15
REMARK    7  A    between atoms: C_18  and  C_19
REMARK    8  A    between atoms: C_19  and  C_20
REMARK    9  A    between atoms: C_20  and  N_21
REMARK                            x       y       z     vdW  Elec       q    Type
REMARK                         _______ _______ _______ _____ _____    ______ ____
ROOT
ATOM      1  C   UNL     1       2.581   5.700  -5.322  0.00  0.00    +0.094 A 
ATOM      2  C   UNL     1       3.088   5.002  -4.238  0.00  0.00    +0.085 A 
ATOM      3 CL   UNL     1       2.999   5.470  -2.588  0.00  0.00    -0.080 Cl
ATOM      4  C   UNL     1       3.654   3.773  -4.531  0.00  0.00    +0.136 A 
ATOM      5  N   UNL     1       3.681   3.206  -5.755  0.00  0.00    -0.221 NA
ATOM      6  C   UNL     1       3.192   3.944  -6.754  0.00  0.00    +0.220 A 
ATOM      7  N   UNL     1       3.211   3.406  -8.035  0.00  0.00    -0.284 N 
ATOM      8  H   UNL     1       2.969   2.426  -8.032  0.00  0.00    +0.155 HD
ATOM      9  N   UNL     1       2.663   5.166  -6.567  0.00  0.00    -0.213 NA
ENDROOT
BRANCH   1  13
ATOM     10  C   UNL     1       0.347   9.458  -5.245  0.00  0.00    -0.028 A 
ATOM     11  C   UNL     1       1.380   9.206  -4.328  0.00  0.00    +0.006 A 
ATOM     12  C   UNL     1       2.139   8.026  -4.371  0.00  0.00    +0.010 A 
ATOM     13  C   UNL     1       1.873   7.011  -5.299  0.00  0.00    +0.002 A 
ATOM     14  C   UNL     1       0.875   7.297  -6.253  0.00  0.00    +0.010 A 
ATOM     15  C   UNL     1       0.132   8.489  -6.233  0.00  0.00    +0.006 A 
BRANCH  10  17
ATOM     16  C   UNL     1      -1.697  10.290  -4.111  0.00  0.00    +0.032 C 
ATOM     17  C   UNL     1      -0.566  10.678  -5.082  0.00  0.00    +0.036 C 
ATOM     18  C   UNL     1      -1.183  11.182  -6.402  0.00  0.00    +0.032 C 
BRANCH  17  19
ATOM     19  N   UNL     1       0.157  11.818  -4.492  0.00  0.00    -0.321 NA
ATOM     20  H   UNL     1       0.870  12.130  -5.157  0.00  0.00    +0.119 HD
ATOM     21  H   UNL     1      -0.478  12.604  -4.370  0.00  0.00    +0.119 HD
ENDBRANCH  17  19
ENDBRANCH  10  17
ENDBRANCH   1  13
BRANCH   7  22
ATOM     22  C   UNL     1       3.093   4.128  -9.230  0.00  0.00    +0.034 A 
ATOM     23  C   UNL     1       2.315   3.661 -10.291  0.00  0.00    +0.023 A 
ATOM     24  C   UNL     1       2.061   4.482 -11.398  0.00  0.00    +0.005 A 
ATOM     25  C   UNL     1       2.585   5.783 -11.455  0.00  0.00    -0.046 A 
ATOM     26  C   UNL     1       3.437   6.216 -10.439  0.00  0.00    +0.005 A 
ATOM     27  C   UNL     1       3.683   5.392  -9.347  0.00  0.00    +0.023 A 
BRANCH  25  28
ATOM     28  C   UNL     1       2.205   6.740 -12.555  0.00  0.00    +0.050 C 
BRANCH  28  29
ATOM     29  C   UNL     1       3.235   6.775 -13.692  0.00  0.00    +0.089 C 
BRANCH  29  30
ATOM     30  N   UNL     1       2.935   7.782 -14.731  0.00  0.00    -0.298 NA
ATOM     31  C   UNL     1       1.624   7.590 -15.390  0.00  0.00    +0.112 C 
ATOM     32  C   UNL     1       1.564   6.330 -16.265  0.00  0.00    +0.175 C 
ATOM     33  O   UNL     1       2.574   6.364 -17.282  0.00  0.00    -0.377 OA
ATOM     34  C   UNL     1       3.881   6.520 -16.713  0.00  0.00    +0.175 C 
ATOM     35  C   UNL     1       3.967   7.756 -15.796  0.00  0.00    +0.112 C 
ENDBRANCH  29  30
ENDBRANCH  28  29
ENDBRANCH  25  28
ENDBRANCH   7  22
TORSDOF 7
