REMARK  Name = 
REMARK  6 active torsions:
REMARK  status: ('A' for Active; 'I' for Inactive)
REMARK    1  A    between atoms: O_1  and  C_2
REMARK    2  A    between atoms: C_2  and  C_4
REMARK    3  A    between atoms: C_2  and  C_9
REMARK    4  A    between atoms: C_4  and  S_5
REMARK    5  A    between atoms: S_5  and  O_6
REMARK    6  A    between atoms: C_9  and  O_10
REMARK                            x       y       z     vdW  Elec       q    Type
REMARK                         _______ _______ _______ _____ _____    ______ ____
ROOT
ATOM      1  C   UNL     1       2.276   0.126  -0.054  0.00  0.00    +0.246 C 
ENDROOT
BRANCH   1   2
ATOM      2  O   UNL     1       0.859   0.296   0.162  0.00  0.00    -0.379 OA
ATOM      3  H   UNL     1       0.389   0.084  -0.674  0.00  0.00    +0.211 HD
ENDBRANCH   1   2
BRANCH   1   4
ATOM      4  C   UNL     1       2.952   0.559   1.242  0.00  0.00    +0.335 C 
ATOM      5  O   UNL     1       4.159   0.613   1.414  0.00  0.00    -0.248 OA
BRANCH   4   6
ATOM      6  O   UNL     1       2.046   0.915   2.188  0.00  0.00    -0.479 OA
ATOM      7  H   UNL     1       1.147   0.797   1.789  0.00  0.00    +0.295 HD
ENDBRANCH   4   6
ENDBRANCH   1   4
BRANCH   1   8
ATOM      8  C   UNL     1       2.804   1.009  -1.168  0.00  0.00    +0.240 C 
BRANCH   8   9
ATOM      9  S   UNL     1       2.162   0.447  -2.719  0.00  0.00    +0.083 S 
ATOM     10  O   UNL     1       0.725   0.592  -2.696  0.00  0.00    -0.147 OA
ATOM     11  O   UNL     1       2.803  -0.794  -3.084  0.00  0.00    -0.147 OA
BRANCH   9  12
ATOM     12  O   UNL     1       2.791   1.582  -3.672  0.00  0.00    -0.254 OA
ATOM     13  H   UNL     1       3.323   1.143  -4.370  0.00  0.00    +0.244 HD
ENDBRANCH   9  12
ENDBRANCH   8   9
ENDBRANCH   1   8
TORSDOF 6
