REMARK  Name = 
REMARK  9 active torsions:
REMARK  status: ('A' for Active; 'I' for Inactive)
REMARK    1  A    between atoms: C_2  and  C_4
REMARK    2  A    between atoms: C_5  and  C_6
REMARK    3  A    between atoms: C_6  and  C_7
REMARK    4  A    between atoms: C_7  and  S_8
REMARK    5  A    between atoms: CA_11  and  N_12
REMARK    6  A    between atoms: CA_11  and  C_24
REMARK    7  A    between atoms: N_12  and  C_13
REMARK    8  A    between atoms: C_14  and  C_15
REMARK    9  A    between atoms: C_24  and  O_25
REMARK                            x       y       z     vdW  Elec       q    Type
REMARK                         _______ _______ _______ _____ _____    ______ ____
ROOT
ATOM      1  C   UNL     1       5.041   0.582   2.513  0.00  0.00    +0.004 C 
ATOM      2  CA  UNL     1       6.394   0.532   2.612  0.00  0.00    +0.122 C 
ENDROOT
BRANCH   1   4
ATOM      3  C   UNL     1       3.487   0.997   0.636  0.00  0.00    +0.067 C 
ATOM      4  C   UNL     1       4.320   0.192   1.307  0.00  0.00    +0.012 C 
BRANCH   3   8
ATOM      5  N   UNL     1       1.797   1.375  -0.981  0.00  0.00    -0.326 N 
ATOM      6  H   UNL     1       1.639   2.265  -0.527  0.00  0.00    +0.145 HD
ATOM      7  H   UNL     1       1.157   1.061  -1.695  0.00  0.00    +0.145 HD
ATOM      8  C   UNL     1       2.694   0.475  -0.495  0.00  0.00    +0.234 C 
ATOM      9  O   UNL     1       2.775  -0.662  -0.940  0.00  0.00    -0.271 OA
ENDBRANCH   3   8
ENDBRANCH   1   4
BRANCH   2  10
ATOM     10  C   UNL     1       7.260   0.245   1.389  0.00  0.00    +0.351 C 
ATOM     11  OXT UNL     1       6.932   0.311   0.216  0.00  0.00    -0.244 OA
BRANCH  10  12
ATOM     12  O   UNL     1       8.500  -0.170   1.760  0.00  0.00    -0.476 OA
ATOM     13  H   UNL     1       8.570  -0.094   2.732  0.00  0.00    +0.295 HD
ENDBRANCH  10  12
ENDBRANCH   2  10
BRANCH   2  14
ATOM     14  N   UNL     1       7.101   0.711   3.821  0.00  0.00    -0.294 N 
ATOM     15  H   UNL     1       6.684   1.572   4.241  0.00  0.00    +0.154 HD
BRANCH  14  16
ATOM     16  C   UNL     1       7.420  -0.256   4.765  0.00  0.00    +0.118 A 
ATOM     17  N   UNL     1       7.066  -1.617   4.694  0.00  0.00    -0.304 N 
ATOM     18  C   UNL     1       7.487  -2.233   5.875  0.00  0.00    +0.048 A 
ATOM     19  C   UNL     1       7.143  -3.601   6.087  0.00  0.00    +0.026 A 
ATOM     20  C   UNL     1       6.451  -4.271   5.148  0.00  0.00    +0.003 A 
ATOM     21  C   UNL     1       6.083  -3.641   3.900  0.00  0.00    +0.018 A 
ATOM     22  C   UNL     1       8.190  -1.321   6.623  0.00  0.00    +0.040 A 
ATOM     23  C   UNL     1       6.398  -2.353   3.704  0.00  0.00    +0.093 A 
ATOM     24  C   UNL     1       8.140  -0.073   5.946  0.00  0.00    +0.055 A 
BRANCH  24  25
ATOM     25  C   UNL     1       8.747   1.164   6.414  0.00  0.00    +0.262 C 
ATOM     26  O   UNL     1       9.436   1.233   7.427  0.00  0.00    -0.296 OA
ENDBRANCH  24  25
ENDBRANCH  14  16
ENDBRANCH   2  14
BRANCH   1  27
ATOM     27  C   UNL     1       4.148   0.736   3.739  0.00  0.00    +0.229 C 
BRANCH  27  28
ATOM     28  S   UNL     1       3.835   2.502   4.171  0.00  0.00    +0.091 S 
ATOM     29  O   UNL     1       2.978   2.989   3.027  0.00  0.00    -0.152 OA
ATOM     30  O   UNL     1       5.241   3.051   4.240  0.00  0.00    -0.152 OA
ENDBRANCH  27  28
ENDBRANCH   1  27
TORSDOF 9
