REMARK  Name = 
REMARK  17 active torsions:
REMARK  status: ('A' for Active; 'I' for Inactive)
REMARK    1  A    between atoms: N_2  and  C_4
REMARK    2  A    between atoms: C_7  and  O_8
REMARK    3  A    between atoms: O_8  and  S_9
REMARK    4  A    between atoms: S_9  and  C_12
REMARK    5  A    between atoms: C_12  and  C_13
REMARK    6  A    between atoms: C_13  and  C_14
REMARK    7  A    between atoms: C_14  and  C_16
REMARK    8  A    between atoms: C_14  and  N_24
REMARK    9  A    between atoms: C_16  and  C_17
REMARK   10  A    between atoms: C_17  and  C_18
REMARK   11  A    between atoms: C_25  and  C_27
REMARK   12  A    between atoms: C_27  and  C_29
REMARK   13  A    between atoms: C_27  and  N_36
REMARK   14  A    between atoms: C_29  and  C_30
REMARK   15  A    between atoms: C_37  and  O_39
REMARK   16  A    between atoms: O_39  and  C_40
REMARK   17  A    between atoms: C_40  and  C_41
REMARK                            x       y       z     vdW  Elec       q    Type
REMARK                         _______ _______ _______ _____ _____    ______ ____
ROOT
ATOM      1  C   UNL     1       7.014  -7.605   6.109  0.00  0.00    +0.075 C 
ENDROOT
BRANCH   1   2
ATOM      2  N   UNL     1       6.721  -9.036   6.215  0.00  0.00    -0.311 N 
ATOM      3  H   UNL     1       5.753  -9.307   6.117  0.00  0.00    +0.149 HD
ATOM      4  C   UNL     1       7.672  -9.991   6.510  0.00  0.00    +0.234 C 
ATOM      5  O   UNL     1       8.857  -9.692   6.681  0.00  0.00    -0.274 OA
BRANCH   4   6
ATOM      6  C   UNL     1       7.194 -11.466   6.633  0.00  0.00    +0.166 C 
BRANCH   6   7
ATOM      7  N   UNL     1       8.068 -12.256   5.788  0.00  0.00    -0.269 N 
ATOM      8  H   UNL     1       8.666 -12.972   6.177  0.00  0.00    +0.153 HD
ATOM      9  C   UNL     1       8.050 -12.139   4.433  0.00  0.00    +0.401 C 
ATOM     10  O   UNL     1       7.353 -11.349   3.813  0.00  0.00    -0.226 OA
BRANCH   9  11
ATOM     11  O   UNL     1       8.882 -13.056   3.895  0.00  0.00    -0.446 OA
BRANCH  11  12
ATOM     12  C   UNL     1       8.680 -13.266   2.495  0.00  0.00    +0.269 C 
BRANCH  12  13
ATOM     13  C   UNL     1       7.613 -14.319   2.331  0.00  0.00    -0.010 A 
ATOM     14  C   UNL     1       7.798 -15.594   2.886  0.00  0.00    +0.007 A 
ATOM     15  C   UNL     1       6.796 -16.558   2.796  0.00  0.00    +0.000 A 
ATOM     16  C   UNL     1       5.600 -16.259   2.147  0.00  0.00    +0.000 A 
ATOM     17  C   UNL     1       5.405 -14.995   1.591  0.00  0.00    +0.000 A 
ATOM     18  C   UNL     1       6.405 -14.026   1.685  0.00  0.00    +0.007 A 
ENDBRANCH  12  13
ENDBRANCH  11  12
ENDBRANCH   9  11
ENDBRANCH   6   7
BRANCH   6  19
ATOM     19  C   UNL     1       5.694 -11.693   6.362  0.00  0.00    +0.067 C 
BRANCH  19  20
ATOM     20  C   UNL     1       5.148 -13.103   6.418  0.00  0.00    -0.045 A 
ATOM     21  C   UNL     1       4.068 -13.429   5.580  0.00  0.00    +0.004 A 
ATOM     22  C   UNL     1       3.454 -14.679   5.652  0.00  0.00    +0.000 A 
ATOM     23  C   UNL     1       3.914 -15.624   6.561  0.00  0.00    +0.000 A 
ATOM     24  C   UNL     1       4.990 -15.320   7.394  0.00  0.00    +0.000 A 
ATOM     25  C   UNL     1       5.600 -14.063   7.331  0.00  0.00    +0.004 A 
ENDBRANCH  19  20
ENDBRANCH   6  19
ENDBRANCH   4   6
ENDBRANCH   1   2
BRANCH   1  26
ATOM     26  C   UNL     1       6.058  -7.010   5.053  0.00  0.00    +0.048 C 
BRANCH  26  27
ATOM     27  C   UNL     1       6.201  -5.514   4.752  0.00  0.00    +0.212 C 
BRANCH  27  28
ATOM     28  S   UNL     1       5.027  -5.049   3.463  0.00  0.00    +0.121 S 
ATOM     29  O   UNL     1       5.447  -5.684   2.230  0.00  0.00    -0.137 OA
ATOM     30  O   UNL     1       3.687  -5.224   3.990  0.00  0.00    -0.137 OA
BRANCH  28  31
ATOM     31  O   UNL     1       5.351  -3.448   3.381  0.00  0.00    -0.346 OA
BRANCH  31  35
ATOM     32  C   UNL     1       3.238  -0.748   0.985  0.00  0.00    +0.273 A 
ATOM     33  C   UNL     1       3.261  -2.096   0.613  0.00  0.00    +0.088 A 
ATOM     34  C   UNL     1       3.957  -3.023   1.401  0.00  0.00    +0.055 A 
ATOM     35  C   UNL     1       4.625  -2.611   2.559  0.00  0.00    +0.157 A 
ATOM     36  C   UNL     1       4.606  -1.256   2.917  0.00  0.00    +0.055 A 
ATOM     37  C   UNL     1       3.910  -0.323   2.137  0.00  0.00    +0.088 A 
BRANCH  32  39
ATOM     38  O   UNL     1       2.552   1.415   0.495  0.00  0.00    -0.576 OA
ATOM     39  N   UNL     1       2.512   0.223   0.155  0.00  0.00    +0.080 N 
ATOM     40  O   UNL     1       1.906  -0.204  -0.838  0.00  0.00    +0.041 OA
ENDBRANCH  32  39
ENDBRANCH  31  35
ENDBRANCH  28  31
ENDBRANCH  27  28
ENDBRANCH  26  27
ENDBRANCH   1  26
BRANCH   1  41
ATOM     41  C   UNL     1       6.863  -6.944   7.488  0.00  0.00    +0.027 C 
BRANCH  41  42
ATOM     42  C   UNL     1       7.796  -7.538   8.555  0.00  0.00    +0.037 C 
BRANCH  42  43
ATOM     43  C   UNL     1       7.607  -6.850   9.880  0.00  0.00    -0.047 A 
ATOM     44  C   UNL     1       8.301  -5.667  10.160  0.00  0.00    +0.003 A 
ATOM     45  C   UNL     1       8.079  -4.993  11.357  0.00  0.00    +0.000 A 
ATOM     46  C   UNL     1       7.170  -5.500  12.286  0.00  0.00    +0.000 A 
ATOM     47  C   UNL     1       6.492  -6.689  12.025  0.00  0.00    +0.000 A 
ATOM     48  C   UNL     1       6.709  -7.363  10.825  0.00  0.00    +0.003 A 
ENDBRANCH  42  43
ENDBRANCH  41  42
ENDBRANCH   1  41
TORSDOF 17
