REMARK  Name = 
REMARK  9 active torsions:
REMARK  status: ('A' for Active; 'I' for Inactive)
REMARK    1  A    between atoms: C_1  and  C_2
REMARK    2  A    between atoms: C_2  and  C_3
REMARK    3  A    between atoms: C_3  and  C_4
REMARK    4  A    between atoms: C_4  and  S_6
REMARK    5  A    between atoms: S_6  and  C_7
REMARK    6  A    between atoms: C_7  and  C_8
REMARK    7  A    between atoms: C_8  and  N_10
REMARK    8  A    between atoms: C_8  and  C_11
REMARK    9  A    between atoms: C_11  and  O_12
REMARK                            x       y       z     vdW  Elec       q    Type
REMARK                         _______ _______ _______ _____ _____    ______ ____
ROOT
ATOM      1  C   UNK     1       7.909   2.346   3.094  0.00  0.00    +0.171 C 
ENDROOT
BRANCH   1   2
ATOM      2  N   UNK     1       7.702   1.844   4.490  0.00  0.00    -0.318 NA
ATOM      3  H   UNK     1       8.089   2.543   5.133  0.00  0.00    +0.119 HD
ATOM      4  H   UNK     1       6.691   1.871   4.668  0.00  0.00    +0.119 HD
ENDBRANCH   1   2
BRANCH   1   5
ATOM      5  C   UNK     1       9.385   2.161   2.733  0.00  0.00    +0.323 C 
ATOM      6  O   UNK     1       9.970   2.766   1.851  0.00  0.00    -0.249 OA
BRANCH   5   7
ATOM      7  O   UNK     1       9.971   1.214   3.511  0.00  0.00    -0.480 OA
ATOM      8  H   UNK     1       9.281   0.913   4.154  0.00  0.00    +0.295 HD
ENDBRANCH   5   7
ENDBRANCH   1   5
BRANCH   1   9
ATOM      9  C   UNK     1       7.062   1.579   2.069  0.00  0.00    +0.107 C 
BRANCH   9  10
ATOM     10  S   UNK     1       5.286   1.906   2.341  0.00  0.00    -0.086 S 
BRANCH  10  11
ATOM     11  C   UNK     1       4.607   0.898   1.060  0.00  0.00    +0.189 C 
ATOM     12  O   UNK     1       5.208  -0.073   0.621  0.00  0.00    -0.285 OA
BRANCH  11  13
ATOM     13  C   UNK     1       3.269   1.387   0.545  0.00  0.00    +0.086 C 
BRANCH  13  15
ATOM     14  C   UNK     1       1.065   0.773  -0.496  0.00  0.00    +0.004 C 
ATOM     15  C   UNK     1       2.393   0.248   0.029  0.00  0.00    +0.005 C 
ENDBRANCH  13  15
ENDBRANCH  11  13
ENDBRANCH  10  11
ENDBRANCH   9  10
ENDBRANCH   1   9
TORSDOF 8
