REMARK  Name = 
REMARK  23 active torsions:
REMARK  status: ('A' for Active; 'I' for Inactive)
REMARK    1  A    between atoms: C_1  and  C_2
REMARK    2  A    between atoms: C_2  and  C_3
REMARK    3  A    between atoms: C_3  and  C_4
REMARK    4  A    between atoms: C_4  and  C_5
REMARK    5  A    between atoms: C_5  and  O_7
REMARK    6  A    between atoms: O_7  and  C_8
REMARK    7  A    between atoms: C_8  and  C_9
REMARK    8  A    between atoms: C_9  and  C_11
REMARK    9  A    between atoms: C_9  and  O_23
REMARK   10  A    between atoms: C_11  and  O_12
REMARK   11  A    between atoms: O_12  and  P_13
REMARK   12  A    between atoms: P_13  and  O_16
REMARK   13  A    between atoms: O_16  and  C_17
REMARK   14  A    between atoms: C_17  and  C_18
REMARK   15  A    between atoms: C_18  and  N_19
REMARK   16  A    between atoms: N_19  and  C_20
REMARK   17  A    between atoms: N_19  and  C_21
REMARK   18  A    between atoms: N_19  and  C_22
REMARK   19  A    between atoms: O_23  and  C_24
REMARK   20  A    between atoms: C_24  and  C_26
REMARK   21  A    between atoms: C_26  and  C_27
REMARK   22  A    between atoms: C_27  and  C_28
REMARK   23  A    between atoms: C_28  and  C_29
REMARK                            x       y       z     vdW  Elec       q    Type
REMARK                         _______ _______ _______ _____ _____    ______ ____
ROOT
ATOM      1  C   UNL     1       8.356   4.261  -0.935  0.00  0.00    +0.240 C 
ENDROOT
BRANCH   1   2
ATOM      2  C   UNL     1       8.825   3.391  -2.140  0.00  0.00    +0.213 C 
BRANCH   2   3
ATOM      3  O   UNL     1       7.990   2.271  -2.413  0.00  0.00    -0.346 OA
BRANCH   3   4
ATOM      4  P   UNL     1       8.546   0.782  -2.744  0.00  0.00    +0.040 P 
ATOM      5  S   UNL     1       7.237  -0.570  -2.233  0.00  0.00    -0.034 S 
ATOM      6  S   UNL     1      10.187   0.259  -1.851  0.00  0.00    -0.699 SA
BRANCH   4   7
ATOM      7  O   UNL     1       8.835   0.794  -4.355  0.00  0.00    -0.345 OA
BRANCH   7   8
ATOM      8  C   UNL     1       7.846   0.532  -5.340  0.00  0.00    +0.216 C 
BRANCH   8   9
ATOM      9  C   UNL     1       8.299  -0.489  -6.430  0.00  0.00    +0.161 C 
BRANCH   9  10
ATOM     10  N   UNL     1       8.152  -2.008  -6.129  0.00  0.00    +0.239 N 
ATOM     11  C   UNL     1       8.473  -2.817  -7.391  0.00  0.00    +0.192 C 
ATOM     12  C   UNL     1       6.733  -2.367  -5.709  0.00  0.00    +0.192 C 
ATOM     13  C   UNL     1       9.137  -2.434  -5.049  0.00  0.00    +0.192 C 
ENDBRANCH   9  10
ENDBRANCH   8   9
ENDBRANCH   7   8
ENDBRANCH   4   7
ENDBRANCH   3   4
ENDBRANCH   2   3
ENDBRANCH   1   2
BRANCH   1  14
ATOM     14  O   UNL     1       8.944   5.591  -1.057  0.00  0.00    -0.456 OA
BRANCH  14  15
ATOM     15  C   UNL     1       8.233   6.495  -1.780  0.00  0.00    +0.308 C 
ATOM     16  O   UNL     1       7.181   6.274  -2.356  0.00  0.00    -0.251 OA
BRANCH  15  17
ATOM     17  C   UNL     1       8.946   7.830  -1.828  0.00  0.00    +0.120 C 
BRANCH  17  18
ATOM     18  C   UNL     1       8.054   8.988  -1.379  0.00  0.00    +0.011 C 
BRANCH  18  19
ATOM     19  C   UNL     1       7.732   8.941   0.116  0.00  0.00    -0.003 C 
ATOM     20  C   UNL     1       6.862  10.115   0.541  0.00  0.00    +0.004 C 
ENDBRANCH  18  19
ENDBRANCH  17  18
ENDBRANCH  15  17
ENDBRANCH  14  15
ENDBRANCH   1  14
BRANCH   1  21
ATOM     21  C   UNL     1       8.799   3.733   0.441  0.00  0.00    +0.279 C 
BRANCH  21  22
ATOM     22  O   UNL     1       8.088   2.555   0.831  0.00  0.00    -0.461 OA
BRANCH  22  23
ATOM     23  C   UNL     1       6.876   2.770   1.398  0.00  0.00    +0.307 C 
ATOM     24  O   UNL     1       6.403   3.868   1.668  0.00  0.00    -0.251 OA
BRANCH  23  25
ATOM     25  C   UNL     1       6.197   1.450   1.691  0.00  0.00    +0.120 C 
BRANCH  25  26
ATOM     26  C   UNL     1       4.693   1.565   1.470  0.00  0.00    +0.011 C 
BRANCH  26  28
ATOM     27  C   UNL     1       2.488   0.361   1.443  0.00  0.00    +0.004 C 
ATOM     28  C   UNL     1       3.984   0.230   1.680  0.00  0.00    -0.003 C 
ENDBRANCH  26  28
ENDBRANCH  25  26
ENDBRANCH  23  25
ENDBRANCH  22  23
ENDBRANCH  21  22
ENDBRANCH   1  21
TORSDOF 18
