REMARK  Name = 
REMARK  3 active torsions:
REMARK  status: ('A' for Active; 'I' for Inactive)
REMARK    1  A    between atoms: N_1  and  C_2
REMARK    2  A    between atoms: C_2  and  C_5
REMARK    3  A    between atoms: C_5  and  O_6
REMARK                            x       y       z     vdW  Elec       q    Type
REMARK                         _______ _______ _______ _____ _____    ______ ____
ROOT
ATOM      1  C   UNL     1       2.212   0.000  -0.086  0.00  0.00    +0.115 C 
ATOM      2  C   UNL     1       3.109   0.717  -1.065  0.00  0.00    +0.036 C 
ATOM      3  C   UNL     1       3.040  -0.784  -1.077  0.00  0.00    +0.036 C 
ENDROOT
BRANCH   1   4
ATOM      4  N   UNL     1       0.733   0.069  -0.298  0.00  0.00    -0.316 NA
ATOM      5  H   UNL     1       0.434   1.042  -0.181  0.00  0.00    +0.119 HD
ATOM      6  H   UNL     1       0.517  -0.146  -1.275  0.00  0.00    +0.119 HD
ENDBRANCH   1   4
BRANCH   1   7
ATOM      7  C   UNL     1       2.584  -0.077   1.379  0.00  0.00    +0.325 C 
ATOM      8  O   UNL     1       3.700   0.163   1.809  0.00  0.00    -0.249 OA
BRANCH   7   9
ATOM      9  O   UNL     1       1.530  -0.460   2.140  0.00  0.00    -0.479 OA
ATOM     10  H   UNL     1       0.777  -0.570   1.514  0.00  0.00    +0.295 HD
ENDBRANCH   7   9
ENDBRANCH   1   7
TORSDOF 3
