REMARK  Name = 
REMARK  8 active torsions:
REMARK  status: ('A' for Active; 'I' for Inactive)
REMARK    1  A    between atoms: O_1  and  C_2
REMARK    2  A    between atoms: C_5  and  O_7
REMARK    3  A    between atoms: C_8  and  O_10
REMARK    4  A    between atoms: C_11  and  C_13
REMARK    5  A    between atoms: C_13  and  O_14
REMARK    6  A    between atoms: O_14  and  P_15
REMARK    7  A    between atoms: P_15  and  O_16
REMARK    8  A    between atoms: P_15  and  O_17
REMARK                            x       y       z     vdW  Elec       q    Type
REMARK                         _______ _______ _______ _____ _____    ______ ____
ROOT
ATOM      1  C   UNL     1       2.746  -0.182   0.158  0.00  0.00    +0.250 C 
ATOM      2  O   UNL     1       2.997   0.825  -0.804  0.00  0.00    -0.343 OA
ATOM      3  C   UNL     1       2.616   0.514  -2.158  0.00  0.00    +0.178 C 
ATOM      4  C   UNL     1       3.158  -0.851  -2.631  0.00  0.00    +0.174 C 
ATOM      5  C   UNL     1       2.975  -1.959  -1.587  0.00  0.00    +0.150 C 
ATOM      6  C   UNL     1       3.404  -1.500  -0.195  0.00  0.00    +0.095 C 
ENDROOT
BRANCH   1   7
ATOM      7  O   UNL     1       1.358  -0.418   0.345  0.00  0.00    -0.367 OA
ATOM      8  H   UNL     1       1.198  -0.358   1.303  0.00  0.00    +0.212 HD
ENDBRANCH   1   7
BRANCH   4   9
ATOM      9  O   UNL     1       4.565  -0.707  -2.897  0.00  0.00    -0.387 OA
ATOM     10  H   UNL     1       4.870  -1.534  -3.311  0.00  0.00    +0.210 HD
ENDBRANCH   4   9
BRANCH   5  11
ATOM     11  O   UNL     1       1.629  -2.434  -1.588  0.00  0.00    -0.389 OA
ATOM     12  H   UNL     1       1.114  -1.885  -0.961  0.00  0.00    +0.210 HD
ENDBRANCH   5  11
BRANCH   3  13
ATOM     13  C   UNL     1       1.107   0.700  -2.371  0.00  0.00    +0.206 C 
BRANCH  13  14
ATOM     14  O   UNL     1       0.754   2.004  -1.931  0.00  0.00    -0.284 OA
BRANCH  14  15
ATOM     15  P   UNL     1      -0.660   2.584  -2.372  0.00  0.00    +0.472 P 
ATOM     16  O   UNL     1      -1.863   1.823  -1.964  0.00  0.00    -0.228 OA
BRANCH  15  17
ATOM     17  O   UNL     1      -0.466   2.839  -3.939  0.00  0.00    -0.303 OA
ATOM     18  H   UNL     1       0.283   3.441  -4.087  0.00  0.00    +0.222 HD
ENDBRANCH  15  17
BRANCH  15  19
ATOM     19  O   UNL     1      -0.644   4.085  -1.819  0.00  0.00    -0.303 OA
ATOM     20  H   UNL     1      -0.976   4.104  -0.901  0.00  0.00    +0.222 HD
ENDBRANCH  15  19
ENDBRANCH  14  15
ENDBRANCH  13  14
ENDBRANCH   3  13
TORSDOF 8
