REMARK  Name = 
REMARK  22 active torsions:
REMARK  status: ('A' for Active; 'I' for Inactive)
REMARK    1  A    between atoms: C_1  and  C_2
REMARK    2  A    between atoms: N_6  and  C_7
REMARK    3  A    between atoms: C_7  and  C_8
REMARK    4  A    between atoms: C_8  and  C_9
REMARK    5  A    between atoms: C_9  and  C_10
REMARK    6  A    between atoms: C_10  and  C_11
REMARK    7  A    between atoms: C_14  and  C_15
REMARK    8  A    between atoms: C_15  and  C_16
REMARK    9  A    between atoms: N_18  and  CA_19
REMARK   10  A    between atoms: CA_19  and  C_21
REMARK   11  A    between atoms: CA_19  and  C_23
REMARK   12  A    between atoms: C_21  and  O_22
REMARK   13  A    between atoms: N_25  and  C_26
REMARK   14  A    between atoms: C_26  and  C_28
REMARK   15  A    between atoms: C_26  and  C_33
REMARK   16  A    between atoms: C_28  and  C_29
REMARK   17  A    between atoms: C_29  and  C_30
REMARK   18  A    between atoms: C_30  and  C_31
REMARK   19  A    between atoms: C_31  and  N_32
REMARK   20  A    between atoms: N_35  and  C_36
REMARK   21  A    between atoms: C_36  and  C_37
REMARK   22  A    between atoms: C_37  and  C_38
REMARK                            x       y       z     vdW  Elec       q    Type
REMARK                         _______ _______ _______ _____ _____    ______ ____
ROOT
ATOM      1  CA  UNL     1      -6.263 -11.994  -4.224  0.00  0.00    +0.184 C 
ENDROOT
BRANCH   1   2
ATOM      2  C   UNL     1      -6.584 -13.441  -4.637  0.00  0.00    +0.236 C 
ATOM      3  N   UNL     1      -7.168 -14.222  -3.666  0.00  0.00    -0.302 N 
ATOM      4  H   UNL     1      -7.512 -13.762  -2.831  0.00  0.00    +0.150 HD
ATOM      5  O   UNL     1      -6.298 -13.877  -5.754  0.00  0.00    -0.274 OA
BRANCH   3   6
ATOM      6  C   UNL     1      -7.636 -15.596  -3.917  0.00  0.00    +0.159 C 
BRANCH   6   7
ATOM      7  C   UNL     1      -6.449 -16.598  -3.896  0.00  0.00    +0.233 C 
ATOM      8  N   UNL     1      -5.437 -16.307  -4.776  0.00  0.00    -0.314 N 
ATOM      9  H   UNL     1      -5.613 -15.580  -5.469  0.00  0.00    +0.149 HD
ATOM     10  O   UNL     1      -6.444 -17.612  -3.200  0.00  0.00    -0.274 OA
BRANCH   8  11
ATOM     11  C   UNL     1      -4.266 -17.141  -4.906  0.00  0.00    +0.104 C 
BRANCH  11  12
ATOM     12  C   UNL     1      -3.049 -16.336  -5.356  0.00  0.00    +0.022 C 
BRANCH  12  13
ATOM     13  C   UNL     1      -2.690 -15.145  -4.439  0.00  0.00    -0.010 C 
ATOM     14  C   UNL     1      -1.478 -14.375  -4.990  0.00  0.00    +0.003 C 
ATOM     15  C   UNL     1      -0.167 -15.144  -4.830  0.00  0.00    +0.000 C 
ATOM     16  C   UNL     1       0.061 -15.594  -3.389  0.00  0.00    +0.000 C 
ATOM     17  C   UNL     1      -1.141 -16.341  -2.815  0.00  0.00    +0.000 C 
ATOM     18  C   UNL     1      -2.425 -15.534  -2.974  0.00  0.00    +0.003 C 
ENDBRANCH  12  13
ENDBRANCH  11  12
ENDBRANCH   8  11
ENDBRANCH   6   7
BRANCH   6  19
ATOM     19  C   UNL     1      -8.679 -16.037  -2.875  0.00  0.00    +0.032 C 
BRANCH  19  20
ATOM     20  C   UNL     1      -9.942 -15.176  -2.870  0.00  0.00    +0.003 C 
BRANCH  20  21
ATOM     21  C   UNL     1     -10.923 -15.644  -1.789  0.00  0.00    +0.015 C 
BRANCH  21  22
ATOM     22  C   UNL     1     -12.154 -14.740  -1.753  0.00  0.00    +0.077 C 
BRANCH  22  23
ATOM     23  N   UNL     1     -13.082 -15.182  -0.721  0.00  0.00    -0.330 NA
ATOM     24  H   UNL     1     -13.916 -14.596  -0.748  0.00  0.00    +0.118 HD
ATOM     25  H   UNL     1     -13.395 -16.131  -0.920  0.00  0.00    +0.118 HD
ENDBRANCH  22  23
ENDBRANCH  21  22
ENDBRANCH  20  21
ENDBRANCH  19  20
ENDBRANCH   6  19
ENDBRANCH   3   6
ENDBRANCH   1   2
BRANCH   1  27
ATOM     26  C   UNL     1      -7.983 -10.664  -5.370  0.00  0.00    +0.218 C 
ATOM     27  N   UNL     1      -6.681 -11.125  -5.329  0.00  0.00    -0.302 N 
ATOM     28  H   UNL     1      -6.229 -11.290  -6.222  0.00  0.00    +0.150 HD
ATOM     29  O   UNL     1      -8.772 -10.821  -4.441  0.00  0.00    -0.275 OA
BRANCH  26  30
ATOM     30  C   UNL     1      -8.370  -9.964  -6.660  0.00  0.00    +0.130 C 
BRANCH  30  34
ATOM     31  C   UNL     1      -7.845  -5.668  -6.922  0.00  0.00    -0.047 A 
ATOM     32  C   UNL     1      -8.150  -6.265  -5.692  0.00  0.00    +0.004 A 
ATOM     33  C   UNL     1      -8.281  -7.654  -5.584  0.00  0.00    +0.004 A 
ATOM     34  C   UNL     1      -8.095  -8.479  -6.702  0.00  0.00    -0.039 A 
ATOM     35  C   UNL     1      -7.761  -7.878  -7.925  0.00  0.00    +0.004 A 
ATOM     36  C   UNL     1      -7.628  -6.491  -8.031  0.00  0.00    +0.004 A 
BRANCH  31  37
ATOM     37  C   UNL     1      -7.750  -4.166  -7.040  0.00  0.00    +0.035 C 
BRANCH  37  38
ATOM     38  C   UNL     1      -8.793  -3.567  -7.996  0.00  0.00    +0.006 C 
BRANCH  38  39
ATOM     39  C   UNL     1      -8.683  -2.041  -8.022  0.00  0.00    +0.022 C 
BRANCH  39  40
ATOM     40  C   UNL     1      -9.708  -1.404  -8.959  0.00  0.00    +0.123 C 
BRANCH  40  43
ATOM     41  C   UNL     1     -11.104   0.742  -7.204  0.00  0.00    +0.086 C 
ATOM     42  C   UNL     1     -10.122   1.008  -8.284  0.00  0.00    +0.106 A 
ATOM     43  N   UNL     1      -9.522   0.035  -9.049  0.00  0.00    -0.335 N 
ATOM     44  C   UNL     1      -8.676   0.658  -9.929  0.00  0.00    +0.107 A 
ATOM     45  C   UNL     1      -8.795   1.996  -9.656  0.00  0.00    +0.130 A 
ATOM     46  N   UNL     1      -9.691   2.203  -8.640  0.00  0.00    -0.241 NA
ENDBRANCH  40  43
ENDBRANCH  39  40
ENDBRANCH  38  39
ENDBRANCH  37  38
ENDBRANCH  31  37
ENDBRANCH  30  34
ENDBRANCH  26  30
ENDBRANCH   1  27
BRANCH   1  47
ATOM     47  C   UNL     1      -4.759 -11.876  -3.965  0.00  0.00    +0.187 C 
BRANCH  47  48
ATOM     48  O   UNL     1      -4.396 -10.548  -3.590  0.00  0.00    -0.393 OA
ATOM     49  H   UNL     1      -4.639  -9.964  -4.331  0.00  0.00    +0.209 HD
ENDBRANCH  47  48
ENDBRANCH   1  47
TORSDOF 21
