REMARK  Name = 
REMARK  17 active torsions:
REMARK  status: ('A' for Active; 'I' for Inactive)
REMARK    1  A    between atoms: C_1  and  O_2
REMARK    2  A    between atoms: O_2  and  C_3
REMARK    3  A    between atoms: C_3  and  C_5
REMARK    4  A    between atoms: C_7  and  C_8
REMARK    5  A    between atoms: C_8  and  C_9
REMARK    6  A    between atoms: C_9  and  N_11
REMARK    7  A    between atoms: C_9  and  C_15
REMARK    8  A    between atoms: C_12  and  C_13
REMARK    9  A    between atoms: N_17  and  C_18
REMARK   10  A    between atoms: N_24  and  C_25
REMARK   11  A    between atoms: C_25  and  C_26
REMARK   12  A    between atoms: C_29  and  C_32
REMARK   13  A    between atoms: C_42  and  C_43
REMARK   14  A    between atoms: C_43  and  C_45
REMARK   15  A    between atoms: C_43  and  C_48
REMARK   16  A    between atoms: C_45  and  O_46
REMARK   17  A    between atoms: C_48  and  O_49
REMARK                            x       y       z     vdW  Elec       q    Type
REMARK                         _______ _______ _______ _____ _____    ______ ____
ROOT
ATOM      1  C   UNL     1       5.785  -4.543   5.924  0.00  0.00    +0.163 C 
ENDROOT
BRANCH   1   2
ATOM      2  N   UNL     1       6.811  -5.114   6.806  0.00  0.00    -0.304 N 
ATOM      3  H   UNL     1       7.589  -4.500   7.014  0.00  0.00    +0.149 HD
ATOM      4  C   UNL     1       6.998  -6.451   7.063  0.00  0.00    +0.211 C 
ATOM      5  O   UNL     1       6.266  -7.334   6.644  0.00  0.00    -0.276 OA
ATOM      6  C   UNL     1       8.249  -6.726   7.859  0.00  0.00    +0.109 C 
ENDBRANCH   1   2
BRANCH   1   7
ATOM      7  C   UNL     1       6.166  -4.677   4.432  0.00  0.00    +0.234 C 
ATOM      8  N   UNL     1       6.689  -5.891   4.040  0.00  0.00    -0.302 N 
ATOM      9  H   UNL     1       6.627  -6.684   4.673  0.00  0.00    +0.150 HD
ATOM     10  O   UNL     1       5.896  -3.784   3.632  0.00  0.00    -0.274 OA
BRANCH   8  11
ATOM     11  C   UNL     1       7.003  -6.166   2.638  0.00  0.00    +0.159 C 
ATOM     12  C   UNL     1       8.185  -7.141   2.500  0.00  0.00    +0.236 C 
ATOM     13  O   UNL     1       8.950  -7.081   1.542  0.00  0.00    -0.274 OA
ATOM     14  N   UNL     1       8.064  -8.277   3.310  0.00  0.00    -0.296 N 
ATOM     15  C   UNL     1       7.529  -9.455   2.638  0.00  0.00    +0.108 C 
ATOM     16  C   UNL     1       6.341  -9.172   1.704  0.00  0.00    +0.019 C 
ATOM     17  C   UNL     1       5.348  -8.126   2.225  0.00  0.00    +0.004 C 
ATOM     18  C   UNL     1       5.768  -6.686   1.886  0.00  0.00    +0.032 C 
BRANCH  14  19
ATOM     19  C   UNL     1       9.075  -8.513   4.359  0.00  0.00    +0.143 C 
BRANCH  19  20
ATOM     20  C   UNL     1      10.335  -9.249   3.948  0.00  0.00    -0.030 A 
ATOM     21  C   UNL     1      10.754 -10.441   4.557  0.00  0.00    +0.006 A 
ATOM     22  C   UNL     1      11.888 -11.141   4.089  0.00  0.00    +0.009 A 
ATOM     23  C   UNL     1      12.633 -10.682   2.983  0.00  0.00    -0.018 A 
ATOM     24  C   UNL     1      12.246  -9.442   2.459  0.00  0.00    +0.009 A 
ATOM     25  C   UNL     1      11.150  -8.729   2.948  0.00  0.00    +0.006 A 
BRANCH  23  26
ATOM     26  C   UNL     1      13.724 -11.464   2.332  0.00  0.00    -0.018 A 
ATOM     27  C   UNL     1      13.773 -12.871   2.366  0.00  0.00    +0.008 A 
ATOM     28  C   UNL     1      14.735 -13.589   1.632  0.00  0.00    +0.001 A 
ATOM     29  C   UNL     1      15.666 -12.920   0.847  0.00  0.00    +0.000 A 
ATOM     30  C   UNL     1      15.659 -11.535   0.808  0.00  0.00    +0.001 A 
ATOM     31  C   UNL     1      14.715 -10.823   1.555  0.00  0.00    +0.008 A 
ENDBRANCH  23  26
ENDBRANCH  19  20
ENDBRANCH  14  19
ENDBRANCH   8  11
ENDBRANCH   1   7
BRANCH   1  32
ATOM     32  C   UNL     1       4.341  -5.033   6.102  0.00  0.00    +0.067 C 
BRANCH  32  37
ATOM     33  C   UNL     1       2.304  -6.068   9.146  0.00  0.00    +0.067 A 
ATOM     34  C   UNL     1       2.414  -4.968  10.018  0.00  0.00    +0.025 A 
ATOM     35  C   UNL     1       3.111  -3.836   9.538  0.00  0.00    +0.009 A 
ATOM     36  C   UNL     1       3.736  -3.832   8.281  0.00  0.00    +0.004 A 
ATOM     37  C   UNL     1       3.745  -4.982   7.491  0.00  0.00    -0.044 A 
ATOM     38  C   UNL     1       3.030  -6.093   7.943  0.00  0.00    +0.019 A 
BRANCH  33  39
ATOM     39  C   UNL     1       1.344  -7.173   9.383  0.00  0.00    +0.339 C 
ATOM     40  O   UNL     1       1.045  -7.579  10.488  0.00  0.00    -0.245 OA
BRANCH  39  42
ATOM     41  C   UNL     1      -0.299  -8.411   8.176  0.00  0.00    +0.280 C 
ATOM     42  O   UNL     1       0.811  -7.514   8.188  0.00  0.00    -0.464 OA
ENDBRANCH  39  42
ENDBRANCH  33  39
BRANCH  34  43
ATOM     43  C   UNL     1       1.824  -4.924  11.450  0.00  0.00    +0.327 C 
ATOM     44  F   UNL     1       2.163  -3.712  12.027  0.00  0.00    -0.212 F 
BRANCH  43  45
ATOM     45  C   UNL     1       2.438  -5.999  12.373  0.00  0.00    +0.358 C 
ATOM     46  O   UNL     1       1.860  -6.422  13.372  0.00  0.00    -0.246 OA
BRANCH  45  47
ATOM     47  O   UNL     1       3.729  -6.353  12.132  0.00  0.00    -0.478 OA
ATOM     48  H   UNL     1       4.162  -5.915  11.372  0.00  0.00    +0.295 HD
ENDBRANCH  45  47
ENDBRANCH  43  45
BRANCH  43  49
ATOM     49  C   UNL     1       0.277  -4.991  11.432  0.00  0.00    +0.358 C 
ATOM     50  O   UNL     1      -0.401  -4.546  10.501  0.00  0.00    -0.246 OA
BRANCH  49  51
ATOM     51  O   UNL     1      -0.341  -5.465  12.544  0.00  0.00    -0.478 OA
ATOM     52  H   UNL     1       0.260  -5.877  13.213  0.00  0.00    +0.295 HD
ENDBRANCH  49  51
ENDBRANCH  43  49
ENDBRANCH  34  43
ENDBRANCH  32  37
ENDBRANCH   1  32
TORSDOF 15
