REMARK  Name = 
REMARK  5 active torsions:
REMARK  status: ('A' for Active; 'I' for Inactive)
REMARK    1  A    between atoms: O_1  and  S_2
REMARK    2  A    between atoms: S_2  and  C_5
REMARK    3  A    between atoms: C_5  and  C_6
REMARK    4  A    between atoms: C_6  and  N_7
REMARK    5  A    between atoms: N_7  and  C_8
REMARK                            x       y       z     vdW  Elec       q    Type
REMARK                         _______ _______ _______ _____ _____    ______ ____
ROOT
ATOM      1  N   UNL     1       5.287  -0.902  -2.872  0.00  0.00    -0.342 N 
ATOM      2  H   UNL     1       4.688  -0.746  -3.679  0.00  0.00    +0.146 HD
ENDROOT
BRANCH   1   3
ATOM      3  C   UNL     1       6.641  -0.701  -3.166  0.00  0.00    +0.027 A 
ATOM      4  C   UNL     1       7.033  -0.523  -4.501  0.00  0.00    +0.023 A 
ATOM      5  C   UNL     1       8.376  -0.337  -4.844  0.00  0.00    +0.002 A 
ATOM      6  C   UNL     1       9.356  -0.357  -3.857  0.00  0.00    +0.000 A 
ATOM      7  C   UNL     1       8.993  -0.581  -2.533  0.00  0.00    +0.002 A 
ATOM      8  C   UNL     1       7.648  -0.762  -2.195  0.00  0.00    +0.023 A 
ENDBRANCH   1   3
BRANCH   1   9
ATOM      9  C   UNL     1       4.739  -0.327  -1.635  0.00  0.00    +0.126 C 
BRANCH   9  10
ATOM     10  C   UNL     1       4.449   1.153  -1.802  0.00  0.00    +0.216 C 
BRANCH  10  11
ATOM     11  S   UNL     1       3.894   1.822  -0.249  0.00  0.00    +0.081 S 
ATOM     12  O   UNL     1       2.609   1.263   0.098  0.00  0.00    -0.147 OA
ATOM     13  O   UNL     1       4.988   1.873   0.692  0.00  0.00    -0.147 OA
BRANCH  11  14
ATOM     14  O   UNL     1       3.619   3.336  -0.737  0.00  0.00    -0.254 OA
ATOM     15  H   UNL     1       3.173   3.820  -0.010  0.00  0.00    +0.244 HD
ENDBRANCH  11  14
ENDBRANCH  10  11
ENDBRANCH   9  10
ENDBRANCH   1   9
TORSDOF 5
