REMARK  Name = 
REMARK  3 active torsions:
REMARK  status: ('A' for Active; 'I' for Inactive)
REMARK    1  A    between atoms: O_1  and  C_2
REMARK    2  A    between atoms: C_2  and  C_4
REMARK    3  A    between atoms: C_7  and  C_9
REMARK                            x       y       z     vdW  Elec       q    Type
REMARK                         _______ _______ _______ _____ _____    ______ ____
ROOT
ATOM      1  C   UNL     1       3.141   1.374   0.264  0.00  0.00    +0.212 A 
ATOM      2  O   UNL     1       4.420   1.522   0.737  0.00  0.00    -0.448 OA
ATOM      3  C   UNL     1       4.691   2.861   0.791  0.00  0.00    +0.137 A 
ATOM      4  C   UNL     1       3.571   3.567   0.390  0.00  0.00    +0.051 A 
ATOM      5  C   UNL     1       2.582   2.616   0.048  0.00  0.00    +0.057 A 
ENDROOT
BRANCH   3   6
ATOM      6  C   UNL     1       6.014   3.275   1.263  0.00  0.00    +0.036 A 
ATOM      7  C   UNL     1       7.204   2.550   1.061  0.00  0.00    +0.052 A 
ATOM      8 CL   UNL     1       7.263   1.026   0.239  0.00  0.00    -0.083 Cl
ATOM      9  C   UNL     1       8.436   3.066   1.495  0.00  0.00    +0.021 A 
ATOM     10  C   UNL     1       8.504   4.303   2.134  0.00  0.00    +0.001 A 
ATOM     11  C   UNL     1       7.339   5.026   2.355  0.00  0.00    +0.001 A 
ATOM     12  C   UNL     1       6.111   4.516   1.927  0.00  0.00    +0.013 A 
ENDBRANCH   3   6
BRANCH   1  13
ATOM     13  C   UNL     1       2.610   0.046   0.075  0.00  0.00    +0.372 C 
ATOM     14  O   UNL     1       1.482  -0.229  -0.305  0.00  0.00    -0.242 OA
BRANCH  13  15
ATOM     15  O   UNL     1       3.537  -0.901   0.374  0.00  0.00    -0.475 OA
ATOM     16  H   UNL     1       4.378  -0.471   0.639  0.00  0.00    +0.296 HD
ENDBRANCH  13  15
ENDBRANCH   1  13
TORSDOF 3
