REMARK  Name = 
REMARK  5 active torsions:
REMARK  status: ('A' for Active; 'I' for Inactive)
REMARK    1  A    between atoms: N_1  and  C_2
REMARK    2  A    between atoms: C_3  and  O_4
REMARK    3  A    between atoms: O_4  and  P_5
REMARK    4  A    between atoms: P_5  and  O_6
REMARK    5  A    between atoms: P_5  and  O_7
REMARK                            x       y       z     vdW  Elec       q    Type
REMARK                         _______ _______ _______ _____ _____    ______ ____
ROOT
ATOM      1  O   UNL     1       4.463  -0.512   1.165  0.00  0.00    -0.411 OA
ENDROOT
BRANCH   1   3
ATOM      2  C   UNL     1       2.415  -0.071   0.085  0.00  0.00    +0.103 C 
ATOM      3  C   UNL     1       3.099  -0.532   1.134  0.00  0.00    +0.213 C 
BRANCH   2   4
ATOM      4  N   UNL     1       1.059  -0.085  -0.095  0.00  0.00    -0.361 N 
ATOM      5  H   UNL     1       0.520  -0.193   0.762  0.00  0.00    +0.142 HD
ATOM      6  H   UNL     1       0.709   0.657  -0.695  0.00  0.00    +0.142 HD
ENDBRANCH   2   4
ENDBRANCH   1   3
BRANCH   1   7
ATOM      7  P   UNL     1       5.343  -1.429   2.145  0.00  0.00    +0.527 P 
ATOM      8  O   UNL     1       5.229  -1.169   3.607  0.00  0.00    -0.216 OA
BRANCH   7   9
ATOM      9  O   UNL     1       6.836  -1.252   1.603  0.00  0.00    -0.293 OA
ATOM     10  H   UNL     1       7.274  -0.507   2.058  0.00  0.00    +0.223 HD
ENDBRANCH   7   9
BRANCH   7  11
ATOM     11  O   UNL     1       5.029  -2.925   1.681  0.00  0.00    -0.293 OA
ATOM     12  H   UNL     1       5.243  -3.046   0.739  0.00  0.00    +0.223 HD
ENDBRANCH   7  11
ENDBRANCH   1   7
TORSDOF 5
