REMARK  Name = 
REMARK  10 active torsions:
REMARK  status: ('A' for Active; 'I' for Inactive)
REMARK    1  A    between atoms: O_1  and  C_2
REMARK    2  A    between atoms: C_2  and  C_4
REMARK    3  A    between atoms: C_2  and  C_34
REMARK    4  A    between atoms: C_5  and  C_6
REMARK    5  A    between atoms: C_6  and  C_8
REMARK    6  A    between atoms: C_6  and  C_9
REMARK    7  A    between atoms: C_19  and  C_20
REMARK    8  A    between atoms: C_21  and  C_22
REMARK    9  A    between atoms: C_25  and  O_27
REMARK   10  A    between atoms: C_29  and  O_31
REMARK                            x       y       z     vdW  Elec       q    Type
REMARK                         _______ _______ _______ _____ _____    ______ ____
ROOT
ATOM      1  C   UNL     1       0.201   0.124   0.475  0.00  0.00    +0.002 C 
ATOM      2  C   UNL     1       0.201   0.124   0.475  0.00  0.00    -0.022 C 
ATOM      3  C   UNL     1       0.201   0.124   0.475  0.00  0.00    +0.012 C 
ATOM      4  C   UNL     1       0.201   0.124   0.475  0.00  0.00    +0.021 C 
ATOM      5  C   UNL     1       0.174   0.124   4.059  0.00  0.00    -0.066 C 
ATOM      6  C   UNL     1       0.201   0.124   0.475  0.00  0.00    -0.000 C 
ATOM      7  C   UNL     1      -9.438   0.129   0.484  0.00  0.00    +0.031 C 
ATOM      8  C   UNL     1       0.201   0.124   0.475  0.00  0.00    +0.005 C 
ATOM      9  C   UNL     1       0.201   0.124   0.475  0.00  0.00    +0.009 C 
ATOM     10  C   UNL     1       0.201   0.124   0.475  0.00  0.00    +0.008 C 
ATOM     11  C   UNL     1       0.201   0.124   0.475  0.00  0.00    +0.005 C 
ENDROOT
BRANCH   6  12
ATOM     12  C   UNL     1       0.201   0.124   0.475  0.00  0.00    +0.004 C 
ATOM     13  C   UNL     1       0.201   0.124   0.475  0.00  0.00    -0.040 C 
ATOM     14  C   UNL     1       0.201   0.124   0.475  0.00  0.00    -0.023 C 
ATOM     15  C   UNL     1       0.556   0.133  -1.616  0.00  0.00    +0.015 C 
ATOM     16  C   UNL     1       0.201   0.124   0.475  0.00  0.00    +0.147 C 
ATOM     17  C   UNL     1       0.201   0.124   0.475  0.00  0.00    +0.067 C 
ATOM     18  C   UNL     1      -0.492   2.006   0.636  0.00  0.00    +0.122 C 
ATOM     19  C   UNL     1       0.654   1.768   0.213  0.00  0.00    +0.067 C 
BRANCH  16  20
ATOM     20  O   UNL     1       0.201   0.124   0.475  0.00  0.00    -0.387 OA
ATOM     21  H   UNL     1       0.403   0.247   0.951  0.00  0.00    +0.210 HD
ENDBRANCH  16  20
BRANCH  18  22
ATOM     22  O   UNL     1       0.201   0.124   0.475  0.00  0.00    -0.391 OA
ATOM     23  H   UNL     1       0.900  -0.768   1.868  0.00  0.00    +0.210 HD
ENDBRANCH  18  22
ENDBRANCH   6  12
BRANCH   1  24
ATOM     24  C   UNL     1       0.494   1.045  -1.536  0.00  0.00    +0.012 C 
ATOM     25  C   UNL     1       0.201   0.124   0.475  0.00  0.00    +0.012 C 
BRANCH  24  27
ATOM     26  C   UNL     1      -0.357   3.055  -1.822  0.00  0.00    +0.000 C 
ATOM     27  C   UNL     1       0.245   2.516   0.128  0.00  0.00    -0.025 C 
BRANCH  26  28
ATOM     28  C   UNL     1      -0.357   3.055  -1.822  0.00  0.00    +0.140 C 
BRANCH  28  29
ATOM     29  C   UNL     1       0.444   2.119  -1.178  0.00  0.00    +0.022 C 
ATOM     30  C   UNL     1      -0.357   3.055  -1.822  0.00  0.00    +0.007 C 
ATOM     31  C   UNL     1       2.298   3.473  -1.459  0.00  0.00    +0.007 C 
ENDBRANCH  28  29
BRANCH  28  32
ATOM     32  O   UNL     1      -0.357   3.055  -1.822  0.00  0.00    -0.387 OA
ATOM     33  H   UNL     1      -0.423   2.633  -1.354  0.00  0.00    +0.210 HD
ENDBRANCH  28  32
ENDBRANCH  26  28
ENDBRANCH  24  27
ENDBRANCH   1  24
TORSDOF 8
