REMARK  Name = 
REMARK  12 active torsions:
REMARK  status: ('A' for Active; 'I' for Inactive)
REMARK    1  A    between atoms: C_1  and  C_2
REMARK    2  A    between atoms: C_2  and  O_3
REMARK    3  A    between atoms: C_2  and  C_4
REMARK    4  A    between atoms: C_2  and  C_6
REMARK    5  A    between atoms: C_6  and  C_7
REMARK    6  A    between atoms: C_7  and  O_8
REMARK    7  A    between atoms: O_8  and  P_9
REMARK    8  A    between atoms: P_9  and  O_10
REMARK    9  A    between atoms: P_9  and  O_12
REMARK   10  A    between atoms: O_12  and  P_13
REMARK   11  A    between atoms: P_13  and  O_14
REMARK   12  A    between atoms: P_13  and  O_15
REMARK                            x       y       z     vdW  Elec       q    Type
REMARK                         _______ _______ _______ _____ _____    ______ ____
ROOT
ATOM      1  P   UNL     1       6.714  -0.117   2.700  0.00  0.00    +0.483 P 
ATOM      2  O   UNL     1       7.357  -1.220   3.538  0.00  0.00    -0.227 OA
ENDROOT
BRANCH   1   3
ATOM      3  O   UNL     1       5.186  -0.553   3.385  0.00  0.00    -0.302 OA
ATOM      4  H   UNL     1       5.395  -0.711   4.328  0.00  0.00    +0.222 HD
ENDBRANCH   1   3
BRANCH   1   5
ATOM      5  O   UNL     1       6.709   1.262   3.603  0.00  0.00    -0.286 OA
BRANCH   5   6
ATOM      6  C   UNL     1       6.202   2.413   2.945  0.00  0.00    +0.175 C 
BRANCH   6   7
ATOM      7  C   UNL     1       6.230   3.624   3.874  0.00  0.00    +0.064 C 
BRANCH   7   9
ATOM      8  C   UNL     1       7.430   5.277   5.309  0.00  0.00    +0.042 C 
ATOM      9  C   UNL     1       7.620   4.020   4.449  0.00  0.00    +0.075 C 
BRANCH   9  10
ATOM     10  O   UNL     1       8.064   2.978   5.324  0.00  0.00    -0.388 OA
ATOM     11  H   UNL     1       8.013   2.128   4.842  0.00  0.00    +0.210 HD
ENDBRANCH   9  10
BRANCH   9  12
ATOM     12  C   UNL     1       8.639   4.236   3.315  0.00  0.00    +0.114 C 
ATOM     13 BR   UNL     1      10.392   4.828   3.939  0.00  0.00    -0.089 Br
ENDBRANCH   9  12
ENDBRANCH   7   9
ENDBRANCH   6   7
ENDBRANCH   5   6
ENDBRANCH   1   5
BRANCH   1  14
ATOM     14  O   UNL     1       8.242   0.319   2.016  0.00  0.00    -0.186 OA
BRANCH  14  15
ATOM     15  P   UNL     1       8.288  -0.161   0.355  0.00  0.00    +0.481 P 
ATOM     16  O   UNL     1       8.329  -0.591  -1.132  0.00  0.00    -0.227 OA
BRANCH  15  17
ATOM     17  O   UNL     1       9.289   1.115   0.135  0.00  0.00    -0.302 OA
ATOM     18  H   UNL     1       8.853   1.832  -0.352  0.00  0.00    +0.222 HD
ENDBRANCH  15  17
BRANCH  15  19
ATOM     19  O   UNL     1       6.914   0.702   0.118  0.00  0.00    -0.302 OA
ATOM     20  H   UNL     1       6.764   0.664  -0.856  0.00  0.00    +0.222 HD
ENDBRANCH  15  19
ENDBRANCH  14  15
ENDBRANCH   1  14
TORSDOF 11
