REMARK  Name = 
REMARK  8 active torsions:
REMARK  status: ('A' for Active; 'I' for Inactive)
REMARK    1  A    between atoms: N_10  and  C_11
REMARK    2  A    between atoms: C_14  and  C_16
REMARK    3  A    between atoms: C_16  and  O_17
REMARK    4  A    between atoms: O_17  and  S_18
REMARK    5  A    between atoms: S_18  and  N_21
REMARK    6  A    between atoms: C_22  and  C_24
REMARK    7  A    between atoms: C_30  and  O_32
REMARK    8  A    between atoms: C_33  and  O_35
REMARK                            x       y       z     vdW  Elec       q    Type
REMARK                         _______ _______ _______ _____ _____    ______ ____
ROOT
ATOM      1  C   UNL     1      16.792  -3.037  11.219  0.00  0.00    +0.253 C 
ATOM      2  C   UNL     1      16.311  -4.409  10.727  0.00  0.00    +0.195 C 
ATOM      3  C   UNL     1      15.110  -4.750  11.616  0.00  0.00    +0.178 C 
ATOM      4  C   UNL     1      14.848  -3.467  12.408  0.00  0.00    +0.180 C 
ATOM      5  O   UNL     1      15.589  -2.419  11.752  0.00  0.00    -0.346 OA
ENDROOT
BRANCH   1  13
ATOM      6  N   UNL     1      21.856  -3.282  14.547  0.00  0.00    -0.341 N 
ATOM      7  H   UNL     1      21.411  -2.702  15.249  0.00  0.00    +0.144 HD
ATOM      8  H   UNL     1      22.507  -3.991  14.856  0.00  0.00    +0.144 HD
ATOM      9  C   UNL     1      20.980  -3.756  13.578  0.00  0.00    +0.147 A 
ATOM     10  C   UNL     1      19.734  -3.164  13.306  0.00  0.00    +0.147 A 
ATOM     11  N   UNL     1      19.080  -2.086  13.861  0.00  0.00    -0.231 NA
ATOM     12  C   UNL     1      17.967  -1.980  13.166  0.00  0.00    +0.203 A 
ATOM     13  N   UNL     1      17.843  -2.969  12.218  0.00  0.00    -0.286 N 
ATOM     14  C   UNL     1      18.984  -3.725  12.283  0.00  0.00    +0.167 A 
ATOM     15  N   UNL     1      19.327  -4.775  11.521  0.00  0.00    -0.216 NA
ATOM     16  C   UNL     1      20.518  -5.283  11.897  0.00  0.00    +0.225 A 
ATOM     17  N   UNL     1      21.347  -4.846  12.868  0.00  0.00    -0.219 NA
ENDBRANCH   1  13
BRANCH   2  18
ATOM     18  O   UNL     1      15.860  -4.294   9.357  0.00  0.00    -0.385 OA
ATOM     19  H   UNL     1      15.229  -3.554   9.298  0.00  0.00    +0.210 HD
ENDBRANCH   2  18
BRANCH   3  20
ATOM     20  O   UNL     1      15.427  -5.822  12.501  0.00  0.00    -0.386 OA
ATOM     21  H   UNL     1      14.588  -6.121  12.904  0.00  0.00    +0.210 HD
ENDBRANCH   3  20
BRANCH   4  22
ATOM     22  C   UNL     1      13.372  -3.079  12.506  0.00  0.00    +0.229 C 
BRANCH  22  23
ATOM     23  O   UNL     1      12.645  -4.071  13.210  0.00  0.00    -0.220 OA
BRANCH  23  24
ATOM     24  S   UNL     1      11.037  -3.870  13.352  0.00  0.00    +0.169 S 
ATOM     25  O   UNL     1      10.452  -3.967  12.033  0.00  0.00    -0.126 OA
ATOM     26  O   UNL     1      10.813  -2.697  14.169  0.00  0.00    -0.126 OA
BRANCH  24  27
ATOM     27  N   UNL     1      10.500  -5.159  14.232  0.00  0.00    -0.164 N 
ATOM     28  H   UNL     1       9.587  -5.050  14.669  0.00  0.00    +0.179 HD
ATOM     29  C   UNL     1      11.020  -6.456  14.154  0.00  0.00    +0.250 C 
ATOM     30  O   UNL     1      12.027  -6.722  13.513  0.00  0.00    -0.272 OA
BRANCH  29  31
ATOM     31  C   UNL     1      10.275  -7.496  15.020  0.00  0.00    +0.142 C 
ATOM     32  N   UNL     1       8.825  -7.167  15.154  0.00  0.00    -0.306 NA
ATOM     33  H   UNL     1       8.539  -7.423  16.104  0.00  0.00    +0.123 HD
ATOM     34  C   UNL     1       8.090  -8.066  14.239  0.00  0.00    +0.081 C 
ATOM     35  C   UNL     1       9.119  -8.894  13.492  0.00  0.00    +0.017 C 
ATOM     36  C   UNL     1      10.321  -8.885  14.411  0.00  0.00    +0.029 C 
ENDBRANCH  29  31
ENDBRANCH  24  27
ENDBRANCH  23  24
ENDBRANCH  22  23
ENDBRANCH   4  22
TORSDOF 8
