REMARK  Name = 
REMARK  6 active torsions:
REMARK  status: ('A' for Active; 'I' for Inactive)
REMARK    1  A    between atoms: O_1  and  C_2
REMARK    2  A    between atoms: C_2  and  C_3
REMARK    3  A    between atoms: C_6  and  O_8
REMARK    4  A    between atoms: C_9  and  O_11
REMARK    5  A    between atoms: C_12  and  O_14
REMARK    6  A    between atoms: C_15  and  O_17
REMARK                            x       y       z     vdW  Elec       q    Type
REMARK                         _______ _______ _______ _____ _____    ______ ____
ROOT
ATOM      1  C   UNL     1       2.845  -0.930  -1.095  0.00  0.00    +0.178 C 
ATOM      2  C   UNL     1       1.767  -1.898  -1.610  0.00  0.00    +0.177 C 
ATOM      3  C   UNL     1       1.256  -2.762  -0.442  0.00  0.00    +0.179 C 
ATOM      4  C   UNL     1       2.406  -3.408   0.334  0.00  0.00    +0.201 C 
ATOM      5  C   UNL     1       3.456  -2.345   0.688  0.00  0.00    +0.279 C 
ATOM      6  O   UNL     1       3.912  -1.666  -0.468  0.00  0.00    -0.341 OA
ENDROOT
BRANCH   2   7
ATOM      7  O   UNL     1       0.703  -1.148  -2.208  0.00  0.00    -0.386 OA
ATOM      8  H   UNL     1      -0.028  -1.080  -1.569  0.00  0.00    +0.210 HD
ENDBRANCH   2   7
BRANCH   3   9
ATOM      9  O   UNL     1       0.365  -3.779  -0.918  0.00  0.00    -0.386 OA
ATOM     10  H   UNL     1       0.275  -4.418  -0.184  0.00  0.00    +0.210 HD
ENDBRANCH   3   9
BRANCH   4  11
ATOM     11  O   UNL     1       1.854  -4.007   1.513  0.00  0.00    -0.384 OA
ATOM     12  H   UNL     1       2.594  -4.084   2.152  0.00  0.00    +0.210 HD
ENDBRANCH   4  11
BRANCH   5  13
ATOM     13  O   UNL     1       4.566  -2.994   1.290  0.00  0.00    -0.365 OA
ATOM     14  H   UNL     1       5.254  -2.306   1.319  0.00  0.00    +0.213 HD
ENDBRANCH   5  13
BRANCH   1  15
ATOM     15  C   UNL     1       3.419  -0.073  -2.229  0.00  0.00    +0.190 C 
BRANCH  15  16
ATOM     16  O   UNL     1       4.246   0.953  -1.675  0.00  0.00    -0.392 OA
ATOM     17  H   UNL     1       4.617   1.445  -2.427  0.00  0.00    +0.210 HD
ENDBRANCH  15  16
ENDBRANCH   1  15
TORSDOF 6
