REMARK  Name = 
REMARK  15 active torsions:
REMARK  status: ('A' for Active; 'I' for Inactive)
REMARK    1  A    between atoms: O_1  and  C_2
REMARK    2  A    between atoms: C_2  and  C_3
REMARK    3  A    between atoms: C_6  and  O_8
REMARK    4  A    between atoms: O_8  and  C_9
REMARK    5  A    between atoms: C_12  and  C_14
REMARK    6  A    between atoms: C_14  and  O_15
REMARK    7  A    between atoms: O_15  and  P_16
REMARK    8  A    between atoms: P_16  and  O_17
REMARK    9  A    between atoms: P_16  and  O_18
REMARK   10  A    between atoms: C_20  and  O_22
REMARK   11  A    between atoms: C_23  and  O_25
REMARK   12  A    between atoms: C_26  and  O_28
REMARK   13  A    between atoms: C_29  and  O_31
REMARK   14  A    between atoms: C_32  and  O_34
REMARK   15  A    between atoms: C_35  and  O_37
REMARK                            x       y       z     vdW  Elec       q    Type
REMARK                         _______ _______ _______ _____ _____    ______ ____
ROOT
ATOM      1  C   UNL     1       1.916  -5.066  -1.067  0.00  0.00    +0.285 C 
ATOM      2  C   UNL     1       0.609  -5.880  -1.272  0.00  0.00    +0.201 C 
ATOM      3  C   UNL     1       0.416  -6.967  -0.196  0.00  0.00    +0.179 C 
ATOM      4  C   UNL     1       1.709  -7.779  -0.035  0.00  0.00    +0.177 C 
ATOM      5  C   UNL     1       2.893  -6.846   0.270  0.00  0.00    +0.179 C 
ATOM      6  O   UNL     1       3.061  -5.876  -0.771  0.00  0.00    -0.340 OA
ENDROOT
BRANCH   2   7
ATOM      7  O   UNL     1       0.592  -6.486  -2.575  0.00  0.00    -0.384 OA
ATOM      8  H   UNL     1       1.127  -7.308  -2.513  0.00  0.00    +0.210 HD
ENDBRANCH   2   7
BRANCH   3   9
ATOM      9  O   UNL     1       0.017  -6.428   1.070  0.00  0.00    -0.386 OA
ATOM     10  H   UNL     1      -0.419  -5.574   0.910  0.00  0.00    +0.210 HD
ENDBRANCH   3   9
BRANCH   4  11
ATOM     11  O   UNL     1       1.962  -8.474  -1.275  0.00  0.00    -0.386 OA
ATOM     12  H   UNL     1       2.788  -8.982  -1.151  0.00  0.00    +0.210 HD
ENDBRANCH   4  11
BRANCH   1  13
ATOM     13  O   UNL     1       1.715  -4.065  -0.063  0.00  0.00    -0.317 OA
BRANCH  13  18
ATOM     14  C   UNL     1       4.015  -1.545  -1.292  0.00  0.00    +0.178 C 
ATOM     15  C   UNL     1       3.839  -0.426  -0.257  0.00  0.00    +0.177 C 
ATOM     16  C   UNL     1       3.681  -1.064   1.137  0.00  0.00    +0.179 C 
ATOM     17  C   UNL     1       2.594  -2.154   1.150  0.00  0.00    +0.201 C 
ATOM     18  C   UNL     1       2.800  -3.131  -0.030  0.00  0.00    +0.285 C 
ATOM     19  O   UNL     1       2.868  -2.405  -1.250  0.00  0.00    -0.340 OA
BRANCH  15  20
ATOM     20  O   UNL     1       4.954   0.467  -0.301  0.00  0.00    -0.386 OA
ATOM     21  H   UNL     1       5.731   0.033   0.090  0.00  0.00    +0.210 HD
ENDBRANCH  15  20
BRANCH  16  22
ATOM     22  O   UNL     1       3.385  -0.064   2.117  0.00  0.00    -0.386 OA
ATOM     23  H   UNL     1       2.998  -0.513   2.893  0.00  0.00    +0.210 HD
ENDBRANCH  16  22
BRANCH  17  24
ATOM     24  O   UNL     1       2.630  -2.832   2.425  0.00  0.00    -0.384 OA
ATOM     25  H   UNL     1       3.550  -3.082   2.609  0.00  0.00    +0.210 HD
ENDBRANCH  17  24
BRANCH  14  26
ATOM     26  C   UNL     1       4.183  -1.003  -2.715  0.00  0.00    +0.190 C 
BRANCH  26  27
ATOM     27  O   UNL     1       4.593  -2.075  -3.571  0.00  0.00    -0.392 OA
ATOM     28  H   UNL     1       4.679  -1.707  -4.467  0.00  0.00    +0.210 HD
ENDBRANCH  26  27
ENDBRANCH  14  26
ENDBRANCH  13  18
ENDBRANCH   1  13
BRANCH   5  29
ATOM     29  C   UNL     1       2.869  -6.206   1.664  0.00  0.00    +0.206 C 
BRANCH  29  30
ATOM     30  O   UNL     1       2.752  -7.210   2.649  0.00  0.00    -0.284 OA
BRANCH  30  31
ATOM     31  P   UNL     1       2.623  -6.591   4.260  0.00  0.00    +0.472 P 
ATOM     32  O   UNL     1       2.509  -6.037   5.701  0.00  0.00    -0.228 OA
BRANCH  31  33
ATOM     33  O   UNL     1       3.584  -7.851   4.673  0.00  0.00    -0.303 OA
ATOM     34  H   UNL     1       4.517  -7.604   4.752  0.00  0.00    +0.222 HD
ENDBRANCH  31  33
BRANCH  31  35
ATOM     35  O   UNL     1       1.212  -7.415   4.328  0.00  0.00    -0.303 OA
ATOM     36  H   UNL     1       0.451  -6.875   4.057  0.00  0.00    +0.222 HD
ENDBRANCH  31  35
ENDBRANCH  30  31
ENDBRANCH  29  30
ENDBRANCH   5  29
TORSDOF 15
