REMARK  Name = 
REMARK  9 active torsions:
REMARK  status: ('A' for Active; 'I' for Inactive)
REMARK    1  A    between atoms: C_1  and  C_2
REMARK    2  A    between atoms: N_4  and  C_5
REMARK    3  A    between atoms: C_7  and  O_9
REMARK    4  A    between atoms: C_11  and  C_13
REMARK    5  A    between atoms: C_13  and  O_14
REMARK    6  A    between atoms: O_14  and  S_15
REMARK    7  A    between atoms: S_15  and  O_16
REMARK    8  A    between atoms: C_19  and  O_21
REMARK    9  A    between atoms: C_22  and  O_24
REMARK                            x       y       z     vdW  Elec       q    Type
REMARK                         _______ _______ _______ _____ _____    ______ ____
ROOT
ATOM      1  C   UNL     1       4.687   1.169   0.258  0.00  0.00    +0.160 C 
ATOM      2  C   UNL     1       5.168   2.281  -0.687  0.00  0.00    +0.171 C 
ATOM      3  C   UNL     1       4.976   1.872  -2.156  0.00  0.00    +0.176 C 
ATOM      4  C   UNL     1       5.582   0.486  -2.459  0.00  0.00    +0.180 C 
ATOM      5  O   UNL     1       5.168  -0.492  -1.493  0.00  0.00    -0.341 OA
ATOM      6  C   UNL     1       5.392  -0.155  -0.121  0.00  0.00    +0.270 C 
ENDROOT
BRANCH   1   9
ATOM      7  C   UNL     1       0.946   1.589   0.798  0.00  0.00    +0.109 C 
ATOM      8  C   UNL     1       2.415   1.830   1.010  0.00  0.00    +0.210 C 
ATOM      9  N   UNL     1       3.225   1.033   0.235  0.00  0.00    -0.305 N 
ATOM     10  H   UNL     1       2.805   0.430  -0.464  0.00  0.00    +0.149 HD
ATOM     11  O   UNL     1       2.843   2.678   1.783  0.00  0.00    -0.276 OA
ENDBRANCH   1   9
BRANCH   2  12
ATOM     12  O   UNL     1       6.563   2.547  -0.450  0.00  0.00    -0.387 OA
ATOM     13  H   UNL     1       6.801   3.236  -1.107  0.00  0.00    +0.210 HD
ENDBRANCH   2  12
BRANCH   3  14
ATOM     14  O   UNL     1       5.527   2.894  -2.992  0.00  0.00    -0.387 OA
ATOM     15  H   UNL     1       5.233   2.724  -3.906  0.00  0.00    +0.210 HD
ENDBRANCH   3  14
BRANCH   6  16
ATOM     16  O   UNL     1       6.776  -0.158   0.198  0.00  0.00    -0.365 OA
ATOM     17  H   UNL     1       7.056   0.779   0.258  0.00  0.00    +0.213 HD
ENDBRANCH   6  16
BRANCH   4  18
ATOM     18  C   UNL     1       7.101   0.497  -2.708  0.00  0.00    +0.230 C 
BRANCH  18  19
ATOM     19  O   UNL     1       7.528  -0.795  -3.121  0.00  0.00    -0.213 OA
BRANCH  19  20
ATOM     20  S   UNL     1       9.107  -0.994  -3.442  0.00  0.00    +0.208 S 
ATOM     21  O   UNL     1       9.533   0.053  -4.340  0.00  0.00    -0.118 OA
ATOM     22  O   UNL     1       9.327  -2.394  -3.737  0.00  0.00    -0.118 OA
BRANCH  20  23
ATOM     23  O   UNL     1       9.798  -0.738  -2.010  0.00  0.00    -0.231 OA
ATOM     24  H   UNL     1       9.662  -1.540  -1.466  0.00  0.00    +0.247 HD
ENDBRANCH  20  23
ENDBRANCH  19  20
ENDBRANCH  18  19
ENDBRANCH   4  18
TORSDOF 8
