REMARK  Name = 
REMARK  14 active torsions:
REMARK  status: ('A' for Active; 'I' for Inactive)
REMARK    1  A    between atoms: N_6  and  C_9
REMARK    2  A    between atoms: C_12  and  C_14
REMARK    3  A    between atoms: C_14  and  O_15
REMARK    4  A    between atoms: O_15  and  P_16
REMARK    5  A    between atoms: P_16  and  O_17
REMARK    6  A    between atoms: P_16  and  O_19
REMARK    7  A    between atoms: O_19  and  P_20
REMARK    8  A    between atoms: P_20  and  O_21
REMARK    9  A    between atoms: P_20  and  O_23
REMARK   10  A    between atoms: O_23  and  P_24
REMARK   11  A    between atoms: P_24  and  O_25
REMARK   12  A    between atoms: P_24  and  O_26
REMARK   13  A    between atoms: C_28  and  O_30
REMARK   14  A    between atoms: C_31  and  O_33
REMARK                            x       y       z     vdW  Elec       q    Type
REMARK                         _______ _______ _______ _____ _____    ______ ____
ROOT
ATOM      1  C   UNL     1       3.250   4.388   5.149  0.00  0.00    +0.255 C 
ATOM      2  C   UNL     1       3.494   3.950   6.605  0.00  0.00    +0.195 C 
ATOM      3  C   UNL     1       4.354   2.683   6.491  0.00  0.00    +0.178 C 
ATOM      4  C   UNL     1       4.688   2.557   4.997  0.00  0.00    +0.178 C 
ATOM      5  O   UNL     1       4.351   3.823   4.407  0.00  0.00    -0.346 OA
ENDROOT
BRANCH   1  12
ATOM      6  N   UNL     1      -1.415   3.107   2.478  0.00  0.00    -0.343 N 
ATOM      7  H   UNL     1      -1.717   2.146   2.459  0.00  0.00    +0.144 HD
ATOM      8  H   UNL     1      -1.454   3.566   1.571  0.00  0.00    +0.144 HD
ATOM      9  C   UNL     1      -0.275   3.406   3.166  0.00  0.00    +0.123 A 
ATOM     10  C   UNL     1       0.101   2.585   4.328  0.00  0.00    +0.061 A 
ATOM     11  C   UNL     1       1.238   2.928   4.933  0.00  0.00    +0.096 A 
ATOM     12  N   UNL     1       1.994   3.997   4.505  0.00  0.00    -0.270 N 
ATOM     13  C   UNL     1       1.595   4.750   3.395  0.00  0.00    +0.352 A 
ATOM     14  O   UNL     1       2.246   5.716   2.999  0.00  0.00    -0.244 OA
ATOM     15  N   UNL     1       0.431   4.403   2.743  0.00  0.00    -0.178 NA
ENDBRANCH   1  12
BRANCH   2  16
ATOM     16  O   UNL     1       4.225   4.955   7.337  0.00  0.00    -0.385 OA
ATOM     17  H   UNL     1       4.982   5.241   6.795  0.00  0.00    +0.210 HD
ENDBRANCH   2  16
BRANCH   3  18
ATOM     18  O   UNL     1       3.604   1.552   6.943  0.00  0.00    -0.386 OA
ATOM     19  H   UNL     1       4.226   0.804   6.999  0.00  0.00    +0.210 HD
ENDBRANCH   3  18
BRANCH   4  20
ATOM     20  C   UNL     1       6.161   2.228   4.674  0.00  0.00    +0.206 C 
BRANCH  20  21
ATOM     21  O   UNL     1       6.492   0.862   4.938  0.00  0.00    -0.284 OA
BRANCH  21  22
ATOM     22  P   UNL     1       8.076   0.378   4.773  0.00  0.00    +0.483 P 
ATOM     23  O   UNL     1       8.933   1.641   4.649  0.00  0.00    -0.227 OA
BRANCH  22  24
ATOM     24  O   UNL     1       8.248   0.531   6.487  0.00  0.00    -0.302 OA
ATOM     25  H   UNL     1       8.646   1.423   6.579  0.00  0.00    +0.222 HD
ENDBRANCH  22  24
BRANCH  22  26
ATOM     26  O   UNL     1       7.904   0.226   3.058  0.00  0.00    -0.186 OA
BRANCH  26  27
ATOM     27  P   UNL     1       7.688  -1.441   2.646  0.00  0.00    +0.492 P 
ATOM     28  O   UNL     1       9.178  -1.690   2.884  0.00  0.00    -0.226 OA
BRANCH  27  29
ATOM     29  O   UNL     1       7.580  -1.040   1.062  0.00  0.00    -0.302 OA
ATOM     30  H   UNL     1       8.490  -0.972   0.708  0.00  0.00    +0.222 HD
ENDBRANCH  27  29
BRANCH  27  31
ATOM     31  O   UNL     1       7.473  -3.107   2.234  0.00  0.00    -0.186 OA
BRANCH  31  32
ATOM     32  P   UNL     1       6.006  -3.425   2.812  0.00  0.00    +0.481 P 
ATOM     33  O   UNL     1       5.556  -4.839   2.847  0.00  0.00    -0.227 OA
BRANCH  32  34
ATOM     34  O   UNL     1       5.069  -2.405   2.022  0.00  0.00    -0.302 OA
ATOM     35  H   UNL     1       5.175  -2.468   1.050  0.00  0.00    +0.222 HD
ENDBRANCH  32  34
BRANCH  32  36
ATOM     36  O   UNL     1       6.076  -2.735   4.262  0.00  0.00    -0.302 OA
ATOM     37  H   UNL     1       5.639  -3.298   4.934  0.00  0.00    +0.222 HD
ENDBRANCH  32  36
ENDBRANCH  31  32
ENDBRANCH  27  31
ENDBRANCH  26  27
ENDBRANCH  22  26
ENDBRANCH  21  22
ENDBRANCH  20  21
ENDBRANCH   4  20
TORSDOF 14
