REMARK  Name = 
REMARK  8 active torsions:
REMARK  status: ('A' for Active; 'I' for Inactive)
REMARK    1  A    between atoms: C_2  and  N_3
REMARK    2  A    between atoms: C_2  and  C_4
REMARK    3  A    between atoms: C_2  and  C_12
REMARK    4  A    between atoms: C_4  and  C_5
REMARK    5  A    between atoms: C_5  and  C_6
REMARK    6  A    between atoms: C_12  and  C_13
REMARK    7  A    between atoms: C_13  and  S_14
REMARK    8  A    between atoms: S_14  and  C_17
REMARK                            x       y       z     vdW  Elec       q    Type
REMARK                         _______ _______ _______ _____ _____    ______ ____
ROOT
ATOM      1  C   UNL     1       2.100   0.106   0.016  0.00  0.00    +0.052 C 
ENDROOT
BRANCH   1   2
ATOM      2  N   UNL     1       0.639   0.060   0.033  0.00  0.00    -0.327 NA
ATOM      3  H   UNL     1       0.272   0.029   0.981  0.00  0.00    +0.118 HD
ATOM      4  H   UNL     1       0.253   0.895  -0.410  0.00  0.00    +0.118 HD
ENDBRANCH   1   2
BRANCH   1   5
ATOM      5  C   UNL     1       2.628   1.360   0.740  0.00  0.00    +0.041 C 
BRANCH   5   6
ATOM      6  C   UNL     1       2.241   1.427   2.217  0.00  0.00    +0.173 C 
BRANCH   6   7
ATOM      7  S   UNL     1       2.870   2.912   2.984  0.00  0.00    -0.003 S 
ATOM      8  O   UNL     1       2.116   4.040   2.472  0.00  0.00    -0.169 OA
ATOM      9  O   UNL     1       4.319   2.888   2.909  0.00  0.00    -0.169 OA
BRANCH   7  10
ATOM     10  C   UNL     1       2.426   2.704   4.694  0.00  0.00    +0.088 A 
ATOM     11  C   UNL     1       1.203   3.198   5.159  0.00  0.00    +0.027 A 
ATOM     12  C   UNL     1       0.871   3.043   6.505  0.00  0.00    +0.002 A 
ATOM     13  C   UNL     1       1.758   2.412   7.379  0.00  0.00    +0.000 A 
ATOM     14  C   UNL     1       2.985   1.937   6.911  0.00  0.00    +0.002 A 
ATOM     15  C   UNL     1       3.326   2.087   5.567  0.00  0.00    +0.027 A 
ENDBRANCH   7  10
ENDBRANCH   6   7
ENDBRANCH   5   6
ENDBRANCH   1   5
BRANCH   1  16
ATOM     16  C   UNL     1       2.601   0.088  -1.443  0.00  0.00    +0.023 C 
BRANCH  16  17
ATOM     17  C   UNL     1       2.151  -1.151  -2.231  0.00  0.00    +0.036 C 
BRANCH  17  18
ATOM     18  C   UNL     1       2.632  -1.102  -3.663  0.00  0.00    -0.047 A 
ATOM     19  C   UNL     1       1.882  -0.429  -4.637  0.00  0.00    +0.003 A 
ATOM     20  C   UNL     1       2.334  -0.356  -5.956  0.00  0.00    +0.000 A 
ATOM     21  C   UNL     1       3.541  -0.952  -6.313  0.00  0.00    +0.000 A 
ATOM     22  C   UNL     1       4.295  -1.625  -5.352  0.00  0.00    +0.000 A 
ATOM     23  C   UNL     1       3.845  -1.699  -4.032  0.00  0.00    +0.003 A 
ENDBRANCH  17  18
ENDBRANCH  16  17
ENDBRANCH   1  16
TORSDOF 8
