REMARK  Name = 
REMARK  8 active torsions:
REMARK  status: ('A' for Active; 'I' for Inactive)
REMARK    1  A    between atoms: O_1  and  C_2
REMARK    2  A    between atoms: C_2  and  C_4
REMARK    3  A    between atoms: C_4  and  C_5
REMARK    4  A    between atoms: C_5  and  C_7
REMARK    5  A    between atoms: C_5  and  C_10
REMARK    6  A    between atoms: C_7  and  O_8
REMARK    7  A    between atoms: C_10  and  C_12
REMARK    8  A    between atoms: C_12  and  O_13
REMARK                            x       y       z     vdW  Elec       q    Type
REMARK                         _______ _______ _______ _____ _____    ______ ____
ROOT
ATOM      1  C   UNL     1       4.732  -0.807   0.630  0.00  0.00    +0.186 C 
ENDROOT
BRANCH   1   2
ATOM      2  C   UNL     1       5.459  -2.062   1.038  0.00  0.00    +0.253 C 
ATOM      3  O   UNL     1       4.948  -3.129   1.363  0.00  0.00    -0.284 OA
BRANCH   2   4
ATOM      4  C   UNL     1       6.978  -2.011   0.996  0.00  0.00    +0.373 C 
ATOM      5  O   UNL     1       7.569  -1.024   0.593  0.00  0.00    -0.242 OA
BRANCH   4   6
ATOM      6  O   UNL     1       7.524  -3.156   1.425  0.00  0.00    -0.475 OA
ATOM      7  H   UNL     1       6.816  -3.806   1.656  0.00  0.00    +0.295 HD
ENDBRANCH   4   6
ENDBRANCH   2   4
ENDBRANCH   1   2
BRANCH   1   8
ATOM      8  C   UNL     1       5.052   0.344   1.546  0.00  0.00    +0.316 C 
ATOM      9  O   UNL     1       4.329   0.646   2.490  0.00  0.00    -0.250 OA
BRANCH   8  10
ATOM     10  O   UNL     1       6.157   1.046   1.243  0.00  0.00    -0.480 OA
ATOM     11  H   UNL     1       6.765   0.658   0.568  0.00  0.00    +0.295 HD
ENDBRANCH   8  10
ENDBRANCH   1   8
BRANCH   1  12
ATOM     12  C   UNL     1       3.222  -1.065   0.668  0.00  0.00    +0.143 C 
BRANCH  12  13
ATOM     13  C   UNL     1       2.449   0.118   0.154  0.00  0.00    +0.306 C 
ATOM     14  O   UNL     1       2.183   0.275  -1.027  0.00  0.00    -0.251 OA
BRANCH  13  15
ATOM     15  O   UNL     1       2.117   1.020   1.099  0.00  0.00    -0.481 OA
ATOM     16  H   UNL     1       2.537   0.874   1.980  0.00  0.00    +0.295 HD
ENDBRANCH  13  15
ENDBRANCH  12  13
ENDBRANCH   1  12
TORSDOF 8
