REMARK  Name = 
REMARK  24 active torsions:
REMARK  status: ('A' for Active; 'I' for Inactive)
REMARK    1  A    between atoms: C_1  and  N_2
REMARK    2  A    between atoms: N_2  and  CA_3
REMARK    3  A    between atoms: CA_3  and  CB_5
REMARK    4  A    between atoms: CA_3  and  C_9
REMARK    5  A    between atoms: CB_5  and  CG_6
REMARK    6  A    between atoms: CG_6  and  CD1_7
REMARK    7  A    between atoms: CG_6  and  CD2_8
REMARK    8  A    between atoms: N_11  and  C_12
REMARK    9  A    between atoms: C_14  and  O_16
REMARK   10  A    between atoms: C_35  and  O_37
REMARK   11  A    between atoms: O_37  and  C_38
REMARK   12  A    between atoms: C_41  and  C_42
REMARK   13  A    between atoms: C_41  and  N_43
REMARK   14  A    between atoms: C_44  and  O_45
REMARK   15  A    between atoms: C_44  and  O_46
REMARK   16  A    between atoms: C_47  and  C_49
REMARK   17  A    between atoms: CA_66  and  CB_68
REMARK   18  A    between atoms: CB_68  and  CG_69
REMARK   19  A    between atoms: C_78  and  O_79
REMARK   20  A    between atoms: C_83  and  O_84
REMARK   21  A    between atoms: C_86  and  O_87
REMARK   22  A    between atoms: C_90  and  C_95
REMARK   23  A    between atoms: C_95  and  O_96
REMARK   24  A    between atoms: C_98  and  O_99
REMARK                            x       y       z     vdW  Elec       q    Type
REMARK                         _______ _______ _______ _____ _____    ______ ____
ROOT
ATOM      1  C   UNK A   2       6.505  -1.810  -2.766  0.00  0.00    +0.192 C 
ATOM      2  C   UNK A   2       7.702  -1.756  -4.099  0.00  0.00    +0.237 C 
ATOM      3  O   UNK A   2       7.449  -2.394  -5.132  0.00  0.00    -0.274 OA
ATOM      4  N   ASN A   3       8.959  -1.136  -4.096  0.00  0.00    -0.302 N 
ATOM      5  H   ASN A   3       8.977  -0.202  -3.688  0.00  0.00    +0.150 HD
ATOM      6  CA  ASN A   3      10.244  -1.487  -5.041  0.00  0.00    +0.168 C 
ATOM      7  C   ASN A   3      11.017  -3.020  -5.341  0.00  0.00    +0.235 C 
ATOM      8  O   ASN A   3      12.252  -2.792  -5.316  0.00  0.00    -0.274 OA
ATOM      9  N   UNK A   4      10.504  -4.422  -5.824  0.00  0.00    -0.299 N 
ATOM     10  H   UNK A   4      11.009  -4.469  -6.712  0.00  0.00    +0.150 HD
ATOM     11  C   UNK A   4      11.075  -6.067  -5.177  0.00  0.00    +0.190 C 
ATOM     12  C   UNK A   4      12.002  -4.965  -4.020  0.00  0.00    -0.011 A 
ATOM     13  C   UNK A   4      13.341  -4.772  -3.987  0.00  0.00    +0.056 A 
ATOM     14  C   UNK A   4      13.794  -6.004  -4.048  0.00  0.00    +0.174 A 
ATOM     15  C   UNK A   4      12.965  -6.732  -3.033  0.00  0.00    +0.202 A 
ATOM     16  C   UNK A   4      11.832  -6.084  -2.340  0.00  0.00    +0.174 A 
ATOM     17  O   UNK A   4      10.773  -6.520  -1.568  0.00  0.00    -0.451 OA
ATOM     18  C   UNK A   4       9.493  -5.879  -1.725  0.00  0.00    +0.147 A 
ATOM     19  C   UNK A   4       8.442  -6.096  -0.845  0.00  0.00    +0.083 A 
ATOM     20 CL   UNK A   4       8.634  -7.149   0.499  0.00  0.00    -0.080 Cl
ATOM     21  C   UNK A   2       7.194  -5.390  -0.998  0.00  0.00    +0.030 A 
ATOM     22  C   UNK A   2       6.981  -4.456  -2.039  0.00  0.00    -0.015 A 
ATOM     23  C   UNK A   2       7.862  -4.553  -3.052  0.00  0.00    +0.010 A 
ATOM     24  C   UNK A   4       9.111  -5.056  -2.795  0.00  0.00    +0.048 A 
ATOM     25  O   UNK A   4      13.545  -5.923  -5.511  0.00  0.00    -0.451 OA
ATOM     26  C   UNK A   4      14.230  -6.496  -6.551  0.00  0.00    +0.147 A 
ATOM     27  C   UNK A   4      13.304  -7.210  -7.261  0.00  0.00    +0.083 A 
ATOM     28 CL   UNK A   4      11.995  -6.438  -8.108  0.00  0.00    -0.080 Cl
ATOM     29  C   UNK A   4      13.189  -8.528  -6.835  0.00  0.00    +0.030 A 
ATOM     30  C   UNK A   4      14.000  -9.003  -5.747  0.00  0.00    -0.015 A 
ATOM     31  C   UNK A   4      13.764 -10.103  -4.499  0.00  0.00    +0.180 C 
ATOM     32  C   UNK A   4      12.294 -10.250  -3.519  0.00  0.00    +0.192 C 
ATOM     33  C   UNK A   4      11.342 -10.128  -2.111  0.00  0.00    +0.237 C 
ATOM     34  O   ACE A   6      11.716  -9.592  -1.095  0.00  0.00    -0.274 OA
ATOM     35  N   UNK A   7       9.828 -10.413  -2.208  0.00  0.00    -0.297 N 
ATOM     36  H   UNK A   7       9.446 -10.112  -3.120  0.00  0.00    +0.150 HD
ATOM     37  C   UNK A   7       9.297 -11.811  -1.791  0.00  0.00    +0.213 C 
ATOM     38  C   UNK A   7       7.807 -12.439  -2.112  0.00  0.00    -0.002 A 
ATOM     39  C   UNK A   7       7.615 -13.853  -2.459  0.00  0.00    +0.033 A 
ATOM     40  C   UNK A   7       6.486 -14.540  -1.890  0.00  0.00    +0.128 A 
ATOM     41  C   UNK A   7       5.503 -13.854  -1.175  0.00  0.00    +0.091 A 
ATOM     42  C   UNK A   7       5.570 -12.471  -1.120  0.00  0.00    +0.121 A 
ATOM     43  C   UNK A   7       8.533 -14.411  -3.519  0.00  0.00    +0.028 A 
ATOM     44  C   UNK A   7       8.942 -13.417  -4.552  0.00  0.00    +0.018 A 
ATOM     45  C   UNK A   7      10.177 -13.304  -5.272  0.00  0.00    -0.018 A 
ATOM     46  C   UNK A   7      10.858 -14.602  -5.072  0.00  0.00    +0.009 A 
ATOM     47  C   UNK A   7      10.275 -15.780  -4.278  0.00  0.00    +0.046 A 
ATOM     48  C   UNK A   7      10.648 -11.603  -6.016  0.00  0.00    +0.190 C 
ATOM     49  N   UNK A   7      10.943  -9.673  -5.823  0.00  0.00    -0.299 N 
ATOM     50  H   ACE A   5      11.901  -9.734  -5.979  0.00  0.00    +0.150 HD
ATOM     51  C   UNK A   7      10.588 -11.273  -4.622  0.00  0.00    +0.239 C 
ATOM     52  O   ACE A   5       9.552 -10.766  -4.314  0.00  0.00    -0.273 OA
ATOM     53  C   UNK A   7       9.119 -15.673  -3.503  0.00  0.00    +0.125 A 
ATOM     54  C   UNK A   7       6.676 -11.764  -1.615  0.00  0.00    +0.052 A 
ATOM     55  N   UNK A   4      11.711 -11.480  -3.895  0.00  0.00    -0.300 N 
ATOM     56  H   UNK A   4      12.343 -12.277  -4.030  0.00  0.00    +0.150 HD
ATOM     57  C   UNK A   4      15.266  -8.388  -5.779  0.00  0.00    +0.010 A 
ATOM     58  C   UNK A   4      15.407  -7.104  -6.274  0.00  0.00    +0.048 A 
ATOM     59  C   UNK A   4      11.762  -4.836  -2.738  0.00  0.00    +0.056 A 
ATOM     60  C   UNK A   4      10.504  -8.040  -5.236  0.00  0.00    +0.239 C 
ATOM     61  O   UNK A   4       9.336  -8.181  -4.777  0.00  0.00    -0.273 OA
ATOM     62  C   UNK A   2       5.961  -3.348  -2.221  0.00  0.00    +0.174 C 
ENDROOT
BRANCH   1  64
ATOM     63  C   LEU A   1       4.992  -0.322  -1.318  0.00  0.00    +0.231 C 
ATOM     64  N   UNK A   2       6.288  -0.863  -1.552  0.00  0.00    -0.300 N 
ATOM     65  H   UNK A   2       6.600  -1.319  -0.700  0.00  0.00    +0.150 HD
ATOM     66  O   LEU A   1       4.126  -0.346  -2.201  0.00  0.00    -0.274 OA
BRANCH  63  67
ATOM     67  CA  LEU A   1       4.593   0.213   0.163  0.00  0.00    +0.140 C 
BRANCH  67  69
ATOM     68  C   ACE A   0       3.603   2.379  -0.549  0.00  0.00    +0.101 C 
ATOM     69  N   LEU A   1       3.375   1.087   0.090  0.00  0.00    -0.309 NA
ATOM     70  H   LEU A   1       2.655   0.585  -0.435  0.00  0.00    +0.122 HD
ENDBRANCH  67  69
BRANCH  67  71
ATOM     71  CB  LEU A   1       5.695   0.904   0.994  0.00  0.00    +0.031 C 
BRANCH  71  72
ATOM     72  CG  LEU A   1       5.244   1.606   2.320  0.00  0.00    -0.015 C 
ATOM     73  CD2 LEU A   1       6.430   2.339   2.958  0.00  0.00    +0.007 C 
ATOM     74  CD1 LEU A   1       4.609   0.660   3.342  0.00  0.00    +0.007 C 
ENDBRANCH  71  72
ENDBRANCH  67  71
ENDBRANCH  63  67
ENDBRANCH   1  64
BRANCH  62  75
ATOM     75  O   UNK A   2       5.346  -3.187  -0.919  0.00  0.00    -0.385 OA
ATOM     76  H   UNK A   2       5.015  -4.061  -0.645  0.00  0.00    +0.210 HD
ENDBRANCH  62  75
BRANCH  53  77
ATOM     77  O   UNK A   7       8.612 -16.689  -2.725  0.00  0.00    -0.506 OA
ATOM     78  H   UNK A   7       8.865 -17.596  -3.000  0.00  0.00    +0.292 HD
ENDBRANCH  53  77
BRANCH  42  79
ATOM     79  O   UNK A   7       4.585 -11.753  -0.502  0.00  0.00    -0.507 OA
ATOM     80  H   UNK A   7       4.006 -12.368  -0.020  0.00  0.00    +0.292 HD
ENDBRANCH  42  79
BRANCH  40  81
ATOM     81  O   UNK A   7       6.230 -15.889  -1.954  0.00  0.00    -0.506 OA
ATOM     82  H   UNK A   7       7.069 -16.352  -2.133  0.00  0.00    +0.292 HD
ENDBRANCH  40  81
BRANCH  37  83
ATOM     83  C   UNK A   7       9.319 -11.509  -0.258  0.00  0.00    +0.330 C 
ATOM     84  O   UNK A   7       9.552 -12.396   0.537  0.00  0.00    -0.249 OA
BRANCH  83  85
ATOM     85  O   UNK A   7       8.791 -10.323   0.019  0.00  0.00    -0.479 OA
ATOM     86  H   UNK A   7       8.810  -9.817  -0.833  0.00  0.00    +0.295 HD
ENDBRANCH  83  85
ENDBRANCH  37  83
BRANCH  15  87
ATOM     87  O   UNK A   4      13.299  -7.990  -2.761  0.00  0.00    -0.501 OA
ATOM     88  H   UNK A   4      14.104  -8.155  -3.284  0.00  0.00    +0.292 HD
ENDBRANCH  15  87
BRANCH  31  89
ATOM     89  O   UNK A   4      14.974  -9.964  -3.697  0.00  0.00    -0.341 OA
BRANCH  89  90
ATOM     90  C   UNK A   4      15.636 -11.175  -3.314  0.00  0.00    +0.254 C 
ATOM     91  O   UNK A   4      15.153 -11.606  -2.049  0.00  0.00    -0.341 OA
ATOM     92  C   UNK A   4      15.690 -10.966  -0.870  0.00  0.00    +0.203 C 
ATOM     93  C   UNK A   4      15.027  -9.624  -0.531  0.00  0.00    +0.046 C 
ATOM     94  C   UNK A   4      17.243 -10.867  -0.853  0.00  0.00    +0.283 C 
ATOM     95  C   UNK A   4      17.783 -10.228  -2.186  0.00  0.00    +0.098 C 
ATOM     96  C   UNK A   4      19.335 -10.215  -2.150  0.00  0.00    +0.036 C 
ATOM     97  C   UNK A   4      17.197 -11.073  -3.348  0.00  0.00    +0.090 C 
BRANCH  95  98
ATOM     98  N   UNK A   4      17.411  -8.818  -2.436  0.00  0.00    -0.319 NA
ATOM     99  H   UNK A   4      16.470  -8.782  -2.833  0.00  0.00    +0.119 HD
ATOM    100  H   UNK A   4      17.362  -8.292  -1.565  0.00  0.00    +0.119 HD
ENDBRANCH  95  98
BRANCH  94 101
ATOM    101  O   UNK A   4      17.633 -10.143   0.308  0.00  0.00    -0.502 OA
ATOM    102  H   UNK A   4      18.189  -9.397   0.042  0.00  0.00    +0.288 HD
ENDBRANCH  94 101
BRANCH  94 103
ATOM    103  O   UNK A   4      17.836 -12.164  -0.726  0.00  0.00    -0.502 OA
ATOM    104  H   UNK A   4      17.328 -12.791  -1.265  0.00  0.00    +0.288 HD
ENDBRANCH  94 103
ENDBRANCH  89  90
ENDBRANCH  31  89
BRANCH   6 105
ATOM    105  CB  ASN A   3      10.970  -0.273  -6.006  0.00  0.00    +0.127 C 
BRANCH 105 106
ATOM    106  CG  ASN A   3      12.515   0.177  -6.019  0.00  0.00    +0.213 C 
ATOM    107  OD1 ASN A   3      13.004   0.757  -6.997  0.00  0.00    -0.276 OA
ATOM    108  ND2 ASN A   3      13.309   0.140  -4.930  0.00  0.00    -0.329 N 
ATOM    109 HD21 ASN A   3      14.282   0.450  -5.097  0.00  0.00    +0.145 HD
ATOM    110 HD22 ASN A   3      13.229  -0.640  -4.299  0.00  0.00    +0.145 HD
ENDBRANCH 105 106
ENDBRANCH   6 105
TORSDOF 19
