REMARK  Name = 
REMARK  6 active torsions:
REMARK  status: ('A' for Active; 'I' for Inactive)
REMARK    1  A    between atoms: O_1  and  B_2
REMARK    2  A    between atoms: B_2  and  O_3
REMARK    3  A    between atoms: B_2  and  C_4
REMARK    4  A    between atoms: C_4  and  N_5
REMARK    5  A    between atoms: C_6  and  C_8
REMARK    6  A    between atoms: C_8  and  C_9
REMARK                            x       y       z     vdW  Elec       q    Type
REMARK                         _______ _______ _______ _____ _____    ______ ____
ROOT
ATOM      1  N   UNL     1       4.718  -0.314   1.092  0.00  0.00    +0.000 N 
ATOM      2  H   UNL     1       5.098   0.103   0.229  0.00  0.00    +0.000 HD
ATOM      3  C   UNL     1       5.589  -0.731   2.051  0.00  0.00    +0.000 C 
ATOM      4  O   UNL     1       5.173  -1.225   3.094  0.00  0.00    +0.000 OA
ENDROOT
BRANCH   1   5
ATOM      5  C   UNL     1       3.279  -0.442   1.256  0.00  0.00    +0.000 C 
BRANCH   5   6
ATOM      6  B   UNL     1       2.495   0.136  -0.011  0.00  0.00    +0.000 B 
BRANCH   6   7
ATOM      7  O   UNL     1       2.772  -0.422  -1.341  0.00  0.00    +0.000 OA
ATOM      8  H   UNL     1       2.004  -0.188  -1.921  0.00  0.00    +0.000 HD
ENDBRANCH   6   7
BRANCH   6   9
ATOM      9  O   UNL     1       1.563   1.256   0.177  0.00  0.00    +0.000 OA
ATOM     10  H   UNL     1       1.183   1.474  -0.710  0.00  0.00    +0.000 HD
ENDBRANCH   6   9
ENDBRANCH   5   6
ENDBRANCH   1   5
BRANCH   3  11
ATOM     11  C   UNL     1       7.075  -0.585   1.853  0.00  0.00    +0.000 C 
BRANCH  11  12
ATOM     12  C   UNL     1       7.761  -1.915   1.900  0.00  0.00    +0.000 A 
ATOM     13  S   UNL     1       8.955  -2.351   3.002  0.00  0.00    +0.000 S 
ATOM     14  C   UNL     1       9.191  -3.904   2.399  0.00  0.00    +0.000 A 
ATOM     15  C   UNL     1       8.330  -4.097   1.326  0.00  0.00    +0.000 A 
ATOM     16  C   UNL     1       7.529  -2.984   1.044  0.00  0.00    +0.000 A 
ENDBRANCH  11  12
ENDBRANCH   3  11
TORSDOF 6
