REMARK  Name = 
REMARK  9 active torsions:
REMARK  status: ('A' for Active; 'I' for Inactive)
REMARK    1  A    between atoms: C_1  and  C_2
REMARK    2  A    between atoms: C_2  and  C_4
REMARK    3  A    between atoms: C_2  and  C_11
REMARK    4  A    between atoms: C_4  and  C_5
REMARK    5  A    between atoms: C_5  and  C_6
REMARK    6  A    between atoms: C_6  and  C_7
REMARK    7  A    between atoms: C_7  and  C_8
REMARK    8  A    between atoms: C_7  and  C_9
REMARK    9  A    between atoms: C_7  and  O_10
REMARK                            x       y       z     vdW  Elec       q    Type
REMARK                         _______ _______ _______ _____ _____    ______ ____
ROOT
ATOM      1  C   UNL     1       2.506   1.231   2.237  0.00  0.00    +0.003 C 
ENDROOT
BRANCH   1   2
ATOM      2  C   UNL     1       2.978  -0.034   1.515  0.00  0.00    +0.007 C 
BRANCH   2   4
ATOM      3  C   UNL     1       0.955  -0.128  -0.043  0.00  0.00    +0.012 C 
ATOM      4  C   UNL     1       2.483  -0.087   0.054  0.00  0.00    +0.008 C 
BRANCH   4   5
ATOM      5  C   UNL     1       3.059  -1.293  -0.650  0.00  0.00    -0.031 C 
ATOM      6  C   UNL     1       3.873  -1.219  -1.711  0.00  0.00    +0.004 C 
ENDBRANCH   4   5
ENDBRANCH   2   4
ENDBRANCH   1   2
BRANCH   1   7
ATOM      7  C   UNL     1       3.026   1.317   3.673  0.00  0.00    +0.034 C 
BRANCH   7   8
ATOM      8  C   UNL     1       2.553   2.570   4.444  0.00  0.00    +0.061 C 
ATOM      9  C   UNL     1       1.033   2.598   4.626  0.00  0.00    +0.041 C 
ATOM     10  C   UNL     1       3.027   3.870   3.790  0.00  0.00    +0.041 C 
BRANCH   8  11
ATOM     11  O   UNL     1       3.118   2.508   5.760  0.00  0.00    -0.389 OA
ATOM     12  H   UNL     1       4.086   2.529   5.672  0.00  0.00    +0.210 HD
ENDBRANCH   8  11
ENDBRANCH   7   8
ENDBRANCH   1   7
TORSDOF 6
