REMARK  Name = 
REMARK  9 active torsions:
REMARK  status: ('A' for Active; 'I' for Inactive)
REMARK    1  A    between atoms: O_1  and  C_2
REMARK    2  A    between atoms: C_5  and  C_7
REMARK    3  A    between atoms: C_7  and  O_8
REMARK    4  A    between atoms: O_8  and  P_9
REMARK    5  A    between atoms: P_9  and  O_10
REMARK    6  A    between atoms: P_9  and  O_11
REMARK    7  A    between atoms: C_13  and  O_15
REMARK    8  A    between atoms: C_16  and  O_18
REMARK    9  A    between atoms: C_19  and  O_21
REMARK                            x       y       z     vdW  Elec       q    Type
REMARK                         _______ _______ _______ _____ _____    ______ ____
ROOT
ATOM      1  C   UNL     1       2.597   0.195   0.088  0.00  0.00    +0.279 C 
ATOM      2  C   UNL     1       3.103   1.329  -0.836  0.00  0.00    +0.201 C 
ATOM      3  C   UNL     1       2.695   1.051  -2.294  0.00  0.00    +0.179 C 
ATOM      4  C   UNL     1       3.124  -0.371  -2.700  0.00  0.00    +0.177 C 
ATOM      5  C   UNL     1       2.568  -1.426  -1.731  0.00  0.00    +0.179 C 
ATOM      6  O   UNL     1       2.907  -1.116  -0.370  0.00  0.00    -0.341 OA
ENDROOT
BRANCH   1   7
ATOM      7  O   UNL     1       1.196   0.308   0.256  0.00  0.00    -0.365 OA
ATOM      8  H   UNL     1       1.019  -0.115   1.115  0.00  0.00    +0.213 HD
ENDBRANCH   1   7
BRANCH   2   9
ATOM      9  O   UNL     1       4.518   1.516  -0.704  0.00  0.00    -0.384 OA
ATOM     10  H   UNL     1       4.945   0.947  -1.385  0.00  0.00    +0.210 HD
ENDBRANCH   2   9
BRANCH   3  11
ATOM     11  O   UNL     1       1.299   1.246  -2.509  0.00  0.00    -0.386 OA
ATOM     12  H   UNL     1       0.853   1.236  -1.644  0.00  0.00    +0.210 HD
ENDBRANCH   3  11
BRANCH   4  13
ATOM     13  O   UNL     1       4.568  -0.414  -2.668  0.00  0.00    -0.386 OA
ATOM     14  H   UNL     1       4.829  -1.327  -2.895  0.00  0.00    +0.210 HD
ENDBRANCH   4  13
BRANCH   5  15
ATOM     15  C   UNL     1       1.066  -1.742  -1.900  0.00  0.00    +0.206 C 
BRANCH  15  16
ATOM     16  O   UNL     1       0.788  -2.053  -3.257  0.00  0.00    -0.284 OA
BRANCH  16  17
ATOM     17  P   UNL     1      -0.861  -2.437  -3.612  0.00  0.00    +0.472 P 
ATOM     18  O   UNL     1      -2.336  -2.782  -3.931  0.00  0.00    -0.228 OA
BRANCH  17  19
ATOM     19  O   UNL     1      -0.597  -3.894  -2.923  0.00  0.00    -0.303 OA
ATOM     20  H   UNL     1      -1.398  -4.424  -3.109  0.00  0.00    +0.222 HD
ENDBRANCH  17  19
BRANCH  17  21
ATOM     21  O   UNL     1      -0.349  -2.791  -5.122  0.00  0.00    -0.303 OA
ATOM     22  H   UNL     1      -0.626  -2.094  -5.743  0.00  0.00    +0.222 HD
ENDBRANCH  17  21
ENDBRANCH  16  17
ENDBRANCH  15  16
ENDBRANCH   5  15
TORSDOF 9
