REMARK  Name = 
REMARK  10 active torsions:
REMARK  status: ('A' for Active; 'I' for Inactive)
REMARK    1  A    between atoms: C_1  and  C_2
REMARK    2  A    between atoms: C_7  and  C_8
REMARK    3  A    between atoms: N_9  and  C_12
REMARK    4  A    between atoms: C_15  and  C_17
REMARK    5  A    between atoms: C_17  and  O_18
REMARK    6  A    between atoms: O_18  and  P_19
REMARK    7  A    between atoms: P_19  and  O_20
REMARK    8  A    between atoms: P_19  and  O_21
REMARK    9  A    between atoms: C_23  and  O_25
REMARK   10  A    between atoms: C_26  and  O_28
REMARK                            x       y       z     vdW  Elec       q    Type
REMARK                         _______ _______ _______ _____ _____    ______ ____
ROOT
ATOM      1  C   UNL     1       7.640   1.030  -0.025  0.00  0.00    +0.252 C 
ATOM      2  C   UNL     1       8.574   0.517   1.083  0.00  0.00    +0.195 C 
ATOM      3  C   UNL     1       9.182   1.773   1.714  0.00  0.00    +0.178 C 
ATOM      4  C   UNL     1       8.633   2.914   0.860  0.00  0.00    +0.178 C 
ATOM      5  O   UNL     1       7.414   2.427   0.279  0.00  0.00    -0.346 OA
ENDROOT
BRANCH   1  12
ATOM      6  C   UNL     1       9.683  -3.264  -4.866  0.00  0.00    +0.044 C 
ATOM      7  C   UNL     1       9.234  -2.245  -3.854  0.00  0.00    -0.045 A 
ATOM      8  C   UNL     1       8.749  -2.624  -2.584  0.00  0.00    -0.045 A 
ATOM      9  C   UNL     1       8.648  -4.080  -2.205  0.00  0.00    +0.044 C 
ATOM     10  C   UNL     1       8.346  -1.650  -1.646  0.00  0.00    +0.031 A 
ATOM     11  C   UNL     1       8.434  -0.303  -2.022  0.00  0.00    +0.071 A 
ATOM     12  N   UNL     1       8.151   0.885  -1.382  0.00  0.00    -0.301 N 
ATOM     13  C   UNL     1       8.355   1.895  -2.285  0.00  0.00    +0.202 A 
ATOM     14  N   UNL     1       8.837   1.451  -3.421  0.00  0.00    -0.236 NA
ATOM     15  C   UNL     1       8.886   0.089  -3.278  0.00  0.00    +0.089 A 
ATOM     16  C   UNL     1       9.298  -0.881  -4.200  0.00  0.00    +0.033 A 
ENDBRANCH   1  12
BRANCH   2  17
ATOM     17  O   UNL     1       7.812  -0.204   2.075  0.00  0.00    -0.385 OA
ATOM     18  H   UNL     1       7.127   0.392   2.437  0.00  0.00    +0.210 HD
ENDBRANCH   2  17
BRANCH   3  19
ATOM     19  O   UNL     1      10.604   1.721   1.668  0.00  0.00    -0.386 OA
ATOM     20  H   UNL     1      10.948   2.507   2.132  0.00  0.00    +0.210 HD
ENDBRANCH   3  19
BRANCH   4  21
ATOM     21  C   UNL     1       8.367   4.190   1.645  0.00  0.00    +0.206 C 
BRANCH  21  22
ATOM     22  O   UNL     1       9.605   4.734   2.055  0.00  0.00    -0.284 OA
BRANCH  22  23
ATOM     23  P   UNL     1       9.590   5.779   3.261  0.00  0.00    +0.472 P 
ATOM     24  O   UNL     1       8.665   6.935   3.119  0.00  0.00    -0.228 OA
BRANCH  23  25
ATOM     25  O   UNL     1      11.124   6.160   3.463  0.00  0.00    -0.303 OA
ATOM     26  H   UNL     1      11.439   6.782   2.780  0.00  0.00    +0.222 HD
ENDBRANCH  23  25
BRANCH  23  27
ATOM     27  O   UNL     1       9.271   4.861   4.525  0.00  0.00    -0.303 OA
ATOM     28  H   UNL     1       8.374   5.029   4.864  0.00  0.00    +0.222 HD
ENDBRANCH  23  27
ENDBRANCH  22  23
ENDBRANCH  21  22
ENDBRANCH   4  21
TORSDOF 8
