REMARK  Name = 
REMARK  12 active torsions:
REMARK  status: ('A' for Active; 'I' for Inactive)
REMARK    1  A    between atoms: O_1  and  C_2
REMARK    2  A    between atoms: C_2  and  C_3
REMARK    3  A    between atoms: C_6  and  O_8
REMARK    4  A    between atoms: C_9  and  N_11
REMARK    5  A    between atoms: N_11  and  S_12
REMARK    6  A    between atoms: C_16  and  O_18
REMARK    7  A    between atoms: C_19  and  O_21
REMARK    8  A    between atoms: O_21  and  C_22
REMARK    9  A    between atoms: C_25  and  C_37
REMARK   10  A    between atoms: C_27  and  O_29
REMARK   11  A    between atoms: C_30  and  O_32
REMARK   12  A    between atoms: O_32  and  S_33
REMARK                            x       y       z     vdW  Elec       q    Type
REMARK                         _______ _______ _______ _____ _____    ______ ____
ROOT
ATOM      1  C   UNL     1       0.818   4.000   0.489  0.00  0.00    +0.178 C 
ATOM      2  C   UNL     1       0.663   2.504   0.125  0.00  0.00    +0.184 C 
ATOM      3  C   UNL     1       0.765   2.350  -1.422  0.00  0.00    +0.169 C 
ATOM      4  C   UNL     1      -0.097   3.382  -2.161  0.00  0.00    +0.162 C 
ATOM      5  C   UNL     1       0.111   4.804  -1.626  0.00  0.00    +0.269 C 
ATOM      6  O   UNL     1      -0.107   4.848  -0.222  0.00  0.00    -0.342 OA
ENDROOT
BRANCH   3   7
ATOM      7  O   UNL     1       0.304   1.085  -1.938  0.00  0.00    -0.387 OA
ATOM      8  H   UNL     1       1.094   0.500  -2.075  0.00  0.00    +0.210 HD
ENDBRANCH   3   7
BRANCH   4   9
ATOM      9  N   UNL     1       0.042   3.223  -3.656  0.00  0.00    -0.193 NA
ATOM     10  H   UNL     1      -0.090   2.232  -3.878  0.00  0.00    +0.147 HD
BRANCH   9  11
ATOM     11  S   UNL     1       1.459   3.712  -4.436  0.00  0.00    -0.016 S 
ATOM     12  O   UNL     1       1.553   5.135  -4.144  0.00  0.00    -0.169 OA
ATOM     13  O   UNL     1       1.158   3.394  -5.828  0.00  0.00    -0.169 OA
ATOM     14  O   UNL     1       2.503   2.901  -3.835  0.00  0.00    -0.710 OA
ENDBRANCH   9  11
ENDBRANCH   4   9
BRANCH   5  15
ATOM     15  O   UNL     1      -0.842   5.671  -2.233  0.00  0.00    -0.366 OA
ATOM     16  H   UNL     1      -0.384   6.513  -2.377  0.00  0.00    +0.213 HD
ENDBRANCH   5  15
BRANCH   1  17
ATOM     17  C   UNL     1       0.597   4.272   1.984  0.00  0.00    +0.190 C 
BRANCH  17  18
ATOM     18  O   UNL     1       0.823   5.671   2.237  0.00  0.00    -0.392 OA
ATOM     19  H   UNL     1       0.303   6.128   1.550  0.00  0.00    +0.210 HD
ENDBRANCH  17  18
ENDBRANCH   1  17
BRANCH   2  20
ATOM     20  O   UNL     1       1.736   1.818   0.813  0.00  0.00    -0.331 OA
BRANCH  20  21
ATOM     21  C   UNL     1       1.621   0.386   0.749  0.00  0.00    +0.342 C 
ATOM     22  C   UNL     1       2.951  -0.300   1.116  0.00  0.00    +0.248 C 
ATOM     23  C   UNL     1       2.952  -0.899   2.528  0.00  0.00    +0.178 C 
ATOM     24  C   UNL     1       1.612  -1.165   3.106  0.00  0.00    +0.054 C 
ATOM     25  C   UNL     1       0.470  -0.747   2.548  0.00  0.00    +0.145 C 
ATOM     26  O   UNL     1       0.424  -0.052   1.371  0.00  0.00    -0.459 OA
BRANCH  25  27
ATOM     27  C   UNL     1      -0.923  -1.006   3.230  0.00  0.00    +0.106 C 
ATOM     28  O   UNL     1      -0.936  -1.891   4.138  0.00  0.00    -0.542 OA
ATOM     29  O   UNL     1      -1.878  -0.279   2.821  0.00  0.00    -0.542 OA
ENDBRANCH  25  27
BRANCH  23  30
ATOM     30  O   UNL     1       3.702  -2.121   2.575  0.00  0.00    -0.385 OA
ATOM     31  H   UNL     1       3.555  -2.527   1.695  0.00  0.00    +0.210 HD
ENDBRANCH  23  30
BRANCH  22  32
ATOM     32  O   UNL     1       3.246  -1.353   0.171  0.00  0.00    -0.242 OA
BRANCH  32  33
ATOM     33  S   UNL     1       3.815  -0.940  -1.308  0.00  0.00    -0.000 S 
ATOM     34  O   UNL     1       4.763   0.137  -1.050  0.00  0.00    -0.345 OA
ATOM     35  O   UNL     1       2.624  -0.519  -2.045  0.00  0.00    -0.345 OA
ATOM     36  O   UNL     1       4.421  -2.178  -1.786  0.00  0.00    -0.268 OA
ENDBRANCH  32  33
ENDBRANCH  22  32
ENDBRANCH  20  21
ENDBRANCH   2  20
TORSDOF 12
