REMARK  Name = 
REMARK  7 active torsions:
REMARK  status: ('A' for Active; 'I' for Inactive)
REMARK    1  A    between atoms: O_1  and  N_2
REMARK    2  A    between atoms: N_2  and  C_3
REMARK    3  A    between atoms: C_3  and  C_4
REMARK    4  A    between atoms: C_4  and  C_5
REMARK    5  A    between atoms: C_5  and  P_6
REMARK    6  A    between atoms: P_6  and  O_7
REMARK    7  A    between atoms: P_6  and  O_8
REMARK                            x       y       z     vdW  Elec       q    Type
REMARK                         _______ _______ _______ _____ _____    ______ ____
ROOT
ATOM      1  C   UNL     1       2.124  -1.549   1.936  0.00  0.00    +0.033 C 
ENDROOT
BRANCH   1   2
ATOM      2  C   UNL     1       3.131  -0.881   1.005  0.00  0.00    +0.140 C 
BRANCH   2   3
ATOM      3  N   UNL     1       2.452  -0.102  -0.025  0.00  0.00    -0.186 N 
ATOM      4  C   UNL     1       2.833  -0.170  -1.350  0.00  0.00    +0.352 C 
ATOM      5  O   UNL     1       3.456  -1.082  -1.873  0.00  0.00    -0.277 OA
BRANCH   3   6
ATOM      6  O   UNL     1       2.133   1.207   0.400  0.00  0.00    -0.293 OA
ATOM      7  H   UNL     1       1.171   1.157   0.511  0.00  0.00    +0.242 HD
ENDBRANCH   3   6
ENDBRANCH   2   3
ENDBRANCH   1   2
BRANCH   1   8
ATOM      8  C   UNL     1       2.822  -2.323   3.042  0.00  0.00    +0.128 C 
BRANCH   8   9
ATOM      9  P   UNL     1       1.635  -3.198   4.126  0.00  0.00    +0.328 P 
ATOM     10  O   UNL     1       0.631  -3.939   5.043  0.00  0.00    -0.259 OA
BRANCH   9  11
ATOM     11  O   UNL     1       1.475  -1.754   4.890  0.00  0.00    -0.324 OA
ATOM     12  H   UNL     1       0.599  -1.664   5.307  0.00  0.00    +0.220 HD
ENDBRANCH   9  11
BRANCH   9  13
ATOM     13  O   UNL     1       2.918  -3.786   4.957  0.00  0.00    -0.324 OA
ATOM     14  H   UNL     1       2.566  -4.256   5.739  0.00  0.00    +0.220 HD
ENDBRANCH   9  13
ENDBRANCH   8   9
ENDBRANCH   1   8
TORSDOF 7
