REMARK  Name = 
REMARK  8 active torsions:
REMARK  status: ('A' for Active; 'I' for Inactive)
REMARK    1  A    between atoms: C_1  and  C_2
REMARK    2  A    between atoms: C_3  and  C_4
REMARK    3  A    between atoms: C_4  and  C_5
REMARK    4  A    between atoms: C_5  and  O_6
REMARK    5  A    between atoms: O_6  and  P_7
REMARK    6  A    between atoms: N_13  and  C_14
REMARK    7  A    between atoms: C_14  and  C_15
REMARK    8  A    between atoms: C_18  and  C_22
REMARK                            x       y       z     vdW  Elec       q    Type
REMARK                         _______ _______ _______ _____ _____    ______ ____
ROOT
ATOM      1  C   UNL     1       2.771   2.589   0.080  0.00  0.00    +0.399 C 
ENDROOT
BRANCH   1   2
ATOM      2  C   UNL     1       2.579   3.344   1.350  0.00  0.00    +0.075 A 
ATOM      3  C   UNL     1       3.607   3.816   2.144  0.00  0.00    +0.129 A 
ATOM      4  N   UNL     1       4.922   3.877   1.675  0.00  0.00    -0.343 N 
ATOM      5  H   UNL     1       5.004   4.599   0.964  0.00  0.00    +0.144 HD
ATOM      6  H   UNL     1       5.472   4.186   2.485  0.00  0.00    +0.144 HD
ATOM      7  N   UNL     1       3.420   4.328   3.366  0.00  0.00    -0.209 NA
ATOM      8  C   UNL     1       2.141   4.433   3.813  0.00  0.00    +0.236 A 
ATOM      9  N   UNL     1       1.074   4.199   3.018  0.00  0.00    -0.232 NA
ATOM     10  C   UNL     1       1.315   3.631   1.828  0.00  0.00    +0.126 A 
BRANCH   8  11
ATOM     11  C   UNL     1       1.896   4.792   5.285  0.00  0.00    +0.452 C 
ATOM     12  F   UNL     1       2.542   5.938   5.666  0.00  0.00    -0.163 F 
ATOM     13  F   UNL     1       2.329   3.828   6.151  0.00  0.00    -0.163 F 
ATOM     14  F   UNL     1       0.582   5.007   5.596  0.00  0.00    -0.163 F 
ENDBRANCH   8  11
ENDBRANCH   1   2
BRANCH   1  17
ATOM     15  C   UNL     1       1.083   0.153   0.350  0.00  0.00    +0.122 C 
ATOM     16  C   UNL     1       2.558   0.068   0.338  0.00  0.00    +0.191 A 
ATOM     17  N   UNL     1       3.321   1.235   0.281  0.00  0.00    -0.190 N 
ATOM     18  C   UNL     1       4.627   1.035   0.279  0.00  0.00    +0.357 A 
ATOM     19  S   UNL     1       5.017  -0.627   0.265  0.00  0.00    -0.027 S 
ATOM     20  C   UNL     1       3.358  -1.070   0.287  0.00  0.00    +0.064 A 
BRANCH  20  21
ATOM     21  C   UNL     1       2.958  -2.526   0.213  0.00  0.00    +0.077 C 
BRANCH  21  22
ATOM     22  C   UNL     1       3.044  -3.261   1.546  0.00  0.00    +0.169 C 
BRANCH  22  23
ATOM     23  O   UNL     1       2.266  -2.617   2.521  0.00  0.00    -0.367 OA
BRANCH  23  24
ATOM     24  P   UNL     1       0.549  -2.717   2.334  0.00  0.00    -0.015 P 
ATOM     25  O   UNL     1      -0.988  -2.806   2.166  0.00  0.00    -0.638 OA
ATOM     26  O   UNL     1       0.572  -1.294   2.934  0.00  0.00    -0.577 OA
ATOM     27  O   UNL     1       0.696  -4.014   3.143  0.00  0.00    -0.577 OA
ENDBRANCH  23  24
ENDBRANCH  22  23
ENDBRANCH  21  22
ENDBRANCH  20  21
ENDBRANCH   1  17
TORSDOF 7
