REMARK  Name = 
REMARK  8 active torsions:
REMARK  status: ('A' for Active; 'I' for Inactive)
REMARK    1  A    between atoms: C_1  and  C_2
REMARK    2  A    between atoms: N_4  and  CA_5
REMARK    3  A    between atoms: CA_5  and  C_7
REMARK    4  A    between atoms: CA_5  and  C_9
REMARK    5  A    between atoms: C_7  and  O_8
REMARK    6  A    between atoms: C_9  and  O_11
REMARK    7  A    between atoms: C_9  and  C_12
REMARK    8  A    between atoms: C_15  and  N_18
REMARK                            x       y       z     vdW  Elec       q    Type
REMARK                         _______ _______ _______ _____ _____    ______ ____
ROOT
ATOM      1  C   UNL     1       5.354   0.230  -2.619  0.00  0.00    +0.167 C 
ENDROOT
BRANCH   1   2
ATOM      2  C   UNL     1       6.868   0.345  -2.655  0.00  0.00    -0.017 A 
ATOM      3  C   UNL     1       7.526   1.368  -1.947  0.00  0.00    +0.013 A 
ATOM      4  C   UNL     1       8.918   1.472  -1.970  0.00  0.00    +0.084 A 
ATOM      5  C   UNL     1       9.665   0.557  -2.718  0.00  0.00    +0.273 A 
ATOM      6  C   UNL     1       9.027  -0.456  -3.444  0.00  0.00    +0.084 A 
ATOM      7  C   UNL     1       7.633  -0.556  -3.411  0.00  0.00    +0.013 A 
BRANCH   5   8
ATOM      8  N   UNL     1      11.130   0.665  -2.747  0.00  0.00    +0.080 N 
ATOM      9  O   UNL     1      11.655   1.570  -2.083  0.00  0.00    +0.041 OA
ATOM     10  O   UNL     1      11.755  -0.162  -3.425  0.00  0.00    -0.576 OA
ENDBRANCH   5   8
ENDBRANCH   1   2
BRANCH   1  11
ATOM     11  O   UNL     1       4.861   1.407  -3.260  0.00  0.00    -0.385 OA
ATOM     12  H   UNL     1       4.090   1.734  -2.757  0.00  0.00    +0.210 HD
ENDBRANCH   1  11
BRANCH   1  13
ATOM     13  CA  UNL     1       4.787   0.027  -1.181  0.00  0.00    +0.131 C 
BRANCH  13  16
ATOM     14  C   UNL     1       1.039   0.775  -1.136  0.00  0.00    +0.109 C 
ATOM     15  C   UNL     1       2.514   1.060  -1.182  0.00  0.00    +0.210 C 
ATOM     16  N   UNL     1       3.313  -0.055  -1.160  0.00  0.00    -0.308 N 
ATOM     17  H   UNL     1       2.890  -0.971  -1.052  0.00  0.00    +0.149 HD
ATOM     18  O   UNL     1       2.972   2.189  -1.306  0.00  0.00    -0.276 OA
ENDBRANCH  13  16
BRANCH  13  19
ATOM     19  C   UNL     1       5.365  -1.240  -0.521  0.00  0.00    +0.181 C 
BRANCH  19  20
ATOM     20  O   UNL     1       4.749  -1.482   0.745  0.00  0.00    -0.393 OA
ATOM     21  H   UNL     1       4.598  -0.620   1.174  0.00  0.00    +0.209 HD
ENDBRANCH  19  20
ENDBRANCH  13  19
ENDBRANCH   1  13
TORSDOF 7
