REMARK  Name = 
REMARK  12 active torsions:
REMARK  status: ('A' for Active; 'I' for Inactive)
REMARK    1  A    between atoms: C_1  and  C_2
REMARK    2  A    between atoms: C_5  and  C_6
REMARK    3  A    between atoms: C_6  and  O_7
REMARK    4  A    between atoms: O_7  and  P_8
REMARK    5  A    between atoms: P_8  and  O_9
REMARK    6  A    between atoms: P_8  and  O_10
REMARK    7  A    between atoms: C_12  and  C_13
REMARK    8  A    between atoms: C_13  and  N_14
REMARK    9  A    between atoms: N_14  and  C_15
REMARK   10  A    between atoms: C_15  and  C_16
REMARK   11  A    between atoms: C_16  and  O_17
REMARK   12  A    between atoms: C_19  and  O_20
REMARK                            x       y       z     vdW  Elec       q    Type
REMARK                         _______ _______ _______ _____ _____    ______ ____
ROOT
ATOM      1  C   UNL     1       0.802   0.127  -0.077  0.00  0.00    +0.069 C 
ATOM      2  C   UNL     1       2.298   0.053  -0.087  0.00  0.00    +0.080 A 
ATOM      3  C   UNL     1       2.963  -1.177  -0.042  0.00  0.00    +0.142 A 
ATOM      4  C   UNL     1       4.369  -1.224  -0.066  0.00  0.00    +0.016 A 
ATOM      5  C   UNL     1       5.055   0.016  -0.075  0.00  0.00    +0.005 A 
ATOM      6  C   UNL     1       4.301   1.188  -0.143  0.00  0.00    +0.117 A 
ATOM      7  N   UNL     1       2.954   1.234  -0.151  0.00  0.00    -0.256 NA
ENDROOT
BRANCH   3   8
ATOM      8  O   UNL     1       2.207  -2.318   0.034  0.00  0.00    -0.505 OA
ATOM      9  H   UNL     1       2.801  -3.085  -0.037  0.00  0.00    +0.292 HD
ENDBRANCH   3   8
BRANCH   4  10
ATOM     10  C   UNL     1       5.106  -2.550  -0.019  0.00  0.00    +0.121 C 
BRANCH  10  11
ATOM     11  N   UNL     1       4.745  -3.452  -1.139  0.00  0.00    -0.303 NA
ATOM     12  H   UNL     1       5.013  -2.953  -1.998  0.00  0.00    +0.123 HD
BRANCH  11  13
ATOM     13  C   UNL     1       5.625  -4.662  -1.056  0.00  0.00    +0.202 C 
BRANCH  13  14
ATOM     14  C   UNL     1       5.327  -5.631  -2.194  0.00  0.00    +0.319 C 
ATOM     15  O   UNL     1       6.066  -6.530  -2.556  0.00  0.00    -0.250 OA
BRANCH  14  16
ATOM     16  O   UNL     1       4.098  -5.415  -2.741  0.00  0.00    -0.480 OA
ATOM     17  H   UNL     1       3.690  -4.654  -2.269  0.00  0.00    +0.295 HD
ENDBRANCH  14  16
ENDBRANCH  13  14
ENDBRANCH  11  13
ENDBRANCH  10  11
ENDBRANCH   4  10
BRANCH   5  18
ATOM     18  C   UNL     1       6.558   0.132  -0.125  0.00  0.00    +0.209 C 
BRANCH  18  19
ATOM     19  O   UNL     1       7.034   1.311   0.537  0.00  0.00    -0.282 OA
BRANCH  19  20
ATOM     20  P   UNL     1       8.745   1.549   0.626  0.00  0.00    +0.473 P 
ATOM     21  O   UNL     1      10.277   1.762   0.706  0.00  0.00    -0.228 OA
BRANCH  20  22
ATOM     22  O   UNL     1       8.849   0.998  -0.909  0.00  0.00    -0.303 OA
ATOM     23  H   UNL     1       9.260   1.671  -1.480  0.00  0.00    +0.222 HD
ENDBRANCH  20  22
BRANCH  20  24
ATOM     24  O   UNL     1       8.820   0.117   1.418  0.00  0.00    -0.303 OA
ATOM     25  H   UNL     1       8.837   0.253   2.381  0.00  0.00    +0.222 HD
ENDBRANCH  20  24
ENDBRANCH  19  20
ENDBRANCH  18  19
ENDBRANCH   5  18
TORSDOF 11
