REMARK  Name = 
REMARK  18 active torsions:
REMARK  status: ('A' for Active; 'I' for Inactive)
REMARK    1  A    between atoms: O_1  and  C_2
REMARK    2  A    between atoms: C_2  and  C_4
REMARK    3  A    between atoms: C_2  and  C_11
REMARK    4  A    between atoms: C_4  and  N_5
REMARK    5  A    between atoms: N_5  and  C_6
REMARK    6  A    between atoms: C_6  and  P_7
REMARK    7  A    between atoms: P_7  and  O_8
REMARK    8  A    between atoms: P_7  and  O_9
REMARK    9  A    between atoms: C_11  and  O_13
REMARK   10  A    between atoms: C_11  and  C_14
REMARK   11  A    between atoms: C_14  and  O_16
REMARK   12  A    between atoms: C_14  and  C_17
REMARK   13  A    between atoms: C_17  and  O_19
REMARK   14  A    between atoms: C_17  and  C_20
REMARK   15  A    between atoms: C_20  and  O_21
REMARK   16  A    between atoms: O_21  and  P_22
REMARK   17  A    between atoms: P_22  and  O_23
REMARK   18  A    between atoms: P_22  and  O_24
REMARK                            x       y       z     vdW  Elec       q    Type
REMARK                         _______ _______ _______ _____ _____    ______ ____
ROOT
ATOM      1  C   UNL     1       4.219   2.642   2.395  0.00  0.00    +0.175 C 
ENDROOT
BRANCH   1   2
ATOM      2  O   UNL     1       5.535   3.253   2.439  0.00  0.00    -0.387 OA
ATOM      3  H   UNL     1       5.581   3.765   3.264  0.00  0.00    +0.210 HD
ENDBRANCH   1   2
BRANCH   1   4
ATOM      4  C   UNL     1       4.228   1.482   3.403  0.00  0.00    +0.176 C 
BRANCH   4   5
ATOM      5  O   UNL     1       4.647   2.037   4.674  0.00  0.00    -0.386 OA
ATOM      6  H   UNL     1       5.619   2.106   4.617  0.00  0.00    +0.210 HD
ENDBRANCH   4   5
BRANCH   4   7
ATOM      7  C   UNL     1       2.902   0.742   3.634  0.00  0.00    +0.172 C 
BRANCH   7   8
ATOM      8  O   UNL     1       2.503   0.038   2.456  0.00  0.00    -0.387 OA
ATOM      9  H   UNL     1       1.697  -0.453   2.700  0.00  0.00    +0.210 HD
ENDBRANCH   7   8
BRANCH   7  10
ATOM     10  C   UNL     1       1.727   1.611   4.117  0.00  0.00    +0.206 C 
BRANCH  10  11
ATOM     11  O   UNL     1       0.665   0.707   4.428  0.00  0.00    -0.284 OA
BRANCH  11  12
ATOM     12  P   UNL     1      -0.835   1.401   4.940  0.00  0.00    +0.472 P 
ATOM     13  O   UNL     1      -2.178   2.022   5.398  0.00  0.00    -0.228 OA
BRANCH  12  14
ATOM     14  O   UNL     1      -1.246   1.532   3.365  0.00  0.00    -0.303 OA
ATOM     15  H   UNL     1      -2.211   1.708   3.377  0.00  0.00    +0.222 HD
ENDBRANCH  12  14
BRANCH  12  16
ATOM     16  O   UNL     1      -1.314  -0.151   5.103  0.00  0.00    -0.303 OA
ATOM     17  H   UNL     1      -1.044  -0.643   4.309  0.00  0.00    +0.222 HD
ENDBRANCH  12  16
ENDBRANCH  11  12
ENDBRANCH  10  11
ENDBRANCH   7  10
ENDBRANCH   4   7
ENDBRANCH   1   4
BRANCH   1  18
ATOM     18  C   UNL     1       3.862   2.332   0.915  0.00  0.00    +0.159 C 
BRANCH  18  19
ATOM     19  O   UNL     1       4.751   1.368   0.352  0.00  0.00    -0.388 OA
ATOM     20  H   UNL     1       4.599   1.389  -0.611  0.00  0.00    +0.210 HD
ENDBRANCH  18  19
BRANCH  18  21
ATOM     21  C   UNL     1       3.976   3.669   0.138  0.00  0.00    +0.115 C 
BRANCH  21  22
ATOM     22  N   UNL     1       3.707   3.660  -1.315  0.00  0.00    -0.303 NA
ATOM     23  H   UNL     1       2.760   3.308  -1.496  0.00  0.00    +0.123 HD
BRANCH  22  24
ATOM     24  C   UNL     1       3.758   5.087  -1.742  0.00  0.00    +0.209 C 
BRANCH  24  25
ATOM     25  P   UNL     1       3.727   5.152  -3.545  0.00  0.00    +0.341 P 
ATOM     26  O   UNL     1       2.465   4.655  -4.166  0.00  0.00    -0.257 OA
BRANCH  25  27
ATOM     27  O   UNL     1       4.146   6.663  -3.896  0.00  0.00    -0.323 OA
ATOM     28  H   UNL     1       4.834   7.059  -3.336  0.00  0.00    +0.220 HD
ENDBRANCH  25  27
BRANCH  25  29
ATOM     29  O   UNL     1       5.044   4.349  -3.982  0.00  0.00    -0.323 OA
ATOM     30  H   UNL     1       5.183   3.554  -3.428  0.00  0.00    +0.220 HD
ENDBRANCH  25  29
ENDBRANCH  24  25
ENDBRANCH  22  24
ENDBRANCH  21  22
ENDBRANCH  18  21
ENDBRANCH   1  18
TORSDOF 18
