REMARK  Name = 
REMARK  7 active torsions:
REMARK  status: ('A' for Active; 'I' for Inactive)
REMARK    1  A    between atoms: C_1  and  N_2
REMARK    2  A    between atoms: N_2  and  C_3
REMARK    3  A    between atoms: N_2  and  C_7
REMARK    4  A    between atoms: C_3  and  C_4
REMARK    5  A    between atoms: C_4  and  O_5
REMARK    6  A    between atoms: C_7  and  N_8
REMARK    7  A    between atoms: C_7  and  N_9
REMARK                            x       y       z     vdW  Elec       q    Type
REMARK                         _______ _______ _______ _____ _____    ______ ____
ROOT
ATOM      1  C   UNL     1       0.747   0.131  -0.040  0.00  0.00    +0.108 C 
ATOM      2  N   UNL     1       2.191   0.394  -0.157  0.00  0.00    -0.268 NA
ENDROOT
BRANCH   2   3
ATOM      3  C   UNL     1       2.855   1.309   0.735  0.00  0.00    +0.191 C 
BRANCH   3   4
ATOM      4  N   UNL     1       2.569   1.083   2.111  0.00  0.00    -0.303 NA
ATOM      5  H   UNL     1       3.278   1.272   2.816  0.00  0.00    +0.121 HD
ATOM      6  H   UNL     1       1.860   0.431   2.430  0.00  0.00    +0.121 HD
ENDBRANCH   3   4
BRANCH   3   7
ATOM      7  N   UNL     1       2.452   2.636   0.420  0.00  0.00    -0.303 NA
ATOM      8  H   UNL     1       2.939   3.199  -0.269  0.00  0.00    +0.121 HD
ATOM      9  H   UNL     1       1.794   3.142   1.004  0.00  0.00    +0.121 HD
ENDBRANCH   3   7
ENDBRANCH   2   3
BRANCH   2  10
ATOM     10  C   UNL     1       2.909  -0.063  -1.372  0.00  0.00    +0.207 C 
BRANCH  10  11
ATOM     11  C   UNL     1       2.717  -1.518  -1.710  0.00  0.00    +0.319 C 
ATOM     12  O   UNL     1       2.459  -2.378  -0.879  0.00  0.00    -0.250 OA
BRANCH  11  13
ATOM     13  O   UNL     1       2.873  -1.801  -3.022  0.00  0.00    -0.480 OA
ATOM     14  H   UNL     1       3.074  -1.061  -3.629  0.00  0.00    +0.295 HD
ENDBRANCH  11  13
ENDBRANCH  10  11
ENDBRANCH   2  10
TORSDOF 6
