REMARK  Name = 
REMARK  4 active torsions:
REMARK  status: ('A' for Active; 'I' for Inactive)
REMARK    1  A    between atoms: C_1  and  C_2
REMARK    2  A    between atoms: C_2  and  C_3
REMARK    3  A    between atoms: C_2  and  N_4
REMARK    4  A    between atoms: N_7  and  O_8
REMARK                            x       y       z     vdW  Elec       q    Type
REMARK                         _______ _______ _______ _____ _____    ______ ____
ROOT
ATOM      1  N   UNL     1       3.126  -0.156   1.358  0.00  0.00    -0.272 N 
ATOM      2  H   UNL     1       2.660   0.372   2.089  0.00  0.00    +0.258 HD
ATOM      3  C   UNL     1       4.372  -0.584   1.681  0.00  0.00    +0.406 C 
ATOM      4  N   UNL     1       4.458  -0.962   2.997  0.00  0.00    -0.142 N 
ATOM      5  H   UNL     1       3.657  -1.509   3.300  0.00  0.00    +0.299 HD
ATOM      6  N   UNL     1       5.391  -0.666   0.897  0.00  0.00    -0.128 NA
ATOM      7  H   UNL     1       5.128  -0.325  -0.028  0.00  0.00    +0.306 HD
ENDROOT
BRANCH   1   9
ATOM      8  C   UNL     1       1.045  -0.134   0.136  0.00  0.00    +0.047 C 
ATOM      9  C   UNL     1       2.565  -0.018   0.028  0.00  0.00    +0.139 C 
ATOM     10  C   UNL     1       2.950   1.316  -0.601  0.00  0.00    +0.047 C 
ENDBRANCH   1   9
BRANCH   4  11
ATOM     11  O   UNL     1       5.673  -1.609   3.280  0.00  0.00    -0.233 OA
ATOM     12  H   UNL     1       6.218  -1.381   2.490  0.00  0.00    +0.262 HD
ENDBRANCH   4  11
TORSDOF 2
