REMARK  Name = 
REMARK  13 active torsions:
REMARK  status: ('A' for Active; 'I' for Inactive)
REMARK    1  A    between atoms: C_1  and  C_2
REMARK    2  A    between atoms: C_2  and  C_3
REMARK    3  A    between atoms: C_3  and  C_4
REMARK    4  A    between atoms: C_4  and  N_5
REMARK    5  A    between atoms: C_6  and  C_7
REMARK    6  A    between atoms: C_7  and  C_8
REMARK    7  A    between atoms: C_10  and  O_11
REMARK    8  A    between atoms: O_11  and  C_12
REMARK    9  A    between atoms: C_13  and  O_14
REMARK   10  A    between atoms: O_14  and  C_15
REMARK   11  A    between atoms: C_16  and  O_17
REMARK   12  A    between atoms: O_17  and  C_18
REMARK   13  A    between atoms: C_22  and  N_23
REMARK                            x       y       z     vdW  Elec       q    Type
REMARK                         _______ _______ _______ _____ _____    ______ ____
ROOT
ATOM      1  N   UNL     1       4.784   1.387   2.609  0.00  0.00    -0.312 N 
ATOM      2  C   UNL     1       5.467   1.044   3.751  0.00  0.00    +0.166 A 
ATOM      3  C   UNL     1       5.739   2.242   4.383  0.00  0.00    +0.148 A 
ATOM      4  C   UNL     1       6.397   2.161   5.625  0.00  0.00    +0.147 A 
ATOM      5  N   UNL     1       6.727   0.939   6.108  0.00  0.00    -0.219 NA
ATOM      6  C   UNL     1       6.418  -0.144   5.366  0.00  0.00    +0.225 A 
ATOM      7  N   UNL     1       5.268   3.298   3.636  0.00  0.00    -0.227 NA
ATOM      8  N   UNL     1       5.780  -0.191   4.180  0.00  0.00    -0.216 NA
ATOM      9  C   UNL     1       4.718   2.773   2.549  0.00  0.00    +0.116 A 
ENDROOT
BRANCH   4  10
ATOM     10  N   UNL     1       6.701   3.272   6.405  0.00  0.00    -0.341 N 
ATOM     11  H   UNL     1       6.807   3.016   7.377  0.00  0.00    +0.144 HD
ATOM     12  H   UNL     1       6.105   4.067   6.200  0.00  0.00    +0.144 HD
ENDBRANCH   4  10
BRANCH   1  13
ATOM     13  C   UNL     1       4.151   0.412   1.746  0.00  0.00    +0.125 C 
BRANCH  13  14
ATOM     14  C   UNL     1       4.702   0.287   0.326  0.00  0.00    +0.021 C 
BRANCH  14  16
ATOM     15  C   UNL     1       6.649  -0.123  -1.201  0.00  0.00    +0.004 C 
ATOM     16  C   UNL     1       6.202   0.005   0.249  0.00  0.00    -0.002 C 
ENDBRANCH  14  16
ENDBRANCH  13  14
ENDBRANCH   1  13
BRANCH   9  17
ATOM     17  C   UNL     1       4.181   3.540   1.361  0.00  0.00    +0.109 C 
BRANCH  17  18
ATOM     18  C   UNL     1       3.863   5.017   1.572  0.00  0.00    -0.033 A 
ATOM     19  C   UNL     1       2.612   5.555   1.223  0.00  0.00    +0.053 A 
ATOM     20  C   UNL     1       2.353   6.935   1.320  0.00  0.00    +0.165 A 
ATOM     21  C   UNL     1       3.380   7.808   1.737  0.00  0.00    +0.204 A 
ATOM     22  C   UNL     1       4.624   7.273   2.130  0.00  0.00    +0.165 A 
ATOM     23  C   UNL     1       4.856   5.894   2.024  0.00  0.00    +0.053 A 
BRANCH  20  24
ATOM     24  O   UNL     1       1.134   7.500   1.046  0.00  0.00    -0.491 OA
ATOM     25  C   UNL     1       0.020   6.651   0.819  0.00  0.00    +0.277 C 
ENDBRANCH  20  24
BRANCH  21  26
ATOM     26  O   UNL     1       3.239   9.170   1.896  0.00  0.00    -0.488 OA
ATOM     27  C   UNL     1       2.538   9.866   0.870  0.00  0.00    +0.277 C 
ENDBRANCH  21  26
BRANCH  22  28
ATOM     28  O   UNL     1       5.576   8.165   2.565  0.00  0.00    -0.491 OA
ATOM     29  C   UNL     1       6.640   7.617   3.336  0.00  0.00    +0.277 C 
ENDBRANCH  22  28
ENDBRANCH  17  18
ENDBRANCH   9  17
TORSDOF 9
