REMARK  Name = 
REMARK  7 active torsions:
REMARK  status: ('A' for Active; 'I' for Inactive)
REMARK    1  A    between atoms: N_1  and  CA_2
REMARK    2  A    between atoms: CA_2  and  CB_4
REMARK    3  A    between atoms: CA_2  and  C_9
REMARK    4  A    between atoms: CB_4  and  CG_5
REMARK    5  A    between atoms: CG_5  and  CD_6
REMARK    6  A    between atoms: CD_6  and  OE1_7
REMARK    7  A    between atoms: C_9  and  O_10
REMARK                            x       y       z     vdW  Elec       q    Type
REMARK                         _______ _______ _______ _____ _____    ______ ____
ROOT
ATOM      1  CA  GLU A   1       2.518  -0.055   0.106  0.00  0.00    +0.161 C 
ENDROOT
BRANCH   1   2
ATOM      2  N   GLU A   1       2.945  -1.482   0.038  0.00  0.00    -0.318 NA
ATOM      3  H1  GLU A   1       2.517  -1.921  -0.780  0.00  0.00    +0.119 HD
ATOM      4  H2  GLU A   1       3.955  -1.507  -0.150  0.00  0.00    +0.119 HD
ENDBRANCH   1   2
BRANCH   1   5
ATOM      5  C   GLU A   1       2.994   0.517   1.458  0.00  0.00    +0.322 C 
ATOM      6  OXT GLU A   1       3.115   1.700   1.731  0.00  0.00    -0.249 OA
BRANCH   5   7
ATOM      7  O   GLU A   1       3.234  -0.483   2.349  0.00  0.00    -0.480 OA
ATOM      8  H   GLU A   1       3.071  -1.328   1.861  0.00  0.00    +0.295 HD
ENDBRANCH   5   7
ENDBRANCH   1   5
BRANCH   1   9
ATOM      9  CB  GLU A   1       3.051   0.780  -1.061  0.00  0.00    +0.041 C 
BRANCH   9  10
ATOM     10  CG  GLU A   1       2.527   0.332  -2.428  0.00  0.00    +0.122 C 
BRANCH  10  11
ATOM     11  CD  GLU A   1       3.040   1.222  -3.537  0.00  0.00    +0.305 C 
ATOM     12  OE2 GLU A   1       3.799   2.166  -3.388  0.00  0.00    -0.251 OA
BRANCH  11  13
ATOM     13  OE1 GLU A   1       2.580   0.851  -4.753  0.00  0.00    -0.481 OA
ATOM     14  HE1 GLU A   1       1.982   0.080  -4.742  0.00  0.00    +0.295 HD
ENDBRANCH  11  13
ENDBRANCH  10  11
ENDBRANCH   9  10
ENDBRANCH   1   9
TORSDOF 7
