REMARK  Name = 
REMARK  13 active torsions:
REMARK  status: ('A' for Active; 'I' for Inactive)
REMARK    1  A    between atoms: C_1  and  O_2
REMARK    2  A    between atoms: O_2  and  C_3
REMARK    3  A    between atoms: C_5  and  C_6
REMARK    4  A    between atoms: C_6  and  C_7
REMARK    5  A    between atoms: C_17  and  O_18
REMARK    6  A    between atoms: O_18  and  C_19
REMARK    7  A    between atoms: C_19  and  C_20
REMARK    8  A    between atoms: C_20  and  C_21
REMARK    9  A    between atoms: C_21  and  C_22
REMARK   10  A    between atoms: C_22  and  C_24
REMARK   11  A    between atoms: C_22  and  C_29
REMARK   12  A    between atoms: C_24  and  C_25
REMARK   13  A    between atoms: C_25  and  C_26
REMARK                            x       y       z     vdW  Elec       q    Type
REMARK                         _______ _______ _______ _____ _____    ______ ____
ROOT
ATOM      1  C   UNL     1       3.060  -0.630   0.580  0.00  0.00    +0.138 A 
ATOM      2  C   UNL     1       2.490  -1.855   0.171  0.00  0.00    +0.101 A 
ATOM      3 BR   UNL     1       1.242  -1.840  -1.265  0.00  0.00    -0.043 Br
ATOM      4  C   UNL     1       2.813  -3.018   0.874  0.00  0.00    +0.138 A 
ATOM      5  C   UNL     1       3.638  -2.914   2.006  0.00  0.00    +0.051 A 
ATOM      6  C   UNL     1       4.389  -1.760   2.277  0.00  0.00    -0.036 A 
ATOM      7  C   UNL     1       4.057  -0.604   1.569  0.00  0.00    +0.051 A 
ENDROOT
BRANCH   1   9
ATOM      8  C   UNL     1       2.448   1.625   0.821  0.00  0.00    +0.277 C 
ATOM      9  O   UNL     1       2.680   0.527  -0.061  0.00  0.00    -0.494 OA
ENDBRANCH   1   9
BRANCH   4  10
ATOM     10  O   UNL     1       2.397  -4.300   0.646  0.00  0.00    -0.491 OA
BRANCH  10  11
ATOM     11  C   UNL     1       2.509  -4.893  -0.661  0.00  0.00    +0.229 C 
BRANCH  11  12
ATOM     12  C   UNL     1       3.815  -4.677  -1.439  0.00  0.00    +0.042 C 
BRANCH  12  13
ATOM     13  C   UNL     1       5.065  -5.311  -0.819  0.00  0.00    +0.012 C 
BRANCH  13  14
ATOM     14  C   UNL     1       5.096  -6.856  -0.671  0.00  0.00    +0.035 C 
BRANCH  14  15
ATOM     15  C   UNL     1       6.391  -7.098   0.126  0.00  0.00    +0.045 C 
ATOM     16  O   UNL     1       7.419  -7.533  -0.441  0.00  0.00    -0.550 OA
ATOM     17  O   UNL     1       6.395  -6.604   1.307  0.00  0.00    -0.550 OA
ENDBRANCH  14  15
BRANCH  14  18
ATOM     18  C   UNL     1       5.003  -7.585  -2.021  0.00  0.00    +0.015 C 
BRANCH  18  19
ATOM     19  C   UNL     1       4.866  -9.102  -1.860  0.00  0.00    +0.052 C 
BRANCH  19  20
ATOM     20  C   UNL     1       4.753  -9.925  -3.152  0.00  0.00    +0.042 C 
ATOM     21  O   UNL     1       4.688 -11.177  -2.968  0.00  0.00    -0.550 OA
ATOM     22  O   UNL     1       4.705  -9.278  -4.235  0.00  0.00    -0.550 OA
ENDBRANCH  19  20
ENDBRANCH  18  19
ENDBRANCH  14  18
ENDBRANCH  13  14
ENDBRANCH  12  13
ENDBRANCH  11  12
ENDBRANCH  10  11
ENDBRANCH   4  10
BRANCH   6  23
ATOM     23  C   UNL     1       5.573  -1.769   3.244  0.00  0.00    +0.080 C 
BRANCH  23  24
ATOM     24  C   UNL     1       6.745  -2.626   2.798  0.00  0.00    +0.060 A 
ATOM     25  C   UNL     1       8.086  -2.239   2.835  0.00  0.00    +0.133 A 
ATOM     26  N   UNL     1       8.504  -1.104   3.520  0.00  0.00    -0.343 N 
ATOM     27  H   UNL     1       8.036  -0.247   3.260  0.00  0.00    +0.144 HD
ATOM     28  H   UNL     1       9.514  -1.030   3.431  0.00  0.00    +0.144 HD
ATOM     29  N   UNL     1       9.087  -2.990   2.324  0.00  0.00    -0.157 NA
ATOM     30  C   UNL     1       8.760  -4.208   1.833  0.00  0.00    +0.371 A 
ATOM     31  N   UNL     1       9.720  -4.988   1.226  0.00  0.00    -0.288 N 
ATOM     32  H   UNL     1      10.521  -4.467   0.897  0.00  0.00    +0.149 HD
ATOM     33  H   UNL     1       9.379  -5.722   0.600  0.00  0.00    +0.149 HD
ATOM     34  N   UNL     1       7.536  -4.671   1.924  0.00  0.00    -0.181 N 
ATOM     35  H   UNL     1       7.305  -5.643   1.613  0.00  0.00    +0.456 HD
ATOM     36  C   UNL     1       6.545  -3.927   2.384  0.00  0.00    +0.317 A 
ENDBRANCH  23  24
ENDBRANCH   6  23
TORSDOF 12
