REMARK  Name = 
REMARK  8 active torsions:
REMARK  status: ('A' for Active; 'I' for Inactive)
REMARK    1  A    between atoms: N_6  and  C_11
REMARK    2  A    between atoms: C_14  and  C_16
REMARK    3  A    between atoms: C_16  and  O_17
REMARK    4  A    between atoms: O_17  and  P_18
REMARK    5  A    between atoms: P_18  and  O_19
REMARK    6  A    between atoms: P_18  and  O_20
REMARK    7  A    between atoms: C_22  and  O_24
REMARK    8  A    between atoms: C_25  and  O_27
REMARK                            x       y       z     vdW  Elec       q    Type
REMARK                         _______ _______ _______ _____ _____    ______ ____
ROOT
ATOM      1  C   UNL     1       7.692   1.073  -0.021  0.00  0.00    +0.252 C 
ATOM      2  C   UNL     1       8.612   0.571   1.104  0.00  0.00    +0.195 C 
ATOM      3  C   UNL     1       9.216   1.830   1.727  0.00  0.00    +0.178 C 
ATOM      4  C   UNL     1       8.666   2.966   0.873  0.00  0.00    +0.178 C 
ATOM      5  O   UNL     1       7.468   2.473   0.258  0.00  0.00    -0.346 OA
ENDROOT
BRANCH   1  13
ATOM      6  N   UNL     1       9.660  -3.023  -4.707  0.00  0.00    -0.327 N 
ATOM      7  H   UNL     1      10.268  -2.608  -5.399  0.00  0.00    +0.145 HD
ATOM      8  H   UNL     1       9.999  -3.839  -4.216  0.00  0.00    +0.145 HD
ATOM      9  C   UNL     1       9.266  -2.061  -3.795  0.00  0.00    +0.215 A 
ATOM     10  N   UNL     1       9.316  -0.793  -4.202  0.00  0.00    -0.193 NA
ATOM     11  C   UNL     1       8.919   0.085  -3.268  0.00  0.00    +0.183 A 
ATOM     12  C   UNL     1       8.533  -0.276  -1.987  0.00  0.00    +0.108 A 
ATOM     13  N   UNL     1       8.215   0.913  -1.372  0.00  0.00    -0.298 N 
ATOM     14  C   UNL     1       8.377   1.907  -2.308  0.00  0.00    +0.204 A 
ATOM     15  C   UNL     1       8.541  -1.603  -1.635  0.00  0.00    +0.144 A 
ATOM     16  N   UNL     1       8.839   1.439  -3.446  0.00  0.00    -0.216 NA
ATOM     17  N   UNL     1       8.925  -2.497  -2.570  0.00  0.00    -0.221 NA
ENDBRANCH   1  13
BRANCH   2  18
ATOM     18  O   UNL     1       7.835  -0.144   2.083  0.00  0.00    -0.385 OA
ATOM     19  H   UNL     1       7.184   0.462   2.483  0.00  0.00    +0.210 HD
ENDBRANCH   2  18
BRANCH   3  20
ATOM     20  O   UNL     1      10.637   1.791   1.662  0.00  0.00    -0.386 OA
ATOM     21  H   UNL     1      10.973   2.615   2.064  0.00  0.00    +0.210 HD
ENDBRANCH   3  20
BRANCH   4  22
ATOM     22  C   UNL     1       8.358   4.224   1.670  0.00  0.00    +0.206 C 
BRANCH  22  23
ATOM     23  O   UNL     1       9.553   4.772   2.218  0.00  0.00    -0.284 OA
BRANCH  23  24
ATOM     24  P   UNL     1       9.212   6.220   3.101  0.00  0.00    +0.472 P 
ATOM     25  O   UNL     1       8.908   7.516   3.891  0.00  0.00    -0.228 OA
BRANCH  24  26
ATOM     26  O   UNL     1      10.796   6.550   2.850  0.00  0.00    -0.303 OA
ATOM     27  H   UNL     1      10.947   6.882   1.947  0.00  0.00    +0.222 HD
ENDBRANCH  24  26
BRANCH  24  28
ATOM     28  O   UNL     1       9.465   5.250   4.392  0.00  0.00    -0.303 OA
ATOM     29  H   UNL     1      10.418   5.044   4.403  0.00  0.00    +0.222 HD
ENDBRANCH  24  28
ENDBRANCH  23  24
ENDBRANCH  22  23
ENDBRANCH   4  22
TORSDOF 8
