REMARK  Name = 
REMARK  10 active torsions:
REMARK  status: ('A' for Active; 'I' for Inactive)
REMARK    1  A    between atoms: C_1  and  C_2
REMARK    2  A    between atoms: C_2  and  C_3
REMARK    3  A    between atoms: C_2  and  C_4
REMARK    4  A    between atoms: C_6  and  S_7
REMARK    5  A    between atoms: S_7  and  C_8
REMARK    6  A    between atoms: C_11  and  O_12
REMARK    7  A    between atoms: C_13  and  C_15
REMARK    8  A    between atoms: C_15  and  C_16
REMARK    9  A    between atoms: C_15  and  C_17
REMARK   10  A    between atoms: C_20  and  O_21
REMARK                            x       y       z     vdW  Elec       q    Type
REMARK                         _______ _______ _______ _____ _____    ______ ____
ROOT
ATOM      1  S   UNL     1       2.989   4.570  -2.707  0.00  0.00    -0.089 S 
ENDROOT
BRANCH   1   6
ATOM      2  C   UNL     1       4.007   0.834  -1.362  0.00  0.00    -0.002 A 
ATOM      3  C   UNL     1       3.169   0.033  -2.147  0.00  0.00    +0.120 A 
ATOM      4  C   UNL     1       2.317   0.597  -3.099  0.00  0.00    +0.047 A 
ATOM      5  C   UNL     1       2.268   1.982  -3.259  0.00  0.00    +0.018 A 
ATOM      6  C   UNL     1       3.082   2.809  -2.485  0.00  0.00    +0.013 A 
ATOM      7  C   UNL     1       3.967   2.230  -1.569  0.00  0.00    +0.022 A 
BRANCH   2   9
ATOM      8  C   UNL     1       4.003   0.321   1.063  0.00  0.00    +0.012 C 
ATOM      9  C   UNL     1       4.859   0.325  -0.207  0.00  0.00    +0.016 C 
ATOM     10  C   UNL     1       5.544  -1.032  -0.393  0.00  0.00    +0.012 C 
ENDBRANCH   2   9
BRANCH   3  11
ATOM     11  O   UNL     1       3.149  -1.319  -1.965  0.00  0.00    -0.506 OA
ATOM     12  H   UNL     1       2.550  -1.721  -2.613  0.00  0.00    +0.292 HD
ENDBRANCH   3  11
ENDBRANCH   1   6
BRANCH   1  13
ATOM     13  C   UNL     1       2.514   5.237  -1.115  0.00  0.00    +0.013 A 
ATOM     14  C   UNL     1       2.759   6.605  -0.904  0.00  0.00    +0.022 A 
ATOM     15  C   UNL     1       2.367   7.264   0.278  0.00  0.00    -0.002 A 
ATOM     16  C   UNL     1       1.777   6.490   1.284  0.00  0.00    +0.120 A 
ATOM     17  C   UNL     1       1.521   5.131   1.095  0.00  0.00    +0.047 A 
ATOM     18  C   UNL     1       1.869   4.513  -0.110  0.00  0.00    +0.018 A 
BRANCH  15  19
ATOM     19  C   UNL     1       2.564   8.763   0.457  0.00  0.00    +0.016 C 
ATOM     20  C   UNL     1       2.396   9.569  -0.837  0.00  0.00    +0.012 C 
ATOM     21  C   UNL     1       3.916   9.075   1.101  0.00  0.00    +0.012 C 
ENDBRANCH  15  19
BRANCH  16  22
ATOM     22  O   UNL     1       1.441   7.087   2.467  0.00  0.00    -0.506 OA
ATOM     23  H   UNL     1       1.117   6.409   3.082  0.00  0.00    +0.292 HD
ENDBRANCH  16  22
ENDBRANCH   1  13
TORSDOF 6
