REMARK  Name = 
REMARK  11 active torsions:
REMARK  status: ('A' for Active; 'I' for Inactive)
REMARK    1  A    between atoms: N_1  and  C_2
REMARK    2  A    between atoms: C_2  and  C_4
REMARK    3  A    between atoms: C_2  and  C_12
REMARK    4  A    between atoms: C_4  and  S_5
REMARK    5  A    between atoms: S_5  and  C_6
REMARK    6  A    between atoms: C_6  and  C_7
REMARK    7  A    between atoms: C_7  and  S_8
REMARK    8  A    between atoms: S_8  and  N_9
REMARK    9  A    between atoms: S_8  and  O_10
REMARK   10  A    between atoms: S_8  and  O_11
REMARK   11  A    between atoms: C_12  and  O_13
REMARK                            x       y       z     vdW  Elec       q    Type
REMARK                         _______ _______ _______ _____ _____    ______ ____
ROOT
ATOM      1  S   UNK     1       2.166   2.637  -0.635  0.00  0.00    -0.157 S 
ENDROOT
BRANCH   1   2
ATOM      2  C   UNK     1       3.005   2.615  -2.274  0.00  0.00    +0.099 C 
BRANCH   2   3
ATOM      3  C   UNK     1       2.501   1.461  -3.150  0.00  0.00    +0.170 C 
BRANCH   3   4
ATOM      4  N   UNK     1       1.001   1.440  -3.262  0.00  0.00    -0.318 NA
ATOM      5  H   UNK     1       0.643   1.774  -2.353  0.00  0.00    +0.119 HD
ATOM      6  H   UNK     1       0.734   2.191  -3.906  0.00  0.00    +0.119 HD
ENDBRANCH   3   4
BRANCH   3   7
ATOM      7  C   UNK     1       2.987   0.114  -2.600  0.00  0.00    +0.323 C 
ATOM      8  O   UNK     1       4.144  -0.166  -2.343  0.00  0.00    -0.249 OA
BRANCH   7   9
ATOM      9  O   UNK     1       1.953  -0.762  -2.456  0.00  0.00    -0.480 OA
ATOM     10  H   UNK     1       1.149  -0.271  -2.763  0.00  0.00    +0.295 HD
ENDBRANCH   7   9
ENDBRANCH   3   7
ENDBRANCH   2   3
ENDBRANCH   1   2
BRANCH   1  11
ATOM     11  C   UNK     1       2.963   4.105   0.087  0.00  0.00    +0.091 C 
BRANCH  11  12
ATOM     12  C   UNK     1       2.496   5.365  -0.616  0.00  0.00    +0.162 C 
BRANCH  12  13
ATOM     13  S   UNK     1       3.210   6.807   0.084  0.00  0.00    -0.140 S 
BRANCH  13  14
ATOM     14  N   UNK     1       2.856   7.196   1.631  0.00  0.00    -0.233 NA
ATOM     15  H   UNK     1       1.855   7.261   1.797  0.00  0.00    +0.142 HD
ATOM     16  H   UNK     1       3.194   6.499   2.292  0.00  0.00    +0.142 HD
ENDBRANCH  13  14
BRANCH  13  17
ATOM     17  O   UNK     1       2.757   7.955  -0.929  0.00  0.00    -0.284 OA
ATOM     18  H   UNK     1       1.978   8.486  -0.652  0.00  0.00    +0.242 HD
ENDBRANCH  13  17
BRANCH  13  19
ATOM     19  O   UNK     1       4.777   6.555  -0.119  0.00  0.00    -0.284 OA
ATOM     20  H   UNK     1       5.349   6.911   0.601  0.00  0.00    +0.242 HD
ENDBRANCH  13  19
ENDBRANCH  12  13
ENDBRANCH  11  12
ENDBRANCH   1  11
TORSDOF 11
