REMARK  Name = 
REMARK  13 active torsions:
REMARK  status: ('A' for Active; 'I' for Inactive)
REMARK    1  A    between atoms: C_11  and  C_13
REMARK    2  A    between atoms: C_13  and  N_14
REMARK    3  A    between atoms: N_14  and  C_15
REMARK    4  A    between atoms: C_18  and  C_21
REMARK    5  A    between atoms: N_23  and  CA_24
REMARK    6  A    between atoms: CA_24  and  CB_26
REMARK    7  A    between atoms: CA_24  and  C_31
REMARK    8  A    between atoms: CB_26  and  CG_27
REMARK    9  A    between atoms: CG_27  and  CD_28
REMARK   10  A    between atoms: CD_28  and  OE1_29
REMARK   11  A    between atoms: C_31  and  O_32
REMARK   12  A    between atoms: N_34  and  C_35
REMARK   13  A    between atoms: C_35  and  O_36
REMARK                            x       y       z     vdW  Elec       q    Type
REMARK                         _______ _______ _______ _____ _____    ______ ____
ROOT
ATOM      1  N   UNK A   0       7.421  -0.193  -4.086  0.00  0.00    -0.342 N 
ATOM      2  H   UNK A   0       6.528  -0.014  -3.627  0.00  0.00    +0.146 HD
ENDROOT
BRANCH   1   3
ATOM      3  C   UNK A   0       7.521   0.269  -5.392  0.00  0.00    +0.027 A 
ATOM      4  C   UNK A   0       8.703   0.126  -6.122  0.00  0.00    +0.023 A 
ATOM      5  C   UNK A   0       8.803   0.569  -7.442  0.00  0.00    +0.015 A 
ATOM      6  C   UNK A   0       7.708   1.160  -8.074  0.00  0.00    +0.037 A 
ATOM      7  C   UNK A   0       6.537   1.365  -7.327  0.00  0.00    +0.015 A 
ATOM      8  C   UNK A   0       6.454   0.941  -5.998  0.00  0.00    +0.023 A 
BRANCH   6   9
ATOM      9  C   UNK A   0       7.725   1.548  -9.521  0.00  0.00    +0.245 C 
ATOM     10  N   GLU A   1       8.846   1.200 -10.255  0.00  0.00    -0.298 N 
ATOM     11  H   GLU A   1       9.514   0.552  -9.858  0.00  0.00    +0.150 HD
ATOM     12  O   UNK A   0       6.753   2.089 -10.035  0.00  0.00    -0.270 OA
BRANCH  10  13
ATOM     13  CA  GLU A   1       8.885   1.310 -11.724  0.00  0.00    +0.182 C 
BRANCH  13  14
ATOM     14  C   GLU A   1      10.302   1.748 -12.137  0.00  0.00    +0.325 C 
ATOM     15  OXT GLU A   1      10.785   1.615 -13.250  0.00  0.00    -0.249 OA
BRANCH  14  16
ATOM     16  O   GLU A   1      10.966   2.377 -11.131  0.00  0.00    -0.479 OA
ATOM     17  H   GLU A   1      10.363   2.509 -10.369  0.00  0.00    +0.295 HD
ENDBRANCH  14  16
ENDBRANCH  13  14
BRANCH  13  18
ATOM     18  CB  GLU A   1       8.517  -0.018 -12.397  0.00  0.00    +0.045 C 
BRANCH  18  19
ATOM     19  CG  GLU A   1       7.100  -0.490 -12.069  0.00  0.00    +0.123 C 
BRANCH  19  20
ATOM     20  CD  GLU A   1       6.757  -1.781 -12.771  0.00  0.00    +0.305 C 
ATOM     21  OE2 GLU A   1       7.517  -2.425 -13.476  0.00  0.00    -0.251 OA
BRANCH  20  22
ATOM     22  OE1 GLU A   1       5.493  -2.187 -12.506  0.00  0.00    -0.481 OA
ATOM     23  HE1 GLU A   1       4.999  -1.577 -11.926  0.00  0.00    +0.295 HD
ENDBRANCH  20  22
ENDBRANCH  19  20
ENDBRANCH  18  19
ENDBRANCH  13  18
ENDBRANCH  10  13
ENDBRANCH   6   9
ENDBRANCH   1   3
BRANCH   1  24
ATOM     24  C   UNK A   0       7.974  -1.514  -3.747  0.00  0.00    +0.129 C 
BRANCH  24  34
ATOM     25  N   UNK A   0       1.024  -0.130  -3.122  0.00  0.00    -0.329 N 
ATOM     26  H   UNK A   0       0.462  -0.783  -3.658  0.00  0.00    +0.145 HD
ATOM     27  H   UNK A   0       0.498   0.249  -2.334  0.00  0.00    +0.145 HD
ATOM     28  C   UNK A   0       2.238  -0.581  -2.738  0.00  0.00    +0.195 A 
ATOM     29  N   UNK A   0       2.868  -1.309  -3.672  0.00  0.00    -0.311 N 
ATOM     30  H   UNK A   0       2.530  -1.340  -4.620  0.00  0.00    +0.170 HD
ATOM     31  C   UNK A   0       4.139  -1.785  -3.502  0.00  0.00    +0.160 A 
ATOM     32  N   UNK A   0       4.712  -2.472  -4.555  0.00  0.00    -0.238 NA
ATOM     33  C   UNK A   0       5.962  -2.806  -4.445  0.00  0.00    +0.110 C 
ATOM     34  C   UNK A   0       6.880  -2.502  -3.284  0.00  0.00    +0.134 C 
ATOM     35  N   UNK A   0       6.137  -1.973  -2.119  0.00  0.00    -0.291 N 
ATOM     36  C   UNK A   0       4.790  -1.573  -2.323  0.00  0.00    +0.142 A 
ATOM     37  C   UNK A   0       3.988  -0.774  -1.278  0.00  0.00    +0.298 A 
ATOM     38  O   UNK A   0       4.502  -0.519  -0.191  0.00  0.00    -0.264 OA
ATOM     39  N   UNK A   0       2.724  -0.312  -1.582  0.00  0.00    -0.176 NA
BRANCH  35  40
ATOM     40  C   UNK A   0       6.799  -2.253  -0.851  0.00  0.00    +0.265 C 
BRANCH  40  41
ATOM     41  O   UNK A   0       6.927  -1.115  -0.045  0.00  0.00    -0.377 OA
ATOM     42  H   UNK A   0       6.024  -0.752   0.045  0.00  0.00    +0.211 HD
ENDBRANCH  40  41
ENDBRANCH  35  40
ENDBRANCH  24  34
ENDBRANCH   1  24
TORSDOF 13
