REMARK  Name = 
REMARK  6 active torsions:
REMARK  status: ('A' for Active; 'I' for Inactive)
REMARK    1  A    between atoms: C_1  and  C_2
REMARK    2  A    between atoms: C_2  and  C_3
REMARK    3  A    between atoms: C_2  and  C_4
REMARK    4  A    between atoms: C_11  and  N_12
REMARK    5  A    between atoms: C_13  and  C_15
REMARK    6  A    between atoms: C_20  and  C_25
REMARK                            x       y       z     vdW  Elec       q    Type
REMARK                         _______ _______ _______ _____ _____    ______ ____
ROOT
ATOM      1  N   UNL     1       5.948   0.923  -3.912  0.00  0.00    -0.281 N 
ATOM      2  H   UNL     1       6.626   0.782  -4.649  0.00  0.00    +0.155 HD
ATOM      3  C   UNL     1       5.519   2.219  -3.664  0.00  0.00    +0.248 C 
ATOM      4  O   UNL     1       4.532   2.531  -3.006  0.00  0.00    -0.270 OA
ENDROOT
BRANCH   1   8
ATOM      5  C   UNL     1       2.979  -1.352  -0.567  0.00  0.00    +0.046 C 
ATOM      6  C   UNL     1       3.934  -1.366  -1.715  0.00  0.00    +0.001 A 
ATOM      7  C   UNL     1       4.527  -0.206  -2.230  0.00  0.00    +0.033 A 
ATOM      8  C   UNL     1       5.369  -0.242  -3.349  0.00  0.00    +0.034 A 
ATOM      9  C   UNL     1       5.658  -1.474  -3.933  0.00  0.00    +0.023 A 
ATOM     10  C   UNL     1       5.088  -2.641  -3.418  0.00  0.00    +0.006 A 
ATOM     11  C   UNL     1       4.229  -2.595  -2.307  0.00  0.00    -0.037 A 
ATOM     12  C   UNL     1       3.634  -3.868  -1.790  0.00  0.00    +0.059 C 
ATOM     13  C   UNL     1       2.790  -3.757  -0.528  0.00  0.00    +0.146 C 
ATOM     14  N   UNL     1       2.471  -2.419  -0.059  0.00  0.00    -0.287 NA
BRANCH   5  16
ATOM     15  C   UNL     1       1.013   0.123  -0.037  0.00  0.00    +0.014 C 
ATOM     16  C   UNL     1       2.531  -0.024   0.077  0.00  0.00    +0.032 C 
ATOM     17  C   UNL     1       2.974   0.021   1.539  0.00  0.00    +0.014 C 
ENDBRANCH   5  16
ENDBRANCH   1   8
BRANCH   3  18
ATOM     18  C   UNL     1       6.295   3.327  -4.284  0.00  0.00    +0.038 A 
ATOM     19  C   UNL     1       5.614   4.537  -4.496  0.00  0.00    +0.021 A 
ATOM     20  C   UNL     1       6.282   5.677  -4.959  0.00  0.00    -0.017 A 
ATOM     21  C   UNL     1       7.662   5.597  -5.243  0.00  0.00    -0.017 A 
ATOM     22  C   UNL     1       8.331   6.752  -5.685  0.00  0.00    +0.024 A 
ATOM     23  C   UNL     1       7.647   7.969  -5.824  0.00  0.00    +0.065 A 
ATOM     24  C   UNL     1       6.281   8.037  -5.542  0.00  0.00    +0.016 A 
ATOM     25  C   UNL     1       8.334   4.375  -5.049  0.00  0.00    +0.009 A 
ATOM     26  C   UNL     1       5.603   6.894  -5.117  0.00  0.00    +0.009 A 
ATOM     27  C   UNL     1       7.661   3.247  -4.563  0.00  0.00    +0.013 A 
BRANCH  23  28
ATOM     28  C   UNL     1       8.388   9.176  -6.280  0.00  0.00    +0.308 C 
ATOM     29  N   UNL     1       8.071  10.379  -5.921  0.00  0.00    -0.099 NA
ATOM     30  H   UNL     1       7.295  10.381  -5.253  0.00  0.00    +0.363 HD
ATOM     31  N   UNL     1       9.454   9.050  -7.120  0.00  0.00    -0.247 N 
ATOM     32  H   UNL     1       9.716   9.953  -7.504  0.00  0.00    +0.288 HD
ATOM     33  H   UNL     1       9.377   8.333  -7.830  0.00  0.00    +0.288 HD
ENDBRANCH  23  28
ENDBRANCH   3  18
TORSDOF 4
