REMARK  Name = 
REMARK  6 active torsions:
REMARK  status: ('A' for Active; 'I' for Inactive)
REMARK    1  A    between atoms: C_1  and  S_2
REMARK    2  A    between atoms: S_2  and  C_3
REMARK    3  A    between atoms: C_3  and  C_4
REMARK    4  A    between atoms: C_4  and  N_6
REMARK    5  A    between atoms: C_4  and  C_7
REMARK    6  A    between atoms: C_7  and  O_8
REMARK                            x       y       z     vdW  Elec       q    Type
REMARK                         _______ _______ _______ _____ _____    ______ ____
ROOT
ATOM      1  C   UNK     1       4.985   1.467   1.190  0.00  0.00    +0.170 C 
ENDROOT
BRANCH   1   2
ATOM      2  N   UNK     1       5.426   1.702  -0.227  0.00  0.00    -0.318 NA
ATOM      3  H   UNK     1       5.105   0.912  -0.794  0.00  0.00    +0.119 HD
ATOM      4  H   UNK     1       4.889   2.500  -0.589  0.00  0.00    +0.119 HD
ENDBRANCH   1   2
BRANCH   1   5
ATOM      5  C   UNK     1       5.484   2.662   2.028  0.00  0.00    +0.323 C 
ATOM      6  O   UNK     1       4.985   3.068   3.065  0.00  0.00    -0.249 OA
BRANCH   5   7
ATOM      7  O   UNK     1       6.563   3.250   1.446  0.00  0.00    -0.480 OA
ATOM      8  H   UNK     1       6.711   2.781   0.587  0.00  0.00    +0.295 HD
ENDBRANCH   5   7
ENDBRANCH   1   5
BRANCH   1   9
ATOM      9  C   UNK     1       5.574   0.143   1.698  0.00  0.00    +0.098 C 
BRANCH   9  11
ATOM     10  C   UNK     1       5.936  -1.849   3.574  0.00  0.00    +0.084 C 
ATOM     11  S   UNK     1       4.972  -0.335   3.352  0.00  0.00    -0.162 S 
ENDBRANCH   9  11
ENDBRANCH   1   9
TORSDOF 5
