REMARK  Name = 
REMARK  8 active torsions:
REMARK  status: ('A' for Active; 'I' for Inactive)
REMARK    1  A    between atoms: C_1  and  C_2
REMARK    2  A    between atoms: C_2  and  C_3
REMARK    3  A    between atoms: C_3  and  C_4
REMARK    4  A    between atoms: C_4  and  C_5
REMARK    5  A    between atoms: C_5  and  N_7
REMARK    6  A    between atoms: C_5  and  P_8
REMARK    7  A    between atoms: P_8  and  O_9
REMARK    8  A    between atoms: P_8  and  O_10
REMARK                            x       y       z     vdW  Elec       q    Type
REMARK                         _______ _______ _______ _____ _____    ______ ____
ROOT
ATOM      1  C   UNL     1       5.074   1.873  -2.124  0.00  0.00    +0.166 C 
ENDROOT
BRANCH   1   2
ATOM      2  N   UNL     1       4.906   3.333  -1.833  0.00  0.00    -0.318 NA
ATOM      3  H   UNL     1       3.921   3.579  -1.972  0.00  0.00    +0.119 HD
ATOM      4  H   UNL     1       5.082   3.499  -0.835  0.00  0.00    +0.119 HD
ENDBRANCH   1   2
BRANCH   1   5
ATOM      5  P   UNL     1       6.873   1.558  -2.013  0.00  0.00    +0.344 P 
ATOM      6  O   UNL     1       8.395   1.291  -1.919  0.00  0.00    -0.257 OA
BRANCH   5   7
ATOM      7  O   UNL     1       7.107   2.833  -3.034  0.00  0.00    -0.323 OA
ATOM      8  H   UNL     1       6.397   3.501  -2.897  0.00  0.00    +0.220 HD
ENDBRANCH   5   7
BRANCH   5   9
ATOM      9  O   UNL     1       6.698   0.352  -3.105  0.00  0.00    -0.323 OA
ATOM     10  H   UNL     1       7.616   0.127  -3.377  0.00  0.00    +0.220 HD
ENDBRANCH   5   9
ENDBRANCH   1   5
BRANCH   1  11
ATOM     11  C   UNL     1       4.340   1.548  -3.468  0.00  0.00    +0.031 C 
BRANCH  11  12
ATOM     12  C   UNL     1       4.939   2.223  -4.716  0.00  0.00    +0.002 C 
BRANCH  12  14
ATOM     13  C   UNL     1       4.977   2.574  -7.182  0.00  0.00    +0.004 C 
ATOM     14  C   UNL     1       4.265   1.854  -6.036  0.00  0.00    -0.003 C 
ENDBRANCH  12  14
ENDBRANCH  11  12
ENDBRANCH   1  11
TORSDOF 7
