REMARK  Name = 
REMARK  3 active torsions:
REMARK  status: ('A' for Active; 'I' for Inactive)
REMARK    1  A    between atoms: N_1  and  S_2
REMARK    2  A    between atoms: S_2  and  O_5
REMARK    3  A    between atoms: O_5  and  C_6
REMARK                            x       y       z     vdW  Elec       q    Type
REMARK                         _______ _______ _______ _____ _____    ______ ____
ROOT
ATOM      1  C   UNL     1       4.612   1.789   0.046  0.00  0.00    +0.161 A 
ATOM      2  C   UNL     1       5.588   0.811  -0.080  0.00  0.00    +0.095 A 
ATOM      3  C   UNL     1       6.936   1.180  -0.066  0.00  0.00    +0.143 A 
ATOM      4  C   UNL     1       7.363   2.501   0.048  0.00  0.00    +0.021 A 
ATOM      5  C   UNL     1       8.812   2.768   0.051  0.00  0.00    -0.027 A 
ATOM      6  C   UNL     1       9.339   4.183   0.102  0.00  0.00    +0.036 C 
ATOM      7  C   UNL     1       9.887   4.643  -1.253  0.00  0.00    +0.005 C 
ATOM      8  C   UNL     1      10.818   3.638  -1.942  0.00  0.00    +0.001 C 
ATOM      9  C   UNL     1      11.792   2.963  -0.978  0.00  0.00    +0.005 C 
ATOM     10  C   UNL     1      11.189   1.905  -0.031  0.00  0.00    +0.042 C 
ATOM     11  C   UNL     1       9.681   1.732  -0.011  0.00  0.00    +0.041 A 
ATOM     12  C   UNL     1       9.211   0.323  -0.103  0.00  0.00    +0.341 A 
ATOM     13  O   UNL     1       9.988  -0.625  -0.140  0.00  0.00    -0.245 OA
ATOM     14  C   UNL     1       6.362   3.477   0.146  0.00  0.00    +0.015 A 
ATOM     15  O   UNL     1       7.847   0.118  -0.167  0.00  0.00    -0.422 OA
ATOM     16  C   UNL     1       5.002   3.125   0.145  0.00  0.00    +0.049 A 
ENDROOT
BRANCH   1  17
ATOM     17  O   UNL     1       3.263   1.549   0.039  0.00  0.00    -0.334 OA
BRANCH  17  18
ATOM     18  S   UNL     1       2.649   0.134   0.557  0.00  0.00    +0.189 S 
ATOM     19  O   UNL     1       2.966  -0.913  -0.390  0.00  0.00    -0.119 OA
ATOM     20  O   UNL     1       2.880  -0.021   1.974  0.00  0.00    -0.119 OA
BRANCH  18  21
ATOM     21  N   UNL     1       0.988   0.333   0.385  0.00  0.00    -0.174 NA
ATOM     22  H   UNL     1       0.741   0.165  -0.591  0.00  0.00    +0.147 HD
ATOM     23  H   UNL     1       0.523  -0.330   1.006  0.00  0.00    +0.147 HD
ENDBRANCH  18  21
ENDBRANCH  17  18
ENDBRANCH   1  17
TORSDOF 3
