REMARK  Name = 
REMARK  5 active torsions:
REMARK  status: ('A' for Active; 'I' for Inactive)
REMARK    1  A    between atoms: O_1  and  C_2
REMARK    2  A    between atoms: C_5  and  O_6
REMARK    3  A    between atoms: C_5  and  C_13
REMARK    4  A    between atoms: C_10  and  O_12
REMARK    5  A    between atoms: C_13  and  O_14
REMARK                            x       y       z     vdW  Elec       q    Type
REMARK                         _______ _______ _______ _____ _____    ______ ____
ROOT
ATOM      1  C   UNL     1       2.417   0.013   0.275  0.00  0.00    +0.153 C 
ATOM      2  C   UNL     1       2.673  -1.309  -0.495  0.00  0.00    +0.201 C 
ATOM      3  C   UNL     1       3.532  -1.187  -1.710  0.00  0.00    +0.131 C 
ATOM      4  F   UNL     1       3.963  -2.322  -2.301  0.00  0.00    -0.208 F 
ATOM      5  C   UNL     1       3.899  -0.026  -2.258  0.00  0.00    +0.055 C 
ATOM      6  C   UNL     1       3.500   1.307  -1.709  0.00  0.00    +0.185 C 
ATOM      7  C   UNL     1       2.494   1.307  -0.549  0.00  0.00    +0.085 C 
ENDROOT
BRANCH   1   8
ATOM      8  O   UNL     1       3.274   0.115   1.412  0.00  0.00    -0.389 OA
ATOM      9  H   UNL     1       4.189   0.309   1.125  0.00  0.00    +0.210 HD
ENDBRANCH   1   8
BRANCH   2  10
ATOM     10  O   UNL     1       1.423  -1.852  -0.933  0.00  0.00    -0.382 OA
ATOM     11  H   UNL     1       1.623  -2.747  -1.267  0.00  0.00    +0.210 HD
ENDBRANCH   2  10
BRANCH   6  12
ATOM     12  C   UNL     1       4.790   2.036  -1.280  0.00  0.00    +0.341 C 
ATOM     13  O   UNL     1       5.523   1.684  -0.368  0.00  0.00    -0.247 OA
BRANCH  12  14
ATOM     14  O   UNL     1       5.030   3.125  -2.060  0.00  0.00    -0.478 OA
ATOM     15  H   UNL     1       4.296   3.179  -2.720  0.00  0.00    +0.295 HD
ENDBRANCH  12  14
ENDBRANCH   6  12
BRANCH   6  16
ATOM     16  O   UNL     1       2.943   2.059  -2.805  0.00  0.00    -0.374 OA
ATOM     17  H   UNL     1       2.103   1.620  -3.045  0.00  0.00    +0.211 HD
ENDBRANCH   6  16
TORSDOF 5
