REMARK  Name = 
REMARK  4 active torsions:
REMARK  status: ('A' for Active; 'I' for Inactive)
REMARK    1  A    between atoms: C_1  and  O_2
REMARK    2  A    between atoms: O_2  and  C_3
REMARK    3  A    between atoms: C_5  and  C_10
REMARK    4  A    between atoms: C_8  and  O_9
REMARK                            x       y       z     vdW  Elec       q    Type
REMARK                         _______ _______ _______ _____ _____    ______ ____
ROOT
ATOM      1  C   UNL     1       3.034   1.317  -0.091  0.00  0.00    +0.162 A 
ATOM      2  C   UNL     1       4.340   1.313  -0.594  0.00  0.00    +0.158 A 
ATOM      3  C   UNL     1       5.012   2.508  -0.850  0.00  0.00    +0.050 A 
ATOM      4  C   UNL     1       4.376   3.725  -0.597  0.00  0.00    +0.013 A 
ATOM      5  C   UNL     1       3.072   3.763  -0.080  0.00  0.00    +0.001 A 
ATOM      6  C   UNL     1       2.416   2.543   0.177  0.00  0.00    +0.059 A 
ENDROOT
BRANCH   5   7
ATOM      7  C   UNL     1       2.381   5.086   0.193  0.00  0.00    +0.072 C 
ATOM      8  O   UNL     1       3.042   6.144  -0.057  0.00  0.00    -0.545 OA
ATOM      9  O   UNL     1       1.196   5.038   0.648  0.00  0.00    -0.545 OA
ENDBRANCH   5   7
BRANCH   1  11
ATOM     10  C   UNL     1       1.030   0.084   0.073  0.00  0.00    +0.277 C 
ATOM     11  O   UNL     1       2.451   0.095   0.134  0.00  0.00    -0.491 OA
ENDBRANCH   1  11
BRANCH   2  12
ATOM     12  O   UNL     1       4.959   0.118  -0.859  0.00  0.00    -0.503 OA
ATOM     13  H   UNL     1       5.827   0.312  -1.241  0.00  0.00    +0.292 HD
ENDBRANCH   2  12
TORSDOF 3
