REMARK  Name = 
REMARK  41 active torsions:
REMARK  status: ('A' for Active; 'I' for Inactive)
REMARK    1  A    between atoms: N_1  and  C_2
REMARK    2  A    between atoms: C_2  and  C_3
REMARK    3  A    between atoms: C_2  and  C_49
REMARK    4  A    between atoms: C_3  and  O_4
REMARK    5  A    between atoms: O_4  and  C_5
REMARK    6  A    between atoms: N_7  and  C_8
REMARK    7  A    between atoms: C_8  and  C_9
REMARK    8  A    between atoms: C_9  and  C_10
REMARK    9  A    between atoms: C_10  and  N_11
REMARK   10  A    between atoms: N_14  and  C_15
REMARK   11  A    between atoms: C_15  and  C_16
REMARK   12  A    between atoms: C_16  and  C_17
REMARK   13  A    between atoms: C_17  and  N_18
REMARK   14  A    between atoms: C_19  and  C_21
REMARK   15  A    between atoms: C_23  and  O_24
REMARK   16  A    between atoms: O_24  and  C_25
REMARK   17  A    between atoms: C_28  and  C_30
REMARK   18  A    between atoms: C_30  and  O_31
REMARK   19  A    between atoms: C_32  and  O_34
REMARK   20  A    between atoms: C_35  and  O_37
REMARK   21  A    between atoms: C_38  and  O_40
REMARK   22  A    between atoms: C_42  and  N_44
REMARK   23  A    between atoms: C_49  and  O_50
REMARK   24  A    between atoms: O_50  and  C_51
REMARK   25  A    between atoms: N_53  and  C_54
REMARK   26  A    between atoms: C_54  and  C_55
REMARK   27  A    between atoms: C_55  and  C_56
REMARK   28  A    between atoms: C_56  and  N_57
REMARK   29  A    between atoms: N_60  and  C_61
REMARK   30  A    between atoms: C_61  and  C_62
REMARK   31  A    between atoms: C_62  and  C_63
REMARK   32  A    between atoms: C_63  and  N_64
REMARK   33  A    between atoms: C_65  and  C_67
REMARK   34  A    between atoms: C_69  and  O_70
REMARK   35  A    between atoms: O_70  and  C_71
REMARK   36  A    between atoms: C_74  and  C_76
REMARK   37  A    between atoms: C_76  and  O_77
REMARK   38  A    between atoms: C_78  and  O_80
REMARK   39  A    between atoms: C_81  and  O_83
REMARK   40  A    between atoms: C_84  and  O_86
REMARK   41  A    between atoms: C_88  and  N_90
REMARK                            x       y       z     vdW  Elec       q    Type
REMARK                         _______ _______ _______ _____ _____    ______ ____
ROOT
ATOM      1  C   UNL     1      43.412  -9.020  10.777  0.00  0.00    +0.127 C 
ENDROOT
BRANCH   1   2
ATOM      2  N   UNL     1      43.351  -9.592  12.139  0.00  0.00    -0.322 NA
ATOM      3  H   UNL     1      44.005 -10.373  12.210  0.00  0.00    +0.119 HD
ATOM      4  H   UNL     1      43.695  -8.891  12.796  0.00  0.00    +0.119 HD
ENDBRANCH   1   2
BRANCH   1   5
ATOM      5  C   UNL     1      42.999 -10.065   9.728  0.00  0.00    +0.255 C 
BRANCH   5   6
ATOM      6  O   UNL     1      43.102  -9.497   8.411  0.00  0.00    -0.449 OA
BRANCH   6   7
ATOM      7  C   UNL     1      43.835 -10.189   7.512  0.00  0.00    +0.400 C 
ATOM      8  N   UNL     1      43.833  -9.520   6.328  0.00  0.00    -0.281 N 
ATOM      9  H   UNL     1      43.347  -8.634   6.309  0.00  0.00    +0.152 HD
ATOM     10  O   UNL     1      44.411 -11.246   7.720  0.00  0.00    -0.226 OA
BRANCH   8  11
ATOM     11  C   UNL     1      44.351 -10.105   5.118  0.00  0.00    +0.109 C 
BRANCH  11  12
ATOM     12  C   UNL     1      45.851  -9.882   4.941  0.00  0.00    +0.034 C 
BRANCH  12  13
ATOM     13  C   UNL     1      46.338 -10.628   3.690  0.00  0.00    +0.086 C 
BRANCH  13  14
ATOM     14  N   UNL     1      47.779 -10.490   3.414  0.00  0.00    -0.300 NA
ATOM     15  C   UNL     1      48.132 -11.210   2.164  0.00  0.00    +0.100 C 
ATOM     16  C   UNL     1      48.170 -12.760   2.289  0.00  0.00    +0.100 C 
ATOM     17  N   UNL     1      48.988 -13.284   3.413  0.00  0.00    -0.300 NA
ATOM     18  C   UNL     1      48.605 -12.554   4.640  0.00  0.00    +0.100 C 
ATOM     19  C   UNL     1      48.633 -11.015   4.501  0.00  0.00    +0.100 C 
BRANCH  17  20
ATOM     20  C   UNL     1      50.429 -13.181   3.105  0.00  0.00    +0.086 C 
BRANCH  20  21
ATOM     21  C   UNL     1      51.371 -13.783   4.165  0.00  0.00    +0.034 C 
BRANCH  21  22
ATOM     22  C   UNL     1      51.121 -15.267   4.414  0.00  0.00    +0.106 C 
BRANCH  22  23
ATOM     23  N   UNL     1      51.961 -15.796   5.482  0.00  0.00    -0.311 N 
ATOM     24  H   UNL     1      51.508 -15.984   6.364  0.00  0.00    +0.149 HD
ATOM     25  C   UNL     1      53.209 -16.335   5.241  0.00  0.00    +0.244 C 
ATOM     26  O   UNL     1      53.771 -16.286   4.153  0.00  0.00    -0.270 OA
BRANCH  25  27
ATOM     27  C   UNL     1      53.826 -17.112   6.360  0.00  0.00    +0.047 A 
ATOM     28  C   UNL     1      54.616 -18.215   6.020  0.00  0.00    +0.097 A 
ATOM     29  C   UNL     1      55.108 -19.025   7.041  0.00  0.00    +0.277 A 
ATOM     30  C   UNL     1      54.859 -18.761   8.392  0.00  0.00    +0.130 A 
ATOM     31  C   UNL     1      54.174 -17.599   8.738  0.00  0.00    +0.131 A 
ATOM     32  C   UNL     1      53.638 -16.789   7.718  0.00  0.00    +0.059 A 
BRANCH  29  33
ATOM     33  N   UNL     1      55.948 -20.157   6.704  0.00  0.00    +0.080 N 
ATOM     34  O   UNL     1      56.977 -19.921   6.059  0.00  0.00    +0.041 OA
ATOM     35  O   UNL     1      55.590 -21.268   7.118  0.00  0.00    -0.576 OA
ENDBRANCH  29  33
BRANCH  31  36
ATOM     36  O   UNL     1      53.996 -17.139  10.019  0.00  0.00    -0.461 OA
BRANCH  36  37
ATOM     37  C   UNL     1      54.507 -17.937  11.113  0.00  0.00    +0.339 C 
ATOM     38  C   UNL     1      54.585 -17.048  12.383  0.00  0.00    +0.214 C 
ATOM     39  C   UNL     1      54.720 -17.894  13.660  0.00  0.00    +0.180 C 
ATOM     40  C   UNL     1      53.699 -19.030  13.698  0.00  0.00    +0.177 C 
ATOM     41  C   UNL     1      53.882 -19.864  12.425  0.00  0.00    +0.179 C 
ATOM     42  O   UNL     1      53.650 -19.066  11.268  0.00  0.00    -0.331 OA
BRANCH  40  43
ATOM     43  O   UNL     1      53.931 -19.774  14.900  0.00  0.00    -0.386 OA
ATOM     44  H   UNL     1      53.490 -20.646  14.780  0.00  0.00    +0.210 HD
ENDBRANCH  40  43
BRANCH  38  45
ATOM     45  O   UNL     1      55.717 -16.161  12.254  0.00  0.00    -0.383 OA
ATOM     46  H   UNL     1      56.313 -16.312  13.010  0.00  0.00    +0.210 HD
ENDBRANCH  38  45
BRANCH  39  47
ATOM     47  O   UNL     1      54.569 -17.074  14.827  0.00  0.00    -0.386 OA
ATOM     48  H   UNL     1      54.436 -17.704  15.567  0.00  0.00    +0.210 HD
ENDBRANCH  39  47
BRANCH  41  49
ATOM     49  C   UNL     1      52.886 -21.025  12.348  0.00  0.00    +0.190 C 
BRANCH  49  50
ATOM     50  O   UNL     1      52.965 -21.863  13.494  0.00  0.00    -0.392 OA
ATOM     51  H   UNL     1      52.451 -22.665  13.278  0.00  0.00    +0.210 HD
ENDBRANCH  49  50
ENDBRANCH  41  49
ENDBRANCH  36  37
ENDBRANCH  31  36
ENDBRANCH  25  27
ENDBRANCH  22  23
ENDBRANCH  21  22
ENDBRANCH  20  21
ENDBRANCH  17  20
ENDBRANCH  13  14
ENDBRANCH  12  13
ENDBRANCH  11  12
ENDBRANCH   8  11
ENDBRANCH   6   7
ENDBRANCH   5   6
ENDBRANCH   1   5
BRANCH   1  52
ATOM     52  C   UNL     1      44.818  -8.452  10.464  0.00  0.00    +0.255 C 
BRANCH  52  53
ATOM     53  O   UNL     1      45.178  -7.381  11.355  0.00  0.00    -0.449 OA
BRANCH  53  54
ATOM     54  C   UNL     1      44.558  -6.205  11.081  0.00  0.00    +0.400 C 
ATOM     55  N   UNL     1      44.957  -5.261  11.967  0.00  0.00    -0.281 N 
ATOM     56  H   UNL     1      45.608  -5.572  12.675  0.00  0.00    +0.152 HD
ATOM     57  O   UNL     1      43.731  -6.033  10.198  0.00  0.00    -0.226 OA
BRANCH  55  58
ATOM     58  C   UNL     1      44.171  -4.076  12.199  0.00  0.00    +0.109 C 
BRANCH  58  59
ATOM     59  C   UNL     1      43.049  -4.347  13.203  0.00  0.00    +0.034 C 
BRANCH  59  60
ATOM     60  C   UNL     1      43.573  -4.690  14.606  0.00  0.00    +0.086 C 
BRANCH  60  61
ATOM     61  N   UNL     1      44.454  -3.657  15.182  0.00  0.00    -0.300 NA
ATOM     62  C   UNL     1      44.953  -4.076  16.515  0.00  0.00    +0.100 C 
ATOM     63  C   UNL     1      43.900  -4.020  17.652  0.00  0.00    +0.100 C 
ATOM     64  N   UNL     1      43.150  -2.747  17.742  0.00  0.00    -0.300 NA
ATOM     65  C   UNL     1      42.655  -2.383  16.398  0.00  0.00    +0.100 C 
ATOM     66  C   UNL     1      43.768  -2.356  15.331  0.00  0.00    +0.100 C 
BRANCH  64  67
ATOM     67  C   UNL     1      43.983  -1.689  18.341  0.00  0.00    +0.086 C 
BRANCH  67  68
ATOM     68  C   UNL     1      43.214  -0.386  18.564  0.00  0.00    +0.034 C 
BRANCH  68  69
ATOM     69  C   UNL     1      41.986  -0.621  19.435  0.00  0.00    +0.106 C 
BRANCH  69  70
ATOM     70  N   UNL     1      41.230   0.597  19.607  0.00  0.00    -0.311 N 
ATOM     71  H   UNL     1      40.371   0.694  19.084  0.00  0.00    +0.149 HD
ATOM     72  C   UNL     1      41.593   1.519  20.556  0.00  0.00    +0.244 C 
ATOM     73  O   UNL     1      42.558   1.403  21.302  0.00  0.00    -0.270 OA
BRANCH  72  74
ATOM     74  C   UNL     1      40.713   2.700  20.677  0.00  0.00    +0.047 A 
ATOM     75  C   UNL     1      40.082   3.274  19.570  0.00  0.00    +0.097 A 
ATOM     76  C   UNL     1      39.269   4.397  19.765  0.00  0.00    +0.277 A 
ATOM     77  C   UNL     1      39.104   4.948  21.044  0.00  0.00    +0.130 A 
ATOM     78  C   UNL     1      39.764   4.380  22.135  0.00  0.00    +0.131 A 
ATOM     79  C   UNL     1      40.552   3.249  21.953  0.00  0.00    +0.059 A 
BRANCH  76  80
ATOM     80  N   UNL     1      38.590   5.003  18.615  0.00  0.00    +0.080 N 
ATOM     81  O   UNL     1      38.717   4.442  17.516  0.00  0.00    +0.041 OA
ATOM     82  O   UNL     1      37.928   6.031  18.807  0.00  0.00    -0.576 OA
ENDBRANCH  76  80
BRANCH  78  83
ATOM     83  O   UNL     1      39.550   4.979  23.344  0.00  0.00    -0.461 OA
BRANCH  83  84
ATOM     84  C   UNL     1      40.620   4.873  24.298  0.00  0.00    +0.339 C 
ATOM     85  C   UNL     1      40.624   6.167  25.140  0.00  0.00    +0.214 C 
ATOM     86  C   UNL     1      41.682   6.047  26.246  0.00  0.00    +0.180 C 
ATOM     87  C   UNL     1      41.484   4.762  27.057  0.00  0.00    +0.177 C 
ATOM     88  C   UNL     1      41.454   3.554  26.113  0.00  0.00    +0.179 C 
ATOM     89  O   UNL     1      40.428   3.716  25.122  0.00  0.00    -0.331 OA
BRANCH  85  90
ATOM     90  O   UNL     1      40.875   7.307  24.299  0.00  0.00    -0.383 OA
ATOM     91  H   UNL     1      41.833   7.444  24.224  0.00  0.00    +0.210 HD
ENDBRANCH  85  90
BRANCH  86  92
ATOM     92  O   UNL     1      41.635   7.181  27.119  0.00  0.00    -0.386 OA
ATOM     93  H   UNL     1      42.091   6.919  27.943  0.00  0.00    +0.210 HD
ENDBRANCH  86  92
BRANCH  87  94
ATOM     94  O   UNL     1      42.522   4.671  28.039  0.00  0.00    -0.386 OA
ATOM     95  H   UNL     1      43.356   4.414  27.606  0.00  0.00    +0.210 HD
ENDBRANCH  87  94
BRANCH  88  96
ATOM     96  C   UNL     1      41.171   2.257  26.881  0.00  0.00    +0.190 C 
BRANCH  96  97
ATOM     97  O   UNL     1      41.234   1.147  25.987  0.00  0.00    -0.392 OA
ATOM     98  H   UNL     1      40.574   1.322  25.290  0.00  0.00    +0.210 HD
ENDBRANCH  96  97
ENDBRANCH  88  96
ENDBRANCH  83  84
ENDBRANCH  78  83
ENDBRANCH  72  74
ENDBRANCH  69  70
ENDBRANCH  68  69
ENDBRANCH  67  68
ENDBRANCH  64  67
ENDBRANCH  60  61
ENDBRANCH  59  60
ENDBRANCH  58  59
ENDBRANCH  55  58
ENDBRANCH  53  54
ENDBRANCH  52  53
ENDBRANCH   1  52
TORSDOF 41
