REMARK  Name = 
REMARK  11 active torsions:
REMARK  status: ('A' for Active; 'I' for Inactive)
REMARK    1  A    between atoms: N_1  and  C_2
REMARK    2  A    between atoms: C_2  and  C_4
REMARK    3  A    between atoms: C_2  and  C_20
REMARK    4  A    between atoms: C_4  and  C_5
REMARK    5  A    between atoms: C_5  and  S_6
REMARK    6  A    between atoms: S_6  and  C_7
REMARK    7  A    between atoms: C_7  and  C_8
REMARK    8  A    between atoms: C_11  and  O_13
REMARK    9  A    between atoms: C_14  and  O_16
REMARK   10  A    between atoms: C_17  and  O_19
REMARK   11  A    between atoms: C_20  and  O_21
REMARK                            x       y       z     vdW  Elec       q    Type
REMARK                         _______ _______ _______ _____ _____    ______ ____
ROOT
ATOM      1  C   UNK     1       2.554  -5.394  -0.760  0.00  0.00    +0.103 C 
ENDROOT
BRANCH   1   2
ATOM      2  C   UNK     1       2.995  -6.662  -1.494  0.00  0.00    +0.162 C 
ATOM      3  C   UNK     1       2.443  -7.934  -0.857  0.00  0.00    +0.177 C 
ATOM      4  C   UNK     1       3.526  -8.980  -1.143  0.00  0.00    +0.201 C 
ATOM      5  C   UNK     1       4.674  -8.179  -1.773  0.00  0.00    +0.279 C 
ATOM      6  O   UNK     1       4.425  -6.818  -1.437  0.00  0.00    -0.342 OA
BRANCH   3   7
ATOM      7  O   UNK     1       1.180  -8.283  -1.414  0.00  0.00    -0.386 OA
ATOM      8  H   UNK     1       0.975  -9.191  -1.126  0.00  0.00    +0.210 HD
ENDBRANCH   3   7
BRANCH   4   9
ATOM      9  O   UNK     1       3.925  -9.578   0.102  0.00  0.00    -0.384 OA
ATOM     10  H   UNK     1       4.354  -8.889   0.641  0.00  0.00    +0.210 HD
ENDBRANCH   4   9
BRANCH   5  11
ATOM     11  O   UNK     1       4.662  -8.299  -3.184  0.00  0.00    -0.365 OA
ATOM     12  H   UNK     1       5.462  -7.835  -3.482  0.00  0.00    +0.213 HD
ENDBRANCH   5  11
ENDBRANCH   1   2
BRANCH   1  13
ATOM     13  S   UNK     1       3.331  -3.866  -1.415  0.00  0.00    -0.158 S 
BRANCH  13  14
ATOM     14  C   UNK     1       2.665  -3.897  -3.111  0.00  0.00    +0.071 C 
BRANCH  14  15
ATOM     15  C   UNK     1       3.149  -2.662  -3.868  0.00  0.00    +0.040 C 
BRANCH  15  16
ATOM     16  C   UNK     1       2.665  -2.622  -5.321  0.00  0.00    +0.161 C 
BRANCH  16  17
ATOM     17  N   UNK     1       3.277  -1.439  -6.013  0.00  0.00    -0.318 NA
ATOM     18  H   UNK     1       3.415  -0.694  -5.319  0.00  0.00    +0.119 HD
ATOM     19  H   UNK     1       4.235  -1.699  -6.274  0.00  0.00    +0.119 HD
ENDBRANCH  16  17
BRANCH  16  20
ATOM     20  C   UNK     1       1.130  -2.498  -5.435  0.00  0.00    +0.322 C 
ATOM     21  O   UNK     1       0.316  -3.275  -4.960  0.00  0.00    -0.249 OA
BRANCH  20  22
ATOM     22  O   UNK     1       0.777  -1.407  -6.162  0.00  0.00    -0.480 OA
ATOM     23  H   UNK     1       1.630  -1.010  -6.469  0.00  0.00    +0.295 HD
ENDBRANCH  20  22
ENDBRANCH  16  20
ENDBRANCH  15  16
ENDBRANCH  14  15
ENDBRANCH  13  14
ENDBRANCH   1  13
TORSDOF 11
