REMARK  Name = 
REMARK  9 active torsions:
REMARK  status: ('A' for Active; 'I' for Inactive)
REMARK    1  A    between atoms: CA_2  and  N_3
REMARK    2  A    between atoms: CA_2  and  C_12
REMARK    3  A    between atoms: CA_2  and  C_15
REMARK    4  A    between atoms: C_4  and  C_6
REMARK    5  A    between atoms: C_6  and  C_7
REMARK    6  A    between atoms: C_12  and  O_13
REMARK    7  A    between atoms: CA_18  and  C_19
REMARK    8  A    between atoms: C_19  and  O_20
REMARK    9  A    between atoms: C_22  and  C_23
REMARK                            x       y       z     vdW  Elec       q    Type
REMARK                         _______ _______ _______ _____ _____    ______ ____
ROOT
ATOM      1  CA  UNL     1       2.176   0.149  -0.064  0.00  0.00    +0.212 C 
ENDROOT
BRANCH   1   2
ATOM      2  C   UNL     1       2.827  -1.182  -0.560  0.00  0.00    +0.160 C 
ATOM      3  S   UNL     1       2.636  -1.315  -2.359  0.00  0.00    -0.132 S 
ATOM      4  C   UNL     1       1.780  -2.860  -2.632  0.00  0.00    +0.103 C 
ATOM      5  C   UNL     1       1.475  -3.769  -1.487  0.00  0.00    -0.035 C 
ATOM      6  C   UNL     1       0.762  -5.014  -1.977  0.00  0.00    +0.042 C 
ATOM      7  CA  UNL     1       1.809  -3.507  -0.211  0.00  0.00    +0.113 C 
ATOM      8  N   UNL     1       2.383  -2.320   0.222  0.00  0.00    -0.325 N 
ATOM      9  H   UNL     1       3.045  -2.488   0.992  0.00  0.00    +0.147 HD
BRANCH   7  10
ATOM     10  C   UNL     1       1.559  -4.536   0.887  0.00  0.00    +0.351 C 
ATOM     11  OXT UNL     1       1.544  -5.746   0.761  0.00  0.00    -0.244 OA
BRANCH  10  12
ATOM     12  O   UNL     1       1.420  -3.908   2.078  0.00  0.00    -0.476 OA
ATOM     13  H   UNL     1       1.398  -2.938   1.950  0.00  0.00    +0.295 HD
ENDBRANCH  10  12
ENDBRANCH   7  10
ENDBRANCH   1   2
BRANCH   1  14
ATOM     14  N   UNL     1       2.557   1.313  -0.888  0.00  0.00    -0.300 N 
ATOM     15  H   UNL     1       3.521   1.378  -1.203  0.00  0.00    +0.150 HD
ATOM     16  C   UNL     1       1.753   2.412  -1.046  0.00  0.00    +0.219 C 
ATOM     17  O   UNL     1       0.732   2.544  -0.375  0.00  0.00    -0.275 OA
BRANCH  16  18
ATOM     18  C   UNL     1       2.282   3.449  -2.020  0.00  0.00    +0.138 C 
BRANCH  18  19
ATOM     19  C   UNL     1       3.077   4.459  -1.257  0.00  0.00    -0.001 A 
ATOM     20  S   UNL     1       4.746   4.203  -0.960  0.00  0.00    -0.101 S 
ATOM     21  C   UNL     1       4.873   5.658  -0.069  0.00  0.00    +0.045 A 
ATOM     22  C   UNL     1       3.682   6.336  -0.017  0.00  0.00    +0.008 A 
ATOM     23  C   UNL     1       2.639   5.645  -0.704  0.00  0.00    +0.011 A 
ENDBRANCH  18  19
ENDBRANCH  16  18
ENDBRANCH   1  14
BRANCH   1  24
ATOM     24  C   UNL     1       2.587   0.439   1.385  0.00  0.00    +0.328 C 
ATOM     25  OXT UNL     1       3.288  -0.297   2.068  0.00  0.00    -0.249 OA
BRANCH  24  26
ATOM     26  O   UNL     1       2.044   1.576   1.890  0.00  0.00    -0.479 OA
ATOM     27  H   UNL     1       1.444   2.041   1.256  0.00  0.00    +0.295 HD
ENDBRANCH  24  26
ENDBRANCH   1  24
TORSDOF 8
