REMARK  Name = 
REMARK  5 active torsions:
REMARK  status: ('A' for Active; 'I' for Inactive)
REMARK    1  A    between atoms: O_1  and  C_2
REMARK    2  A    between atoms: C_2  and  C_3
REMARK    3  A    between atoms: C_8  and  O_10
REMARK    4  A    between atoms: C_11  and  O_13
REMARK    5  A    between atoms: C_14  and  O_16
REMARK                            x       y       z     vdW  Elec       q    Type
REMARK                         _______ _______ _______ _____ _____    ______ ____
ROOT
ATOM      1  C   UNL     1       3.190  -1.567  -0.155  0.00  0.00    +0.147 C 
ATOM      2  C   UNL     1       4.645  -1.196  -0.103  0.00  0.00    +0.182 C 
ATOM      3  C   UNL     1       5.277  -1.924   1.100  0.00  0.00    +0.174 C 
ATOM      4  C   UNL     1       5.275  -3.461   0.889  0.00  0.00    +0.148 C 
ATOM      5  C   UNL     1       4.037  -4.018   0.164  0.00  0.00    +0.068 C 
ATOM      6  C   UNL     1       2.900  -3.038   0.067  0.00  0.00    +0.158 C 
ATOM      7  O   UNL     1       2.791  -2.435  -1.231  0.00  0.00    -0.360 OA
ENDROOT
BRANCH   2   8
ATOM      8  O   UNL     1       5.330  -1.594  -1.305  0.00  0.00    -0.386 OA
ATOM      9  H   UNL     1       4.633  -1.820  -1.952  0.00  0.00    +0.210 HD
ENDBRANCH   2   8
BRANCH   3  10
ATOM     10  O   UNL     1       6.631  -1.474   1.283  0.00  0.00    -0.387 OA
ATOM     11  H   UNL     1       7.027  -1.455   0.392  0.00  0.00    +0.210 HD
ENDBRANCH   3  10
BRANCH   4  12
ATOM     12  O   UNL     1       5.378  -4.107   2.168  0.00  0.00    -0.389 OA
ATOM     13  H   UNL     1       5.883  -4.927   2.033  0.00  0.00    +0.210 HD
ENDBRANCH   4  12
BRANCH   1  14
ATOM     14  C   UNL     1       2.176  -0.512   0.148  0.00  0.00    +0.196 C 
BRANCH  14  15
ATOM     15  O   UNL     1       2.585   0.237   1.283  0.00  0.00    -0.392 OA
ATOM     16  H   UNL     1       1.967   0.985   1.368  0.00  0.00    +0.210 HD
ENDBRANCH  14  15
ENDBRANCH   1  14
TORSDOF 5
