REMARK  Name = 
REMARK  17 active torsions:
REMARK  status: ('A' for Active; 'I' for Inactive)
REMARK    1  A    between atoms: C_2  and  C_3
REMARK    2  A    between atoms: C_2  and  N_7
REMARK    3  A    between atoms: C_2  and  C_21
REMARK    4  A    between atoms: C_3  and  C_4
REMARK    5  A    between atoms: C_4  and  C_5
REMARK    6  A    between atoms: C_4  and  C_6
REMARK    7  A    between atoms: C_8  and  C_10
REMARK    8  A    between atoms: C_10  and  C_12
REMARK    9  A    between atoms: C_10  and  O_16
REMARK   10  A    between atoms: C_12  and  C_13
REMARK   11  A    between atoms: C_13  and  C_14
REMARK   12  A    between atoms: C_14  and  C_15
REMARK   13  A    between atoms: O_16  and  P_17
REMARK   14  A    between atoms: P_17  and  O_18
REMARK   15  A    between atoms: P_17  and  O_19
REMARK   16  A    between atoms: N_23  and  C_24
REMARK   17  A    between atoms: C_27  and  N_30
REMARK                            x       y       z     vdW  Elec       q    Type
REMARK                         _______ _______ _______ _____ _____    ______ ____
ROOT
ATOM      1  C   UNL     1       1.600  -0.342  -4.959  0.00  0.00    +0.159 C 
ENDROOT
BRANCH   1   2
ATOM      2  C   UNL     1       1.770   1.202  -4.854  0.00  0.00    +0.238 C 
ATOM      3  N   UNL     1       1.733   1.859  -6.082  0.00  0.00    -0.284 N 
ATOM      4  H   UNL     1       1.538   1.297  -6.896  0.00  0.00    +0.155 HD
ATOM      5  O   UNL     1       1.859   1.763  -3.758  0.00  0.00    -0.273 OA
BRANCH   3   6
ATOM      6  C   UNL     1       1.715   3.242  -6.310  0.00  0.00    +0.034 A 
ATOM      7  C   UNL     1       1.134   3.700  -7.507  0.00  0.00    +0.030 A 
ATOM      8  C   UNL     1       1.042   5.071  -7.772  0.00  0.00    +0.086 A 
ATOM      9  C   UNL     1       1.571   5.983  -6.852  0.00  0.00    +0.273 A 
ATOM     10  C   UNL     1       2.199   5.533  -5.688  0.00  0.00    +0.086 A 
ATOM     11  C   UNL     1       2.259   4.162  -5.417  0.00  0.00    +0.030 A 
BRANCH   9  12
ATOM     12  N   UNL     1       1.456   7.427  -7.102  0.00  0.00    +0.080 N 
ATOM     13  O   UNL     1       0.863   7.787  -8.129  0.00  0.00    +0.041 OA
ATOM     14  O   UNL     1       1.952   8.195  -6.270  0.00  0.00    -0.576 OA
ENDBRANCH   9  12
ENDBRANCH   3   6
ENDBRANCH   1   2
BRANCH   1  15
ATOM     15  N   UNL     1       1.961  -0.961  -3.659  0.00  0.00    -0.302 N 
ATOM     16  H   UNL     1       1.608  -0.522  -2.813  0.00  0.00    +0.150 HD
ATOM     17  C   UNL     1       3.028  -1.827  -3.523  0.00  0.00    +0.243 C 
ATOM     18  O   UNL     1       3.677  -2.208  -4.497  0.00  0.00    -0.273 OA
BRANCH  17  19
ATOM     19  C   UNL     1       3.381  -2.304  -2.077  0.00  0.00    +0.216 C 
BRANCH  19  20
ATOM     20  O   UNL     1       2.476  -1.858  -1.085  0.00  0.00    -0.274 OA
BRANCH  20  21
ATOM     21  P   UNL     1       2.857  -2.179   0.572  0.00  0.00    +0.473 P 
ATOM     22  O   UNL     1       3.199  -2.467   2.055  0.00  0.00    -0.227 OA
BRANCH  21  23
ATOM     23  O   UNL     1       1.442  -1.463   0.966  0.00  0.00    -0.303 OA
ATOM     24  H   UNL     1       1.538  -1.194   1.903  0.00  0.00    +0.222 HD
ENDBRANCH  21  23
BRANCH  21  25
ATOM     25  O   UNL     1       3.673  -0.764   0.489  0.00  0.00    -0.303 OA
ATOM     26  H   UNL     1       3.036  -0.063   0.256  0.00  0.00    +0.222 HD
ENDBRANCH  21  25
ENDBRANCH  20  21
ENDBRANCH  19  20
BRANCH  19  27
ATOM     27  C   UNL     1       3.527  -3.837  -2.049  0.00  0.00    +0.042 C 
BRANCH  27  28
ATOM     28  C   UNL     1       2.201  -4.596  -2.206  0.00  0.00    +0.003 C 
BRANCH  28  29
ATOM     29  C   UNL     1       2.414  -6.109  -2.085  0.00  0.00    -0.003 C 
ATOM     30  C   UNL     1       1.115  -6.881  -2.265  0.00  0.00    +0.004 C 
ENDBRANCH  28  29
ENDBRANCH  27  28
ENDBRANCH  19  27
ENDBRANCH  17  19
ENDBRANCH   1  15
BRANCH   1  31
ATOM     31  C   UNL     1       0.163  -0.766  -5.371  0.00  0.00    +0.034 C 
BRANCH  31  32
ATOM     32  C   UNL     1      -0.338  -0.322  -6.771  0.00  0.00    -0.015 C 
ATOM     33  C   UNL     1      -1.762  -0.817  -7.045  0.00  0.00    +0.007 C 
ATOM     34  C   UNL     1       0.571  -0.785  -7.915  0.00  0.00    +0.007 C 
ENDBRANCH  31  32
ENDBRANCH   1  31
TORSDOF 14
