REMARK  Name = 
REMARK  7 active torsions:
REMARK  status: ('A' for Active; 'I' for Inactive)
REMARK    1  A    between atoms: C_1  and  C_2
REMARK    2  A    between atoms: C_2  and  C_3
REMARK    3  A    between atoms: C_3  and  C_10
REMARK    4  A    between atoms: C_4  and  C_6
REMARK    5  A    between atoms: N_12  and  C_13
REMARK    6  A    between atoms: C_13  and  C_15
REMARK    7  A    between atoms: C_13  and  C_16
REMARK                            x       y       z     vdW  Elec       q    Type
REMARK                         _______ _______ _______ _____ _____    ______ ____
ROOT
ATOM      1  C   UNL     1       2.191   0.145   0.133  0.00  0.00    +0.223 C 
ATOM      2  N   UNL     1       1.250  -0.326  -0.748  0.00  0.00    -0.308 N 
ATOM      3  H   UNL     1       1.350  -0.071  -1.720  0.00  0.00    +0.149 HD
ATOM      4  O   UNL     1       2.355  -0.266   1.271  0.00  0.00    -0.275 OA
ENDROOT
BRANCH   1   5
ATOM      5  C   UNL     1       3.118   1.169  -0.455  0.00  0.00    +0.085 C 
ATOM      6  C   UNL     1       3.284   2.466   0.349  0.00  0.00    +0.136 C 
ATOM      7 CL   UNL     1       4.865   3.236   0.458  0.00  0.00    -0.099 Cl
ATOM      8 CL   UNL     1       2.296   2.833   1.778  0.00  0.00    -0.099 Cl
ATOM      9  C   UNL     1       2.502   2.488  -0.943  0.00  0.00    +0.040 C 
ATOM     10  C   UNL     1       2.978   3.257  -2.131  0.00  0.00    +0.011 C 
BRANCH   5  12
ATOM     11  C   UNL     1       4.895  -0.653  -0.754  0.00  0.00    +0.005 C 
ATOM     12  C   UNL     1       4.249   0.602  -1.320  0.00  0.00    +0.016 C 
ENDBRANCH   5  12
ENDBRANCH   1   5
BRANCH   2  13
ATOM     13  C   UNL     1       0.454  -1.505  -0.439  0.00  0.00    +0.100 C 
ATOM     14  C   UNL     1      -0.892  -1.421  -1.157  0.00  0.00    +0.033 C 
BRANCH  13  15
ATOM     15  C   UNL     1       1.217  -2.769  -0.804  0.00  0.00    -0.027 A 
ATOM     16  C   UNL     1       1.682  -2.996  -2.111  0.00  0.00    +0.007 A 
ATOM     17  C   UNL     1       2.444  -4.129  -2.410  0.00  0.00    +0.020 A 
ATOM     18  C   UNL     1       2.739  -5.051  -1.409  0.00  0.00    +0.041 A 
ATOM     19 CL   UNL     1       3.707  -6.426  -1.772  0.00  0.00    -0.084 Cl
ATOM     20  C   UNL     1       2.265  -4.858  -0.114  0.00  0.00    +0.020 A 
ATOM     21  C   UNL     1       1.509  -3.721   0.187  0.00  0.00    +0.007 A 
ENDBRANCH  13  15
ENDBRANCH   2  13
TORSDOF 4
