REMARK  Name = 
REMARK  4 active torsions:
REMARK  status: ('A' for Active; 'I' for Inactive)
REMARK    1  A    between atoms: C_1  and  C_2
REMARK    2  A    between atoms: C_2  and  O_4
REMARK    3  A    between atoms: C_2  and  C_5
REMARK    4  A    between atoms: C_5  and  C_6
REMARK                            x       y       z     vdW  Elec       q    Type
REMARK                         _______ _______ _______ _____ _____    ______ ____
ROOT
ATOM      1  C   UNL     1       3.038  -0.097  -1.499  0.00  0.00    +0.046 C 
ATOM      2  C   UNL     1       2.495   0.053  -0.089  0.00  0.00    +0.177 C 
ENDROOT
BRANCH   2   3
ATOM      3  C   UNL     1       2.995  -1.052   0.848  0.00  0.00    +0.158 C 
ATOM      4  O   UNL     1       3.585  -0.773   1.896  0.00  0.00    -0.295 OA
ATOM      5  C   UNL     1       2.688  -2.482   0.487  0.00  0.00    +0.089 C 
ENDBRANCH   2   3
BRANCH   2   6
ATOM      6  O   UNL     1       2.884   1.336   0.395  0.00  0.00    -0.385 OA
ATOM      7  H   UNL     1       3.062   1.227   1.352  0.00  0.00    +0.210 HD
ENDBRANCH   2   6
TORSDOF 2
