REMARK  Name = 
REMARK  3 active torsions:
REMARK  status: ('A' for Active; 'I' for Inactive)
REMARK    1  A    between atoms: O_1  and  C_2
REMARK    2  A    between atoms: C_2  and  C_4
REMARK    3  A    between atoms: C_4  and  C_6
REMARK                            x       y       z     vdW  Elec       q    Type
REMARK                         _______ _______ _______ _____ _____    ______ ____
ROOT
ATOM      1  C   UNL     1       3.217   0.239  -1.302  0.00  0.00    +0.269 C 
ATOM      2  O   UNL     1       2.589   1.190  -0.835  0.00  0.00    -0.280 OA
ENDROOT
BRANCH   1   3
ATOM      3  C   UNL     1       4.696   0.226  -1.360  0.00  0.00    +0.029 A 
ATOM      4  C   UNL     1       5.433  -0.963  -1.380  0.00  0.00    +0.012 A 
ATOM      5  C   UNL     1       6.827  -0.921  -1.464  0.00  0.00    +0.001 A 
ATOM      6  C   UNL     1       7.489   0.305  -1.519  0.00  0.00    +0.000 A 
ATOM      7  C   UNL     1       6.762   1.493  -1.471  0.00  0.00    +0.001 A 
ATOM      8  C   UNL     1       5.369   1.456  -1.384  0.00  0.00    +0.012 A 
ENDBRANCH   1   3
BRANCH   1   9
ATOM      9  C   UNL     1       2.378  -0.916  -1.851  0.00  0.00    +0.378 C 
ATOM     10  O   UNL     1       2.818  -1.888  -2.431  0.00  0.00    -0.241 OA
BRANCH   9  11
ATOM     11  O   UNL     1       1.070  -0.682  -1.614  0.00  0.00    -0.475 OA
ATOM     12  H   UNL     1       0.984   0.193  -1.165  0.00  0.00    +0.296 HD
ENDBRANCH   9  11
ENDBRANCH   1   9
TORSDOF 3
