REMARK  Name = 
REMARK  7 active torsions:
REMARK  status: ('A' for Active; 'I' for Inactive)
REMARK    1  A    between atoms: C_2  and  C_3
REMARK    2  A    between atoms: C_3  and  S_4
REMARK    3  A    between atoms: S_4  and  C_5
REMARK    4  A    between atoms: C_7  and  N_9
REMARK    5  A    between atoms: C_13  and  N_14
REMARK    6  A    between atoms: C_19  and  O_21
REMARK    7  A    between atoms: C_22  and  O_24
REMARK                            x       y       z     vdW  Elec       q    Type
REMARK                         _______ _______ _______ _____ _____    ______ ____
ROOT
ATOM      1  C   UNL     1       2.171   0.093   0.091  0.00  0.00    +0.162 C 
ATOM      2  C   UNL     1       2.720  -1.244   0.586  0.00  0.00    +0.177 C 
ATOM      3  C   UNL     1       3.986  -0.886   1.371  0.00  0.00    +0.195 C 
ATOM      4  C   UNL     1       4.077   0.641   1.259  0.00  0.00    +0.252 C 
ATOM      5  O   UNL     1       2.737   1.079   0.964  0.00  0.00    -0.347 OA
ENDROOT
BRANCH   4   6
ATOM      6  N   UNL     1       4.550   1.381   2.421  0.00  0.00    -0.303 N 
ATOM      7  C   UNL     1       5.466   0.958   3.357  0.00  0.00    +0.148 A 
ATOM      8  C   UNL     1       5.721   2.025   4.214  0.00  0.00    +0.058 A 
ATOM      9  C   UNL     1       6.638   1.804   5.252  0.00  0.00    +0.129 A 
ATOM     10  N   UNL     1       7.189   0.584   5.384  0.00  0.00    -0.220 NA
ATOM     11  C   UNL     1       6.855  -0.363   4.489  0.00  0.00    +0.225 A 
ATOM     12  C   UNL     1       4.936   3.120   3.769  0.00  0.00    +0.033 A 
ATOM     13  N   UNL     1       6.023  -0.266   3.431  0.00  0.00    -0.218 NA
ATOM     14  C   UNL     1       4.230   2.701   2.668  0.00  0.00    +0.091 A 
BRANCH   9  15
ATOM     15  N   UNL     1       7.018   2.785   6.155  0.00  0.00    -0.343 N 
ATOM     16  H   UNL     1       7.457   2.389   6.977  0.00  0.00    +0.144 HD
ATOM     17  H   UNL     1       6.348   3.527   6.305  0.00  0.00    +0.144 HD
ENDBRANCH   9  15
ENDBRANCH   4   6
BRANCH   2  18
ATOM     18  O   UNL     1       2.979  -2.126  -0.504  0.00  0.00    -0.386 OA
ATOM     19  H   UNL     1       3.946  -2.295  -0.481  0.00  0.00    +0.210 HD
ENDBRANCH   2  18
BRANCH   3  20
ATOM     20  O   UNL     1       5.123  -1.557   0.811  0.00  0.00    -0.385 OA
ATOM     21  H   UNL     1       5.862  -1.379   1.431  0.00  0.00    +0.210 HD
ENDBRANCH   3  20
BRANCH   1  22
ATOM     22  C   UNL     1       0.641   0.145   0.141  0.00  0.00    +0.103 C 
BRANCH  22  23
ATOM     23  S   UNL     1       0.007   1.708  -0.569  0.00  0.00    -0.161 S 
ATOM     24  C   UNL     1      -1.756   1.451  -0.262  0.00  0.00    +0.084 C 
ENDBRANCH  22  23
ENDBRANCH   1  22
TORSDOF 6
