REMARK  Name = 
REMARK  6 active torsions:
REMARK  status: ('A' for Active; 'I' for Inactive)
REMARK    1  A    between atoms: C_1  and  C_2
REMARK    2  A    between atoms: C_2  and  N_4
REMARK    3  A    between atoms: C_2  and  C_7
REMARK    4  A    between atoms: N_4  and  C_5
REMARK    5  A    between atoms: N_4  and  C_6
REMARK    6  A    between atoms: C_7  and  O_8
REMARK                            x       y       z     vdW  Elec       q    Type
REMARK                         _______ _______ _______ _____ _____    ______ ____
ROOT
ATOM      1  C   UNL     1       0.916  -0.095  -0.146  0.00  0.00    +0.036 C 
ATOM      2  C   UNL     1       2.451  -0.036  -0.083  0.00  0.00    +0.162 C 
ENDROOT
BRANCH   2   3
ATOM      3  N   UNL     1       2.943   1.079   0.798  0.00  0.00    -0.296 NA
ATOM      4  C   UNL     1       2.479   2.379   0.276  0.00  0.00    +0.105 C 
ATOM      5  C   UNL     1       4.421   1.117   0.813  0.00  0.00    +0.105 C 
ENDBRANCH   2   3
BRANCH   2   6
ATOM      6  C   UNL     1       2.896  -1.400   0.469  0.00  0.00    +0.322 C 
ATOM      7  O   UNL     1       3.110  -2.386  -0.219  0.00  0.00    -0.249 OA
BRANCH   6   8
ATOM      8  O   UNL     1       2.964  -1.413   1.825  0.00  0.00    -0.480 OA
ATOM      9  H   UNL     1       2.790  -0.494   2.132  0.00  0.00    +0.295 HD
ENDBRANCH   6   8
ENDBRANCH   2   6
TORSDOF 3
