REMARK  Name = 
REMARK  5 active torsions:
REMARK  status: ('A' for Active; 'I' for Inactive)
REMARK    1  A    between atoms: C_1  and  S_2
REMARK    2  A    between atoms: S_2  and  C_3
REMARK    3  A    between atoms: C_7  and  N_8
REMARK    4  A    between atoms: C_14  and  C_21
REMARK    5  A    between atoms: N_17  and  C_18
REMARK                            x       y       z     vdW  Elec       q    Type
REMARK                         _______ _______ _______ _____ _____    ______ ____
ROOT
ATOM      1  N   UNL     1       4.340   1.914  -4.513  0.00  0.00    -0.284 N 
ATOM      2  H   UNL     1       3.959   1.851  -3.580  0.00  0.00    +0.155 HD
ATOM      3  C   UNL     1       4.479   0.634  -5.045  0.00  0.00    +0.221 A 
ATOM      4  N   UNL     1       5.032   0.437  -6.250  0.00  0.00    -0.196 NA
ATOM      5  C   UNL     1       5.128  -0.823  -6.712  0.00  0.00    +0.148 A 
ATOM      6  C   UNL     1       4.688  -1.912  -5.985  0.00  0.00    +0.037 A 
ATOM      7  C   UNL     1       4.806  -3.264  -6.499  0.00  0.00    +0.027 A 
ATOM      8  C   UNL     1       5.317  -3.462  -7.724  0.00  0.00    +0.050 A 
ATOM      9  C   UNL     1       5.773  -2.304  -8.565  0.00  0.00    +0.260 A 
ATOM     10  O   UNL     1       6.204  -2.514  -9.699  0.00  0.00    -0.267 OA
ATOM     11  C   UNL     1       4.139  -1.614  -4.760  0.00  0.00    +0.126 A 
ATOM     12  N   UNL     1       5.687  -1.042  -7.997  0.00  0.00    -0.295 N 
ATOM     13  C   UNL     1       6.149   0.120  -8.738  0.00  0.00    +0.154 C 
ATOM     14  N   UNL     1       4.037  -0.365  -4.267  0.00  0.00    -0.222 NA
ENDROOT
BRANCH   8  15
ATOM     15  C   UNL     1       5.440  -4.836  -8.249  0.00  0.00    +0.024 A 
ATOM     16  C   UNL     1       6.646  -5.549  -8.132  0.00  0.00    +0.050 A 
ATOM     17 CL   UNL     1       8.026  -4.883  -7.320  0.00  0.00    -0.083 Cl
ATOM     18  C   UNL     1       6.771  -6.841  -8.651  0.00  0.00    +0.021 A 
ATOM     19  C   UNL     1       5.690  -7.446  -9.289  0.00  0.00    +0.003 A 
ATOM     20  C   UNL     1       4.484  -6.760  -9.405  0.00  0.00    +0.021 A 
ATOM     21  C   UNL     1       4.358  -5.464  -8.891  0.00  0.00    +0.050 A 
ATOM     22 CL   UNL     1       2.820  -4.687  -9.068  0.00  0.00    -0.083 Cl
ENDBRANCH   8  15
BRANCH   1  25
ATOM     23  C   UNL     1       4.501   4.654  -7.054  0.00  0.00    +0.009 A 
ATOM     24  C   UNL     1       4.435   3.373  -6.496  0.00  0.00    +0.038 A 
ATOM     25  C   UNL     1       4.325   3.179  -5.115  0.00  0.00    +0.035 A 
ATOM     26  C   UNL     1       4.281   4.320  -4.299  0.00  0.00    +0.023 A 
ATOM     27  C   UNL     1       4.317   5.606  -4.848  0.00  0.00    +0.003 A 
ATOM     28  C   UNL     1       4.428   5.772  -6.227  0.00  0.00    +0.015 A 
BRANCH  23  30
ATOM     29  C   UNL     1       6.526   4.665  -8.857  0.00  0.00    +0.090 C 
ATOM     30  S   UNL     1       4.722   4.842  -8.812  0.00  0.00    -0.129 S 
ENDBRANCH  23  30
ENDBRANCH   1  25
TORSDOF 3
