REMARK  Name = 
REMARK  2 active torsions:
REMARK  status: ('A' for Active; 'I' for Inactive)
REMARK    1  A    between atoms: C_3  and  C_4
REMARK    2  A    between atoms: C_4  and  N_5
REMARK                            x       y       z     vdW  Elec       q    Type
REMARK                         _______ _______ _______ _____ _____    ______ ____
ROOT
ATOM      1 CL   UNL     1       4.253   0.760  -2.413  0.00  0.00    -0.076 Cl
ATOM      2  C   UNL     1       3.851   0.070  -0.884  0.00  0.00    +0.128 A 
ATOM      3  C   UNL     1       4.424  -1.277  -0.582  0.00  0.00    +0.273 A 
ATOM      4  O   UNL     1       5.037  -1.944  -1.410  0.00  0.00    -0.266 OA
ATOM      5  N   UNL     1       4.223  -1.743   0.690  0.00  0.00    -0.274 N 
ATOM      6  H   UNL     1       4.596  -2.649   0.918  0.00  0.00    +0.173 HD
ATOM      7  C   UNL     1       3.413  -1.158   1.619  0.00  0.00    +0.327 A 
ATOM      8  O   UNL     1       3.204  -1.680   2.708  0.00  0.00    -0.247 OA
ATOM      9  N   UNL     1       2.859   0.031   1.247  0.00  0.00    -0.307 N 
ATOM     10  H   UNL     1       2.181   0.448   1.896  0.00  0.00    +0.170 HD
ATOM     11  C   UNL     1       3.072   0.664   0.038  0.00  0.00    +0.084 A 
ENDROOT
BRANCH  11  12
ATOM     12  C   UNL     1       2.449   2.041  -0.103  0.00  0.00    +0.281 C 
BRANCH  12  13
ATOM     13  N   UNL     1       0.988   1.994  -0.024  0.00  0.00    -0.219 N 
ATOM     14  C   UNL     1       0.330   1.956   1.187  0.00  0.00    +0.281 C 
ATOM     15  N   UNL     1       0.696   1.302   2.234  0.00  0.00    -0.104 NA
ATOM     16  H   UNL     1      -0.003   1.418   2.980  0.00  0.00    +0.363 HD
ATOM     17  C   UNL     1      -0.915   2.810   1.154  0.00  0.00    +0.131 C 
ATOM     18  C   UNL     1      -0.605   3.711  -0.038  0.00  0.00    +0.056 C 
ATOM     19  C   UNL     1       0.228   2.823  -0.961  0.00  0.00    +0.226 C 
ENDBRANCH  12  13
ENDBRANCH  11  12
TORSDOF 2
