REMARK  Name = 
REMARK  14 active torsions:
REMARK  status: ('A' for Active; 'I' for Inactive)
REMARK    1  A    between atoms: N_10  and  C_11
REMARK    2  A    between atoms: C_14  and  C_16
REMARK    3  A    between atoms: C_16  and  O_17
REMARK    4  A    between atoms: O_17  and  P_18
REMARK    5  A    between atoms: P_18  and  S_19
REMARK    6  A    between atoms: P_18  and  O_21
REMARK    7  A    between atoms: O_21  and  P_22
REMARK    8  A    between atoms: P_22  and  O_23
REMARK    9  A    between atoms: P_22  and  O_25
REMARK   10  A    between atoms: O_25  and  P_26
REMARK   11  A    between atoms: P_26  and  O_27
REMARK   12  A    between atoms: P_26  and  O_28
REMARK   13  A    between atoms: C_30  and  O_32
REMARK   14  A    between atoms: C_33  and  O_35
REMARK                            x       y       z     vdW  Elec       q    Type
REMARK                         _______ _______ _______ _____ _____    ______ ____
ROOT
ATOM      1  C   UNL     1      14.175  -2.825   2.180  0.00  0.00    +0.253 C 
ATOM      2  C   UNL     1      14.057  -1.544   3.022  0.00  0.00    +0.195 C 
ATOM      3  C   UNL     1      12.569  -1.194   2.997  0.00  0.00    +0.178 C 
ATOM      4  C   UNL     1      11.911  -2.402   2.327  0.00  0.00    +0.178 C 
ATOM      5  O   UNL     1      12.880  -3.465   2.364  0.00  0.00    -0.346 OA
ENDROOT
BRANCH   1  13
ATOM      6  N   UNL     1      15.935  -1.546  -3.485  0.00  0.00    -0.341 N 
ATOM      7  H   UNL     1      15.700  -2.497  -3.745  0.00  0.00    +0.144 HD
ATOM      8  H   UNL     1      16.755  -1.132  -3.909  0.00  0.00    +0.144 HD
ATOM      9  C   UNL     1      15.904  -1.334  -2.112  0.00  0.00    +0.147 A 
ATOM     10  C   UNL     1      15.179  -2.143  -1.220  0.00  0.00    +0.147 A 
ATOM     11  N   UNL     1      14.404  -3.264  -1.409  0.00  0.00    -0.231 NA
ATOM     12  C   UNL     1      13.994  -3.593  -0.201  0.00  0.00    +0.203 A 
ATOM     13  N   UNL     1      14.437  -2.712   0.758  0.00  0.00    -0.286 N 
ATOM     14  C   UNL     1      15.245  -1.808   0.124  0.00  0.00    +0.167 A 
ATOM     15  N   UNL     1      15.954  -0.808   0.668  0.00  0.00    -0.216 NA
ATOM     16  C   UNL     1      16.603  -0.099  -0.275  0.00  0.00    +0.225 A 
ATOM     17  N   UNL     1      16.625  -0.305  -1.611  0.00  0.00    -0.219 NA
ENDBRANCH   1  13
BRANCH   2  18
ATOM     18  O   UNL     1      14.443  -1.826   4.387  0.00  0.00    -0.385 OA
ATOM     19  H   UNL     1      13.920  -2.583   4.707  0.00  0.00    +0.210 HD
ENDBRANCH   2  18
BRANCH   3  20
ATOM     20  O   UNL     1      12.336  -0.009   2.241  0.00  0.00    -0.386 OA
ATOM     21  H   UNL     1      11.394   0.222   2.338  0.00  0.00    +0.210 HD
ENDBRANCH   3  20
BRANCH   4  22
ATOM     22  C   UNL     1      10.616  -2.836   3.001  0.00  0.00    +0.205 C 
BRANCH  22  23
ATOM     23  O   UNL     1       9.669  -1.781   2.941  0.00  0.00    -0.297 OA
BRANCH  23  24
ATOM     24  P   UNL     1       8.210  -2.067   3.585  0.00  0.00    +0.397 P 
ATOM     25  O   UNL     1       8.309  -2.486   5.019  0.00  0.00    -0.246 OA
BRANCH  24  26
ATOM     26  S   UNL     1       7.046  -0.357   3.392  0.00  0.00    -0.058 S 
ATOM     27  H   UNL     1       7.212   0.041   4.659  0.00  0.00    +0.114 HD
ENDBRANCH  24  26
BRANCH  24  28
ATOM     28  O   UNL     1       7.658  -3.250   2.644  0.00  0.00    -0.200 OA
BRANCH  28  29
ATOM     29  P   UNL     1       6.079  -3.788   3.103  0.00  0.00    +0.491 P 
ATOM     30  O   UNL     1       6.525  -5.247   2.953  0.00  0.00    -0.226 OA
BRANCH  29  31
ATOM     31  O   UNL     1       5.526  -3.400   1.613  0.00  0.00    -0.302 OA
ATOM     32  H   UNL     1       5.630  -4.183   1.038  0.00  0.00    +0.222 HD
ENDBRANCH  29  31
BRANCH  29  33
ATOM     33  O   UNL     1       4.500  -4.325   3.563  0.00  0.00    -0.186 OA
BRANCH  33  34
ATOM     34  P   UNL     1       4.566  -5.023   5.144  0.00  0.00    +0.481 P 
ATOM     35  O   UNL     1       4.625  -5.648   6.560  0.00  0.00    -0.227 OA
BRANCH  34  36
ATOM     36  O   UNL     1       2.993  -4.576   5.261  0.00  0.00    -0.302 OA
ATOM     37  H   UNL     1       2.405  -5.226   4.838  0.00  0.00    +0.222 HD
ENDBRANCH  34  36
BRANCH  34  38
ATOM     38  O   UNL     1       5.168  -3.590   5.666  0.00  0.00    -0.302 OA
ATOM     39  H   UNL     1       4.895  -3.543   6.608  0.00  0.00    +0.222 HD
ENDBRANCH  34  38
ENDBRANCH  33  34
ENDBRANCH  29  33
ENDBRANCH  28  29
ENDBRANCH  24  28
ENDBRANCH  23  24
ENDBRANCH  22  23
ENDBRANCH   4  22
TORSDOF 14
