REMARK  Name = 
REMARK  6 active torsions:
REMARK  status: ('A' for Active; 'I' for Inactive)
REMARK    1  A    between atoms: O_1  and  C_2
REMARK    2  A    between atoms: C_5  and  C_16
REMARK    3  A    between atoms: C_7  and  O_9
REMARK    4  A    between atoms: C_10  and  O_12
REMARK    5  A    between atoms: C_13  and  O_15
REMARK    6  A    between atoms: C_16  and  O_17
REMARK                            x       y       z     vdW  Elec       q    Type
REMARK                         _______ _______ _______ _____ _____    ______ ____
ROOT
ATOM      1  C   UNL     1       2.474  -0.039   0.036  0.00  0.00    +0.280 C 
ATOM      2  C   UNL     1       2.904   1.100  -0.918  0.00  0.00    +0.201 C 
ATOM      3  C   UNL     1       2.540   0.738  -2.373  0.00  0.00    +0.179 C 
ATOM      4  C   UNL     1       3.056  -0.664  -2.735  0.00  0.00    +0.185 C 
ATOM      5  C   UNL     1       2.551  -1.673  -1.695  0.00  0.00    +0.260 C 
ATOM      6  O   UNL     1       2.968  -1.320  -0.361  0.00  0.00    -0.332 OA
ENDROOT
BRANCH   1   7
ATOM      7  O   UNL     1       1.053  -0.097   0.099  0.00  0.00    -0.365 OA
ATOM      8  H   UNL     1       0.845  -0.439   0.988  0.00  0.00    +0.213 HD
ENDBRANCH   1   7
BRANCH   2   9
ATOM      9  O   UNL     1       4.299   1.385  -0.765  0.00  0.00    -0.384 OA
ATOM     10  H   UNL     1       4.767   1.039  -1.553  0.00  0.00    +0.210 HD
ENDBRANCH   2   9
BRANCH   3  11
ATOM     11  O   UNL     1       1.128   0.808  -2.595  0.00  0.00    -0.386 OA
ATOM     12  H   UNL     1       0.670   0.576  -1.761  0.00  0.00    +0.210 HD
ENDBRANCH   3  11
BRANCH   4  13
ATOM     13  O   UNL     1       4.496  -0.609  -2.754  0.00  0.00    -0.386 OA
ATOM     14  H   UNL     1       4.804  -1.407  -3.232  0.00  0.00    +0.210 HD
ENDBRANCH   4  13
BRANCH   5  15
ATOM     15  C   UNL     1       3.087  -3.063  -2.019  0.00  0.00    +0.337 C 
ATOM     16  O   UNL     1       2.975  -3.616  -3.109  0.00  0.00    -0.248 OA
BRANCH  15  17
ATOM     17  O   UNL     1       3.733  -3.627  -0.968  0.00  0.00    -0.479 OA
ATOM     18  H   UNL     1       3.736  -2.975  -0.229  0.00  0.00    +0.295 HD
ENDBRANCH  15  17
ENDBRANCH   5  15
TORSDOF 6
