REMARK  Name = 
REMARK  12 active torsions:
REMARK  status: ('A' for Active; 'I' for Inactive)
REMARK    1  A    between atoms: C_1  and  O_2
REMARK    2  A    between atoms: O_2  and  C_3
REMARK    3  A    between atoms: N_8  and  C_9
REMARK    4  A    between atoms: C_9  and  C_10
REMARK    5  A    between atoms: C_10  and  C_11
REMARK    6  A    between atoms: C_11  and  C_12
REMARK    7  A    between atoms: C_12  and  C_13
REMARK    8  A    between atoms: C_13  and  C_14
REMARK    9  A    between atoms: C_14  and  C_15
REMARK   10  A    between atoms: C_15  and  C_16
REMARK   11  A    between atoms: C_16  and  N_17
REMARK   12  A    between atoms: C_33  and  O_35
REMARK                            x       y       z     vdW  Elec       q    Type
REMARK                         _______ _______ _______ _____ _____    ______ ____
ROOT
ATOM      1  C   UNL     1       5.999  -5.754   8.861  0.00  0.00    +0.162 A 
ATOM      2  C   UNL     1       6.452  -5.552  10.176  0.00  0.00    +0.167 A 
ATOM      3  C   UNL     1       7.493  -4.676  10.525  0.00  0.00    +0.024 A 
ATOM      4  C   UNL     1       8.195  -5.132  11.817  0.00  0.00    +0.061 C 
ATOM      5  C   UNL     1       6.851  -5.877  12.312  0.00  0.00    +0.191 C 
ATOM      6  C   UNL     1       6.046  -4.843  13.322  0.00  0.00    +0.081 C 
ATOM      7  C   UNL     1       6.879  -4.502  14.608  0.00  0.00    +0.141 C 
ATOM      8  C   UNL     1       8.187  -5.205  14.384  0.00  0.00    +0.001 C 
ATOM      9  C   UNL     1       8.604  -4.656  13.208  0.00  0.00    -0.013 C 
ATOM     10  C   UNL     1       9.687  -5.401  11.364  0.00  0.00    +0.091 C 
ATOM     11  C   UNL     1      10.535  -4.360  10.531  0.00  0.00    +0.351 C 
ATOM     12  N   UNL     1       9.933  -2.984  10.368  0.00  0.00    -0.234 N 
ATOM     13  C   UNL     1       8.846  -2.800   9.725  0.00  0.00    +0.311 C 
ATOM     14  C   UNL     1       7.931  -3.872   9.476  0.00  0.00    +0.046 A 
ATOM     15  C   UNL     1       7.503  -4.016   8.152  0.00  0.00    +0.018 A 
ATOM     16  O   UNL     1       5.978  -6.247  11.240  0.00  0.00    -0.484 OA
ATOM     17  C   UNL     1       6.574  -4.996   7.844  0.00  0.00    +0.050 A 
ENDROOT
BRANCH   1  19
ATOM     18  C   UNL     1       4.529  -7.598   9.276  0.00  0.00    +0.277 C 
ATOM     19  O   UNL     1       5.094  -6.655   8.382  0.00  0.00    -0.491 OA
ENDBRANCH   1  19
BRANCH   7  20
ATOM     20  O   UNL     1       7.229  -3.111  14.694  0.00  0.00    -0.388 OA
ATOM     21  H   UNL     1       8.023  -3.075  15.268  0.00  0.00    +0.210 HD
ENDBRANCH   7  20
BRANCH  12  22
ATOM     22  C   UNL     1      10.462  -1.805  11.106  0.00  0.00    +0.350 C 
BRANCH  22  23
ATOM     23  C   UNL     1      11.793  -1.294  10.586  0.00  0.00    +0.072 C 
BRANCH  23  24
ATOM     24  C   UNL     1      12.302  -0.145  11.479  0.00  0.00    +0.006 C 
BRANCH  24  25
ATOM     25  C   UNL     1      12.403  -0.498  12.971  0.00  0.00    +0.000 C 
BRANCH  25  26
ATOM     26  C   UNL     1      13.267  -1.735  13.198  0.00  0.00    +0.000 C 
BRANCH  26  27
ATOM     27  C   UNL     1      13.277  -2.182  14.654  0.00  0.00    +0.002 C 
BRANCH  27  28
ATOM     28  C   UNL     1      14.168  -3.413  14.803  0.00  0.00    +0.019 C 
BRANCH  28  29
ATOM     29  C   UNL     1      14.207  -3.906  16.249  0.00  0.00    +0.117 C 
BRANCH  29  30
ATOM     30  N   UNL     1      15.127  -4.977  16.391  0.00  0.00    -0.234 N 
ATOM     31  C   UNL     1      16.499  -4.799  16.476  0.00  0.00    +0.254 C 
ATOM     32  O   UNL     1      17.127  -3.754  16.440  0.00  0.00    -0.270 OA
ATOM     33  C   UNL     1      17.112  -6.120  16.577  0.00  0.00    +0.049 A 
ATOM     34  C   UNL     1      16.097  -7.036  16.523  0.00  0.00    +0.049 A 
ATOM     35  C   UNL     1      16.332  -8.403  16.600  0.00  0.00    +0.014 A 
ATOM     36  C   UNL     1      17.675  -8.809  16.731  0.00  0.00    +0.001 A 
ATOM     37  C   UNL     1      18.712  -7.857  16.772  0.00  0.00    +0.001 A 
ATOM     38  C   UNL     1      18.439  -6.488  16.692  0.00  0.00    +0.014 A 
ATOM     39  C   UNL     1      14.849  -6.322  16.372  0.00  0.00    +0.254 C 
ATOM     40  O   UNL     1      13.773  -6.828  16.188  0.00  0.00    -0.270 OA
ENDBRANCH  29  30
ENDBRANCH  28  29
ENDBRANCH  27  28
ENDBRANCH  26  27
ENDBRANCH  25  26
ENDBRANCH  24  25
ENDBRANCH  23  24
ENDBRANCH  22  23
ENDBRANCH  12  22
TORSDOF 11
