REMARK  Name = 
REMARK  3 active torsions:
REMARK  status: ('A' for Active; 'I' for Inactive)
REMARK    1  A    between atoms: O_1  and  C_2
REMARK    2  A    between atoms: C_2  and  C_4
REMARK    3  A    between atoms: C_4  and  N_5
REMARK                            x       y       z     vdW  Elec       q    Type
REMARK                         _______ _______ _______ _____ _____    ______ ____
ROOT
ATOM      1  N   UNL     1       4.591  -0.913  -0.626  0.00  0.00    -0.264 N 
ATOM      2  C   UNL     1       5.088   0.384  -0.727  0.00  0.00    +0.262 A 
ATOM      3  O   UNL     1       4.397   1.357  -1.013  0.00  0.00    -0.267 OA
ATOM      4  C   UNL     1       6.539   0.567  -0.500  0.00  0.00    +0.048 A 
ATOM      5  C   UNL     1       7.365  -0.554  -0.362  0.00  0.00    +0.007 A 
ATOM      6  C   UNL     1       8.759  -0.368  -0.199  0.00  0.00    -0.016 A 
ATOM      7  C   UNL     1       9.276   0.937  -0.137  0.00  0.00    +0.008 A 
ATOM      8  C   UNL     1       8.435   2.045  -0.252  0.00  0.00    +0.001 A 
ATOM      9  C   UNL     1       9.595  -1.491  -0.096  0.00  0.00    +0.008 A 
ATOM     10  C   UNL     1       9.065  -2.781  -0.145  0.00  0.00    +0.001 A 
ATOM     11  C   UNL     1       7.689  -2.965  -0.272  0.00  0.00    +0.014 A 
ATOM     12  C   UNL     1       6.844  -1.853  -0.371  0.00  0.00    +0.048 A 
ATOM     13  C   UNL     1       7.069   1.862  -0.444  0.00  0.00    +0.014 A 
ATOM     14  C   UNL     1       5.377  -2.042  -0.427  0.00  0.00    +0.262 A 
ATOM     15  O   UNL     1       4.880  -3.150  -0.227  0.00  0.00    -0.267 OA
ENDROOT
BRANCH   1  16
ATOM     16  C   UNL     1       3.143  -1.093  -0.727  0.00  0.00    +0.248 C 
BRANCH  16  17
ATOM     17  C   UNL     1       2.494  -1.209   0.647  0.00  0.00    +0.325 C 
ATOM     18  O   UNL     1       1.602  -0.475   1.049  0.00  0.00    -0.249 OA
BRANCH  17  19
ATOM     19  O   UNL     1       2.932  -2.263   1.381  0.00  0.00    -0.479 OA
ATOM     20  H   UNL     1       3.575  -2.839   0.902  0.00  0.00    +0.295 HD
ENDBRANCH  17  19
ENDBRANCH  16  17
ENDBRANCH   1  16
TORSDOF 3
