REMARK  Name = 
REMARK  2 active torsions:
REMARK  status: ('A' for Active; 'I' for Inactive)
REMARK    1  A    between atoms: N_3  and  C_4
REMARK    2  A    between atoms: C_4  and  C_5
REMARK                            x       y       z     vdW  Elec       q    Type
REMARK                         _______ _______ _______ _____ _____    ______ ____
ROOT
ATOM      1  C   UNL     1       4.854   2.500  -0.848  0.00  0.00    -0.030 A 
ATOM      2  C   UNL     1       5.610   2.662  -2.018  0.00  0.00    +0.005 A 
ATOM      3  C   UNL     1       5.962   3.938  -2.459  0.00  0.00    +0.000 A 
ATOM      4  C   UNL     1       5.560   5.062  -1.740  0.00  0.00    +0.000 A 
ATOM      5  C   UNL     1       4.810   4.911  -0.575  0.00  0.00    +0.000 A 
ATOM      6  C   UNL     1       4.455   3.637  -0.131  0.00  0.00    +0.005 A 
ENDROOT
BRANCH   1   7
ATOM      7  C   UNL     1       4.399   1.131  -0.421  0.00  0.00    +0.139 C 
BRANCH   7  10
ATOM      8  O   UNL     1       2.918  -1.268  -0.078  0.00  0.00    -0.280 OA
ATOM      9  C   UNL     1       2.510  -0.381  -0.812  0.00  0.00    +0.325 C 
ATOM     10  N   UNL     1       3.140   0.808  -1.047  0.00  0.00    -0.314 N 
ATOM     11  H   UNL     1       2.721   1.481  -1.676  0.00  0.00    +0.149 HD
ENDBRANCH   7  10
ENDBRANCH   1   7
TORSDOF 2
