REMARK  Name = 
REMARK  9 active torsions:
REMARK  status: ('A' for Active; 'I' for Inactive)
REMARK    1  A    between atoms: C_2  and  S_3
REMARK    2  A    between atoms: C_2  and  C_4
REMARK    3  A    between atoms: C_2  and  C_11
REMARK    4  A    between atoms: C_4  and  C_5
REMARK    5  A    between atoms: N_13  and  C_14
REMARK    6  A    between atoms: C_14  and  C_15
REMARK    7  A    between atoms: C_18  and  C_30
REMARK    8  A    between atoms: C_22  and  C_24
REMARK    9  A    between atoms: C_30  and  O_31
REMARK                            x       y       z     vdW  Elec       q    Type
REMARK                         _______ _______ _______ _____ _____    ______ ____
ROOT
ATOM      1  C   UNL     1       5.830   3.131  -0.738  0.00  0.00    +0.234 C 
ATOM      2  N   UNL     1       6.163   4.357  -1.333  0.00  0.00    -0.280 N 
ATOM      3  C   UNL     1       7.093   5.192  -0.552  0.00  0.00    +0.107 C 
ATOM      4  C   UNL     1       6.944   6.620  -1.109  0.00  0.00    +0.030 C 
ATOM      5  C   UNL     1       5.962   6.503  -2.264  0.00  0.00    +0.036 C 
ATOM      6  C   UNL     1       5.156   5.256  -1.935  0.00  0.00    +0.185 C 
ATOM      7  O   UNL     1       6.652   2.470  -0.095  0.00  0.00    -0.274 OA
ENDROOT
BRANCH   3   8
ATOM      8  C   UNL     1       8.542   4.776  -0.427  0.00  0.00    -0.027 A 
ATOM      9  C   UNL     1       9.264   4.151  -1.447  0.00  0.00    +0.005 A 
ATOM     10  C   UNL     1      10.609   3.811  -1.257  0.00  0.00    +0.000 A 
ATOM     11  C   UNL     1      11.250   4.102  -0.051  0.00  0.00    +0.000 A 
ATOM     12  C   UNL     1      10.552   4.738   0.967  0.00  0.00    +0.000 A 
ATOM     13  C   UNL     1       9.211   5.075   0.779  0.00  0.00    +0.005 A 
ENDBRANCH   3   8
BRANCH   6  14
ATOM     14  C   UNL     1       4.452   4.777  -3.206  0.00  0.00    +0.325 C 
ATOM     15  O   UNL     1       3.389   5.221  -3.607  0.00  0.00    -0.249 OA
BRANCH  14  16
ATOM     16  O   UNL     1       5.143   3.835  -3.884  0.00  0.00    -0.479 OA
ATOM     17  H   UNL     1       6.009   3.661  -3.448  0.00  0.00    +0.295 HD
ENDBRANCH  14  16
ENDBRANCH   6  14
BRANCH   1  18
ATOM     18  C   UNL     1       4.386   2.617  -0.840  0.00  0.00    +0.200 C 
BRANCH  18  20
ATOM     19  C   UNL     1       3.297   3.608   1.130  0.00  0.00    +0.226 C 
ATOM     20  N   UNL     1       3.813   2.496   0.489  0.00  0.00    -0.306 N 
ATOM     21  H   UNL     1       4.067   1.678   1.026  0.00  0.00    +0.149 HD
ATOM     22  O   UNL     1       3.305   4.721   0.610  0.00  0.00    -0.275 OA
BRANCH  19  23
ATOM     23  C   UNL     1       2.657   3.383   2.496  0.00  0.00    +0.133 C 
BRANCH  23  24
ATOM     24  S   UNL     1       1.115   2.417   2.264  0.00  0.00    -0.165 S 
ATOM     25  H   UNL     1       1.678   1.379   1.629  0.00  0.00    +0.102 HD
ENDBRANCH  23  24
BRANCH  23  26
ATOM     26  C   UNL     1       3.574   2.697   3.510  0.00  0.00    +0.058 C 
BRANCH  26  27
ATOM     27  C   UNL     1       4.836   3.475   3.804  0.00  0.00    -0.046 A 
ATOM     28  C   UNL     1       6.090   2.938   3.485  0.00  0.00    +0.004 A 
ATOM     29  C   UNL     1       7.258   3.643   3.778  0.00  0.00    +0.000 A 
ATOM     30  C   UNL     1       7.186   4.894   4.387  0.00  0.00    +0.000 A 
ATOM     31  C   UNL     1       5.945   5.442   4.700  0.00  0.00    +0.000 A 
ATOM     32  C   UNL     1       4.775   4.736   4.414  0.00  0.00    +0.004 A 
ENDBRANCH  26  27
ENDBRANCH  23  26
ENDBRANCH  19  23
ENDBRANCH  18  20
ENDBRANCH   1  18
TORSDOF 9
