REMARK  Name = 
REMARK  0 active torsions:
REMARK  status: ('A' for Active; 'I' for Inactive)
REMARK                            x       y       z     vdW  Elec       q    Type
REMARK                         _______ _______ _______ _____ _____    ______ ____
ROOT
ATOM      1  I   UNL     1       3.997   0.605   1.832  0.00  0.00    -0.070 I 
ATOM      2  C   UNL     1       3.175   0.091  -0.066  0.00  0.00    +0.155 C 
ATOM      3  C   UNL     1       3.580   1.106  -1.124  0.00  0.00    +0.235 C 
ATOM      4  O   UNL     1       3.777   2.300  -0.910  0.00  0.00    -0.274 OA
ATOM      5  N   UNL     1       3.617   0.634  -2.417  0.00  0.00    -0.239 N 
ATOM      6  H   UNL     1       3.773   1.319  -3.143  0.00  0.00    +0.159 HD
ATOM      7  C   UNL     1       3.398  -0.647  -2.836  0.00  0.00    +0.306 C 
ATOM      8  O   UNL     1       3.323  -0.950  -4.020  0.00  0.00    -0.252 OA
ATOM      9  N   UNL     1       3.262  -1.576  -1.849  0.00  0.00    -0.298 N 
ATOM     10  H   UNL     1       3.238  -2.534  -2.182  0.00  0.00    +0.150 HD
ATOM     11  C   UNL     1       3.667  -1.284  -0.496  0.00  0.00    +0.129 C 
ENDROOT
TORSDOF 0
