REMARK  Name = 
REMARK  4 active torsions:
REMARK  status: ('A' for Active; 'I' for Inactive)
REMARK    1  A    between atoms: O_1  and  N_2
REMARK    2  A    between atoms: N_2  and  C_3
REMARK    3  A    between atoms: C_3  and  C_4
REMARK    4  A    between atoms: C_4  and  O_5
REMARK                            x       y       z     vdW  Elec       q    Type
REMARK                         _______ _______ _______ _____ _____    ______ ____
ROOT
ATOM      1  N   UNL     1       2.220  -0.108  -0.061  0.00  0.00    -0.176 N 
ATOM      2  C   UNL     1       2.062  -0.177   1.299  0.00  0.00    +0.353 C 
ATOM      3  O   UNL     1       2.373  -1.140   1.990  0.00  0.00    -0.277 OA
ENDROOT
BRANCH   1   4
ATOM      4  O   UNL     1       1.902   1.119  -0.673  0.00  0.00    -0.292 OA
ATOM      5  H   UNL     1       2.601   1.272  -1.337  0.00  0.00    +0.242 HD
ENDBRANCH   1   4
BRANCH   1   6
ATOM      6  C   UNL     1       3.048  -1.052  -0.826  0.00  0.00    +0.259 C 
BRANCH   6   7
ATOM      7  C   UNL     1       2.253  -2.085  -1.600  0.00  0.00    +0.325 C 
ATOM      8  O   UNL     1       2.774  -2.958  -2.287  0.00  0.00    -0.249 OA
BRANCH   7   9
ATOM      9  O   UNL     1       0.912  -1.977  -1.493  0.00  0.00    -0.479 OA
ATOM     10  H   UNL     1       0.649  -1.238  -0.907  0.00  0.00    +0.295 HD
ENDBRANCH   7   9
ENDBRANCH   6   7
ENDBRANCH   1   6
TORSDOF 4
