REMARK  Name = 
REMARK  13 active torsions:
REMARK  status: ('A' for Active; 'I' for Inactive)
REMARK    1  A    between atoms: C_1  and  O_2
REMARK    2  A    between atoms: O_2  and  C_3
REMARK    3  A    between atoms: C_6  and  C_8
REMARK    4  A    between atoms: C_8  and  O_9
REMARK    5  A    between atoms: C_10  and  O_12
REMARK    6  A    between atoms: C_13  and  O_15
REMARK    7  A    between atoms: C_16  and  S_18
REMARK    8  A    between atoms: S_18  and  C_19
REMARK    9  A    between atoms: C_22  and  C_24
REMARK   10  A    between atoms: C_24  and  O_25
REMARK   11  A    between atoms: C_26  and  O_28
REMARK   12  A    between atoms: C_29  and  O_31
REMARK   13  A    between atoms: C_32  and  O_34
REMARK                            x       y       z     vdW  Elec       q    Type
REMARK                         _______ _______ _______ _____ _____    ______ ____
ROOT
ATOM      1  S   UNL     1       7.265   2.934  -1.429  0.00  0.00    -0.116 S 
ENDROOT
BRANCH   1   3
ATOM      2  C   UNL     1       8.777   5.089  -0.365  0.00  0.00    +0.266 C 
ATOM      3  C   UNL     1       7.624   4.113  -0.040  0.00  0.00    +0.136 C 
ATOM      4  C   UNL     1       7.940   3.349   1.263  0.00  0.00    +0.163 C 
ATOM      5  C   UNL     1       9.348   2.728   1.259  0.00  0.00    +0.175 C 
ATOM      6  C   UNL     1      10.433   3.720   0.775  0.00  0.00    +0.178 C 
ATOM      7  O   UNL     1      10.060   4.463  -0.395  0.00  0.00    -0.342 OA
BRANCH   2   9
ATOM      8  C   UNL     1       9.188   7.427  -0.053  0.00  0.00    +0.197 C 
ATOM      9  O   UNL     1       8.727   6.212   0.515  0.00  0.00    -0.353 OA
ENDBRANCH   2   9
BRANCH   4  10
ATOM     10  O   UNL     1       7.770   4.243   2.378  0.00  0.00    -0.388 OA
ATOM     11  H   UNL     1       8.412   4.019   3.074  0.00  0.00    +0.210 HD
ENDBRANCH   4  10
BRANCH   5  12
ATOM     12  O   UNL     1       9.332   1.528   0.469  0.00  0.00    -0.387 OA
ATOM     13  H   UNL     1      10.054   1.549  -0.183  0.00  0.00    +0.210 HD
ENDBRANCH   5  12
BRANCH   6  14
ATOM     14  C   UNL     1      10.980   4.627   1.884  0.00  0.00    +0.190 C 
BRANCH  14  15
ATOM     15  O   UNL     1      11.429   3.871   3.004  0.00  0.00    -0.392 OA
ATOM     16  H   UNL     1      12.346   3.586   2.822  0.00  0.00    +0.210 HD
ENDBRANCH  14  15
ENDBRANCH   6  14
ENDBRANCH   1   3
BRANCH   1  17
ATOM     17  C   UNL     1       6.842   4.078  -2.798  0.00  0.00    +0.207 C 
ATOM     18  C   UNL     1       6.620   3.276  -4.105  0.00  0.00    +0.184 C 
ATOM     19  C   UNL     1       6.119   4.223  -5.209  0.00  0.00    +0.177 C 
ATOM     20  C   UNL     1       4.918   5.038  -4.728  0.00  0.00    +0.176 C 
ATOM     21  C   UNL     1       5.285   5.782  -3.439  0.00  0.00    +0.176 C 
ATOM     22  O   UNL     1       5.704   4.854  -2.426  0.00  0.00    -0.355 OA
BRANCH  18  23
ATOM     23  O   UNL     1       7.836   2.631  -4.524  0.00  0.00    -0.386 OA
ATOM     24  H   UNL     1       8.423   3.284  -4.936  0.00  0.00    +0.210 HD
ENDBRANCH  18  23
BRANCH  19  25
ATOM     25  O   UNL     1       5.759   3.491  -6.384  0.00  0.00    -0.386 OA
ATOM     26  H   UNL     1       5.150   4.054  -6.897  0.00  0.00    +0.210 HD
ENDBRANCH  19  25
BRANCH  20  27
ATOM     27  O   UNL     1       4.513   5.929  -5.777  0.00  0.00    -0.386 OA
ATOM     28  H   UNL     1       5.182   6.627  -5.879  0.00  0.00    +0.210 HD
ENDBRANCH  20  27
BRANCH  21  29
ATOM     29  C   UNL     1       4.090   6.566  -2.887  0.00  0.00    +0.190 C 
BRANCH  29  30
ATOM     30  O   UNL     1       4.505   7.314  -1.745  0.00  0.00    -0.392 OA
ATOM     31  H   UNL     1       4.799   6.658  -1.085  0.00  0.00    +0.210 HD
ENDBRANCH  29  30
ENDBRANCH  21  29
ENDBRANCH   1  17
TORSDOF 12
