REMARK  Name = 
REMARK  3 active torsions:
REMARK  status: ('A' for Active; 'I' for Inactive)
REMARK    1  A    between atoms: O_1  and  N_2
REMARK    2  A    between atoms: C_9  and  C_17
REMARK    3  A    between atoms: C_10  and  C_11
REMARK                            x       y       z     vdW  Elec       q    Type
REMARK                         _______ _______ _______ _____ _____    ______ ____
ROOT
ATOM      1  N   UNL     1       2.397  -0.013   0.290  0.00  0.00    -0.182 N 
ATOM      2  C   UNL     1       3.130  -1.182   0.157  0.00  0.00    +0.098 A 
ATOM      3  C   UNL     1       4.462  -0.763  -0.033  0.00  0.00    +0.037 A 
ATOM      4  C   UNL     1       4.461   0.672  -0.008  0.00  0.00    +0.100 A 
ATOM      5  N   UNL     1       5.501   1.538  -0.146  0.00  0.00    -0.253 NA
ATOM      6  C   UNL     1       5.182   2.849  -0.074  0.00  0.00    +0.111 A 
ATOM      7  C   UNL     1       3.901   3.360   0.105  0.00  0.00    +0.022 A 
ATOM      8  C   UNL     1       2.843   2.476   0.238  0.00  0.00    +0.033 A 
ATOM      9  C   UNL     1       3.158   1.114   0.173  0.00  0.00    +0.107 A 
ENDROOT
BRANCH   3  10
ATOM     10  C   UNL     1       5.646  -1.624  -0.187  0.00  0.00    -0.014 A 
ATOM     11  C   UNL     1       5.613  -2.843  -0.877  0.00  0.00    +0.011 A 
ATOM     12  C   UNL     1       6.727  -3.687  -0.903  0.00  0.00    +0.039 A 
ATOM     13  C   UNL     1       7.913  -3.280  -0.305  0.00  0.00    +0.123 A 
ATOM     14  F   UNL     1       8.980  -4.090  -0.329  0.00  0.00    -0.205 F 
ATOM     15  C   UNL     1       8.005  -2.043   0.312  0.00  0.00    +0.039 A 
ATOM     16  C   UNL     1       6.873  -1.226   0.383  0.00  0.00    +0.011 A 
ENDBRANCH   3  10
BRANCH   2  17
ATOM     17  C   UNL     1       2.498  -2.524   0.234  0.00  0.00    +0.005 A 
ATOM     18  C   UNL     1       1.249  -2.773  -0.347  0.00  0.00    +0.030 A 
ATOM     19  C   UNL     1       0.734  -4.062  -0.334  0.00  0.00    +0.111 A 
ATOM     20  N   UNL     1       1.385  -5.122   0.182  0.00  0.00    -0.263 NA
ATOM     21  C   UNL     1       2.577  -4.869   0.755  0.00  0.00    +0.111 A 
ATOM     22  C   UNL     1       3.144  -3.605   0.843  0.00  0.00    +0.030 A 
ENDBRANCH   2  17
BRANCH   1  23
ATOM     23  O   UNL     1       1.023   0.041   0.553  0.00  0.00    -0.426 OA
ATOM     24  H   UNL     1       0.752   0.649  -0.155  0.00  0.00    +0.326 HD
ENDBRANCH   1  23
TORSDOF 3
