REMARK  Name = 
REMARK  3 active torsions:
REMARK  status: ('A' for Active; 'I' for Inactive)
REMARK    1  A    between atoms: C_4  and  O_5
REMARK    2  A    between atoms: O_5  and  C_6
REMARK    3  A    between atoms: C_6  and  C_7
REMARK                            x       y       z     vdW  Elec       q    Type
REMARK                         _______ _______ _______ _____ _____    ______ ____
ROOT
ATOM      1  N   UNL     1       0.358   1.449   1.312  0.00  0.00    -0.343 N 
ATOM      2  H   UNL     1      -0.215   1.550   2.141  0.00  0.00    +0.144 HD
ATOM      3  H   UNL     1       0.412   2.313   0.781  0.00  0.00    +0.144 HD
ATOM      4  C   UNL     1       1.665   1.082   1.628  0.00  0.00    +0.122 A 
ATOM      5  C   UNL     1       1.880  -0.063   2.392  0.00  0.00    +0.071 A 
ATOM      6  C   UNL     1       3.215  -0.385   2.610  0.00  0.00    +0.075 A 
ATOM      7  C   UNL     1       4.262   0.377   2.105  0.00  0.00    +0.150 A 
ATOM      8  N   UNL     1       5.476  -0.180   2.462  0.00  0.00    -0.231 NA
ATOM      9  C   UNL     1       5.179  -1.252   3.157  0.00  0.00    +0.197 A 
ATOM     10  C   UNL     1       3.951   1.528   1.358  0.00  0.00    +0.245 A 
ATOM     11  N   UNL     1       3.828  -1.415   3.281  0.00  0.00    -0.344 N 
ATOM     12  H   UNL     1       3.367  -2.168   3.772  0.00  0.00    +0.167 HD
ATOM     13  N   UNL     1       2.645   1.858   1.126  0.00  0.00    -0.196 NA
ENDROOT
BRANCH  10  14
ATOM     14  O   UNL     1       4.971   2.304   0.843  0.00  0.00    -0.475 OA
BRANCH  14  15
ATOM     15  C   UNL     1       4.545   3.583   0.373  0.00  0.00    +0.234 C 
BRANCH  15  16
ATOM     16  C   UNL     1       5.783   4.373  -0.102  0.00  0.00    +0.027 C 
ATOM     17  C   UNL     1       6.832   4.599   1.005  0.00  0.00    +0.007 C 
ATOM     18  C   UNL     1       6.503   5.737   1.973  0.00  0.00    +0.000 C 
ATOM     19  C   UNL     1       6.076   7.017   1.261  0.00  0.00    +0.000 C 
ATOM     20  C   UNL     1       4.954   6.752   0.266  0.00  0.00    +0.000 C 
ATOM     21  C   UNL     1       5.380   5.702  -0.756  0.00  0.00    +0.007 C 
ENDBRANCH  15  16
ENDBRANCH  14  15
ENDBRANCH  10  14
TORSDOF 3
