REMARK  Name = 
REMARK  5 active torsions:
REMARK  status: ('A' for Active; 'I' for Inactive)
REMARK    1  A    between atoms: C_1  and  N_2
REMARK    2  A    between atoms: N_2  and  C_3
REMARK    3  A    between atoms: C_9  and  C_10
REMARK    4  A    between atoms: C_11  and  O_13
REMARK    5  A    between atoms: O_13  and  C_14
REMARK                            x       y       z     vdW  Elec       q    Type
REMARK                         _______ _______ _______ _____ _____    ______ ____
ROOT
ATOM      1  C   UNL     1      -0.000  -0.000   0.000  0.00  0.00    +0.091 C 
ATOM      2  C   UNL     1      -0.000  -0.000   0.000  0.00  0.00    +0.187 C 
ATOM      3  C   UNL     1      -0.000  -0.000   0.000  0.00  0.00    +0.174 C 
ATOM      4  C   UNL     1      -0.000  -0.000   0.000  0.00  0.00    +0.069 C 
ATOM      5  N   UNL     1      -0.000  -0.000   0.000  0.00  0.00    -0.307 N 
ATOM      6  C   UNL     1      -0.000  -0.000  -0.000  0.00  0.00    +0.077 A 
ATOM      7  C   UNL     1      -0.000  -0.000  -0.000  0.00  0.00    +0.077 A 
ATOM      8  N   UNL     1      -0.000  -0.000  -0.000  0.00  0.00    -0.311 N 
ATOM      9  C   UNL     1      -0.000  -0.000   0.000  0.00  0.00    +0.224 C 
ATOM     10  C   UNL     1      -0.000  -0.000  -0.000  0.00  0.00    +0.052 A 
ATOM     11  C   UNL     1      -0.000  -0.000  -0.000  0.00  0.00    +0.026 A 
ATOM     12  C   UNL     1      -0.000  -0.000  -0.000  0.00  0.00    +0.002 A 
ATOM     13  C   UNL     1      -0.000  -0.000  -0.000  0.00  0.00    +0.001 A 
ATOM     14  C   UNL     1      -0.000  -0.000  -0.000  0.00  0.00    +0.010 A 
ATOM     15  C   UNL     1      -0.000  -0.000  -0.000  0.00  0.00    +0.008 A 
ATOM     16  C   UNL     1      -0.000  -0.000  -0.000  0.00  0.00    +0.022 A 
ATOM     17  C   UNL     1      -0.000  -0.000  -0.000  0.00  0.00    +0.052 A 
ATOM     18  C   UNL     1      -0.000  -0.000  -0.000  0.00  0.00    +0.245 C 
ATOM     19  O   UNL     1      -0.000  -0.000  -0.000  0.00  0.00    -0.270 OA
ATOM     20  N   UNL     1      -0.000  -0.000  -0.000  0.00  0.00    -0.307 N 
ATOM     21  H   UNL     1       0.000   0.000   0.000  0.00  0.00    +0.149 HD
ATOM     22  C   UNL     1      -0.000  -0.000  -0.000  0.00  0.00    +0.141 C 
ATOM     23  C   UNL     1      -0.000  -0.000  -0.000  0.00  0.00    -0.008 A 
ATOM     24  C   UNL     1      -0.000  -0.000  -0.000  0.00  0.00    +0.015 A 
ATOM     25  C   UNL     1      -0.000  -0.000  -0.000  0.00  0.00    +0.008 A 
ATOM     26  C   UNL     1      -0.000  -0.000  -0.000  0.00  0.00    +0.010 A 
ATOM     27  C   UNL     1      -0.000  -0.000  -0.000  0.00  0.00    +0.001 A 
ATOM     28  C   UNL     1      -0.000  -0.000  -0.000  0.00  0.00    +0.002 A 
ATOM     29  C   UNL     1      -0.000  -0.000  -0.000  0.00  0.00    +0.026 A 
ATOM     30  C   UNL     1      -0.000  -0.000  -0.000  0.00  0.00    +0.053 A 
ATOM     31  O   UNL     1      -0.000  -0.000   0.000  0.00  0.00    -0.328 OA
ATOM     32  C   UNL     1      -0.000  -0.000   0.000  0.00  0.00    +0.076 C 
ENDROOT
BRANCH   1  34
ATOM     33  C   UNL     1       0.000   0.000   0.000  0.00  0.00    +0.101 C 
ATOM     34  N   UNL     1      -0.000  -0.000   0.000  0.00  0.00    -0.314 NA
ATOM     35  H   UNL     1      -0.000  -0.000   0.000  0.00  0.00    +0.122 HD
ENDBRANCH   1  34
BRANCH   2  36
ATOM     36  O   UNL     1      -0.000  -0.000   0.000  0.00  0.00    -0.373 OA
ATOM     37  C   UNL     1      -0.000  -0.000   0.000  0.00  0.00    +0.194 C 
ENDBRANCH   2  36
TORSDOF 2
