REMARK  Name = 
REMARK  8 active torsions:
REMARK  status: ('A' for Active; 'I' for Inactive)
REMARK    1  A    between atoms: O_1  and  C_2
REMARK    2  A    between atoms: C_4  and  C_6
REMARK    3  A    between atoms: C_6  and  O_7
REMARK    4  A    between atoms: O_7  and  P_8
REMARK    5  A    between atoms: P_8  and  O_9
REMARK    6  A    between atoms: P_8  and  O_10
REMARK    7  A    between atoms: C_13  and  C_18
REMARK    8  A    between atoms: C_15  and  O_17
REMARK                            x       y       z     vdW  Elec       q    Type
REMARK                         _______ _______ _______ _____ _____    ______ ____
ROOT
ATOM      1  C   UNL     1       2.547   0.093  -0.016  0.00  0.00    +0.164 C 
ATOM      2  C   UNL     1       3.049  -1.200   0.636  0.00  0.00    +0.166 C 
ATOM      3  C   UNL     1       4.289  -0.774   1.456  0.00  0.00    +0.119 C 
ATOM      4  N   UNL     1       4.465   0.677   1.244  0.00  0.00    -0.300 NA
ATOM      5  H   UNL     1       4.826   1.121   2.086  0.00  0.00    +0.123 HD
ATOM      6  C   UNL     1       3.146   1.193   0.873  0.00  0.00    +0.112 C 
ENDROOT
BRANCH   3   7
ATOM      7  C   UNL     1       4.139  -1.081   2.926  0.00  0.00    +0.016 A 
ATOM      8  C   UNL     1       4.494  -2.293   3.563  0.00  0.00    +0.100 A 
ATOM      9  N   UNL     1       5.053  -3.435   2.978  0.00  0.00    -0.235 NA
ATOM     10  C   UNL     1       5.291  -4.381   3.835  0.00  0.00    +0.199 A 
ATOM     11  N   UNL     1       5.042  -4.348   5.192  0.00  0.00    -0.312 N 
ATOM     12  H   UNL     1       5.261  -5.137   5.782  0.00  0.00    +0.170 HD
ATOM     13  C   UNL     1       4.482  -3.261   5.817  0.00  0.00    +0.275 A 
ATOM     14  O   UNL     1       4.248  -3.228   7.018  0.00  0.00    -0.266 OA
ATOM     15  C   UNL     1       4.222  -2.210   4.899  0.00  0.00    +0.130 A 
ATOM     16  N   UNL     1       3.676  -0.981   5.131  0.00  0.00    -0.355 N 
ATOM     17  H   UNL     1       3.367  -0.644   6.036  0.00  0.00    +0.166 HD
ATOM     18  C   UNL     1       3.614  -0.290   3.943  0.00  0.00    +0.090 A 
ENDBRANCH   3   7
BRANCH   1  19
ATOM     19  O   UNL     1       1.117   0.115  -0.020  0.00  0.00    -0.388 OA
ATOM     20  H   UNL     1       0.847   0.889  -0.542  0.00  0.00    +0.210 HD
ENDBRANCH   1  19
BRANCH   2  21
ATOM     21  O   UNL     1       3.376  -2.157  -0.382  0.00  0.00    -0.387 OA
ATOM     22  H   UNL     1       3.729  -2.937   0.083  0.00  0.00    +0.210 HD
ENDBRANCH   2  21
BRANCH   6  23
ATOM     23  C   UNL     1       3.235   2.547   0.169  0.00  0.00    +0.193 C 
BRANCH  23  24
ATOM     24  O   UNL     1       1.912   2.998  -0.058  0.00  0.00    -0.285 OA
BRANCH  24  25
ATOM     25  P   UNL     1       1.670   4.101  -1.180  0.00  0.00    +0.472 P 
ATOM     26  O   UNL     1       2.262   5.451  -0.988  0.00  0.00    -0.228 OA
BRANCH  25  27
ATOM     27  O   UNL     1       0.073   4.105  -1.234  0.00  0.00    -0.303 OA
ATOM     28  H   UNL     1      -0.287   4.493  -0.414  0.00  0.00    +0.222 HD
ENDBRANCH  25  27
BRANCH  25  29
ATOM     29  O   UNL     1       1.980   3.340  -2.544  0.00  0.00    -0.303 OA
ATOM     30  H   UNL     1       1.216   2.803  -2.819  0.00  0.00    +0.222 HD
ENDBRANCH  25  29
ENDBRANCH  24  25
ENDBRANCH  23  24
ENDBRANCH   6  23
TORSDOF 8
