REMARK  Name = 
REMARK  5 active torsions:
REMARK  status: ('A' for Active; 'I' for Inactive)
REMARK    1  A    between atoms: N_1  and  C_2
REMARK    2  A    between atoms: C_2  and  C_3
REMARK    3  A    between atoms: C_3  and  C_4
REMARK    4  A    between atoms: C_4  and  C_5
REMARK    5  A    between atoms: C_5  and  O_6
REMARK                            x       y       z     vdW  Elec       q    Type
REMARK                         _______ _______ _______ _____ _____    ______ ____
ROOT
ATOM      1  C   UNL     1       3.041   1.353  -0.497  0.00  0.00    +0.026 C 
ENDROOT
BRANCH   1   2
ATOM      2  C   UNL     1       2.541  -0.020  -0.056  0.00  0.00    +0.078 C 
BRANCH   2   3
ATOM      3  N   UNL     1       1.085  -0.036  -0.038  0.00  0.00    -0.330 NA
ATOM      4  H   UNL     1       0.725   0.110  -0.981  0.00  0.00    +0.118 HD
ATOM      5  H   UNL     1       0.759  -0.961   0.243  0.00  0.00    +0.118 HD
ENDBRANCH   2   3
ENDBRANCH   1   2
BRANCH   1   6
ATOM      6  C   UNL     1       4.565   1.409  -0.472  0.00  0.00    +0.121 C 
BRANCH   6   7
ATOM      7  C   UNL     1       5.088   2.723  -0.993  0.00  0.00    +0.305 C 
ATOM      8  O   UNL     1       5.762   2.829  -2.006  0.00  0.00    -0.251 OA
BRANCH   7   9
ATOM      9  O   UNL     1       4.774   3.782  -0.216  0.00  0.00    -0.481 OA
ATOM     10  H   UNL     1       4.246   3.556   0.572  0.00  0.00    +0.295 HD
ENDBRANCH   7   9
ENDBRANCH   6   7
ENDBRANCH   1   6
TORSDOF 5
