REMARK  Name = 
REMARK  6 active torsions:
REMARK  status: ('A' for Active; 'I' for Inactive)
REMARK    1  A    between atoms: N_1  and  C_2
REMARK    2  A    between atoms: C_2  and  C_3
REMARK    3  A    between atoms: C_3  and  C_5
REMARK    4  A    between atoms: C_3  and  C_7
REMARK    5  A    between atoms: C_5  and  O_6
REMARK    6  A    between atoms: C_7  and  O_8
REMARK                            x       y       z     vdW  Elec       q    Type
REMARK                         _______ _______ _______ _____ _____    ______ ____
ROOT
ATOM      1  C   UNL     1       3.041   0.978   1.165  0.00  0.00    +0.136 C 
ENDROOT
BRANCH   1   2
ATOM      2  C   UNL     1       4.565   1.001   1.224  0.00  0.00    +0.311 C 
ATOM      3  O   UNL     1       5.257   1.865   0.701  0.00  0.00    -0.251 OA
BRANCH   2   4
ATOM      4  O   UNL     1       5.127  -0.059   1.851  0.00  0.00    -0.480 OA
ATOM      5  H   UNL     1       4.457  -0.677   2.235  0.00  0.00    +0.295 HD
ENDBRANCH   2   4
ENDBRANCH   1   2
BRANCH   1   6
ATOM      6  C   UNL     1       2.542   2.401   0.878  0.00  0.00    +0.094 C 
BRANCH   6   7
ATOM      7  N   UNL     1       1.084   2.494   0.748  0.00  0.00    -0.329 NA
ATOM      8  H   UNL     1       0.639   2.416   1.662  0.00  0.00    +0.118 HD
ATOM      9  H   UNL     1       0.849   3.435   0.424  0.00  0.00    +0.118 HD
ENDBRANCH   6   7
ENDBRANCH   1   6
BRANCH   1  10
ATOM     10  C   UNL     1       2.452   0.422   2.459  0.00  0.00    +0.171 C 
BRANCH  10  11
ATOM     11  O   UNL     1       2.848  -0.949   2.600  0.00  0.00    -0.394 OA
ATOM     12  H   UNL     1       2.157  -1.489   2.167  0.00  0.00    +0.209 HD
ENDBRANCH  10  11
ENDBRANCH   1  10
TORSDOF 6
