REMARK  Name = 
REMARK  7 active torsions:
REMARK  status: ('A' for Active; 'I' for Inactive)
REMARK    1  A    between atoms: C_1  and  C_2
REMARK    2  A    between atoms: C_2  and  C_3
REMARK    3  A    between atoms: C_3  and  O_4
REMARK    4  A    between atoms: O_4  and  C_5
REMARK    5  A    between atoms: C_8  and  C_9
REMARK    6  A    between atoms: C_9  and  C_10
REMARK    7  A    between atoms: C_10  and  O_11
REMARK                            x       y       z     vdW  Elec       q    Type
REMARK                         _______ _______ _______ _____ _____    ______ ____
ROOT
ATOM      1  C   UNL     1       5.118  -0.198   2.511  0.00  0.00    +0.139 A 
ATOM      2  C   UNL     1       5.109  -1.507   3.016  0.00  0.00    +0.083 A 
ATOM      3 CL   UNL     1       4.222  -2.771   2.240  0.00  0.00    -0.080 Cl
ATOM      4  C   UNL     1       5.851  -1.834   4.163  0.00  0.00    +0.027 A 
ATOM      5  C   UNL     1       6.612  -0.855   4.820  0.00  0.00    -0.035 A 
ATOM      6  C   UNL     1       6.598   0.450   4.333  0.00  0.00    +0.008 A 
ATOM      7  C   UNL     1       5.853   0.777   3.201  0.00  0.00    +0.047 A 
ENDROOT
BRANCH   1   8
ATOM      8  O   UNL     1       4.412   0.060   1.355  0.00  0.00    -0.491 OA
BRANCH   8   9
ATOM      9  C   UNL     1       4.576   1.378   0.830  0.00  0.00    +0.229 C 
BRANCH   9  11
ATOM     10  C   UNL     1       4.065   2.961  -1.016  0.00  0.00    +0.007 C 
ATOM     11  C   UNL     1       3.868   1.539  -0.508  0.00  0.00    +0.038 C 
ENDBRANCH   9  11
ENDBRANCH   8   9
ENDBRANCH   1   8
BRANCH   5  12
ATOM     12  C   UNL     1       7.495  -1.202   5.994  0.00  0.00    +0.155 C 
BRANCH  12  13
ATOM     13  C   UNL     1       8.928  -1.579   5.667  0.00  0.00    +0.309 C 
ATOM     14  O   UNL     1       9.767  -1.759   6.544  0.00  0.00    -0.251 OA
BRANCH  13  15
ATOM     15  O   UNL     1       9.245  -1.722   4.364  0.00  0.00    -0.480 OA
ATOM     16  H   UNL     1       8.519  -1.562   3.730  0.00  0.00    +0.295 HD
ENDBRANCH  13  15
ENDBRANCH  12  13
ENDBRANCH   5  12
TORSDOF 6
