REMARK  Name = 
REMARK  3 active torsions:
REMARK  status: ('A' for Active; 'I' for Inactive)
REMARK    1  A    between atoms: C_2  and  C_12
REMARK    2  A    between atoms: N_3  and  C_4
REMARK    3  A    between atoms: C_6  and  C_9
REMARK                            x       y       z     vdW  Elec       q    Type
REMARK                         _______ _______ _______ _____ _____    ______ ____
ROOT
ATOM      1  O   UNL     1       1.061  -0.486   0.370  0.00  0.00    -0.270 OA
ATOM      2  C   UNL     1       2.166  -0.071   0.066  0.00  0.00    +0.249 C 
ATOM      3  N   UNL     1       2.863   0.876   0.899  0.00  0.00    -0.267 N 
ATOM      4  H   UNL     1       3.823   1.109   0.687  0.00  0.00    +0.157 HD
ENDROOT
BRANCH   2   5
ATOM      5  C   UNL     1       2.852  -0.559  -1.157  0.00  0.00    +0.037 A 
ATOM      6  C   UNL     1       2.410  -1.773  -1.707  0.00  0.00    +0.013 A 
ATOM      7  C   UNL     1       2.976  -2.261  -2.883  0.00  0.00    +0.001 A 
ATOM      8  C   UNL     1       3.982  -1.540  -3.517  0.00  0.00    +0.000 A 
ATOM      9  C   UNL     1       4.429  -0.333  -2.977  0.00  0.00    +0.001 A 
ATOM     10  C   UNL     1       3.867   0.164  -1.797  0.00  0.00    +0.013 A 
ENDBRANCH   2   5
BRANCH   3  11
ATOM     11  C   UNL     1       2.302   1.419   2.052  0.00  0.00    +0.121 A 
ATOM     12  N   UNL     1       2.944   2.239   2.948  0.00  0.00    -0.264 N 
ATOM     13  H   UNL     1       3.885   2.612   2.902  0.00  0.00    +0.190 HD
ATOM     14  N   UNL     1       2.213   2.535   4.034  0.00  0.00    -0.177 NA
ATOM     15  C   UNL     1       1.036   1.959   3.781  0.00  0.00    +0.068 A 
ATOM     16  C   UNL     1       1.028   1.272   2.553  0.00  0.00    +0.068 A 
BRANCH  15  17
ATOM     17  C   UNL     1      -0.165   1.994   4.712  0.00  0.00    +0.040 C 
ATOM     18  C   UNL     1      -0.239   3.052   5.791  0.00  0.00    +0.010 C 
ATOM     19  C   UNL     1       0.046   1.637   6.167  0.00  0.00    +0.010 C 
ENDBRANCH  15  17
ENDBRANCH   3  11
TORSDOF 3
