REMARK  Name = 
REMARK  7 active torsions:
REMARK  status: ('A' for Active; 'I' for Inactive)
REMARK    1  A    between atoms: C_1  and  C_2
REMARK    2  A    between atoms: C_3  and  C_4
REMARK    3  A    between atoms: C_4  and  C_5
REMARK    4  A    between atoms: C_5  and  C_6
REMARK    5  A    between atoms: C_5  and  C_8
REMARK    6  A    between atoms: C_6  and  O_7
REMARK    7  A    between atoms: C_8  and  O_9
REMARK                            x       y       z     vdW  Elec       q    Type
REMARK                         _______ _______ _______ _____ _____    ______ ____
ROOT
ATOM      1  C   UNL     1       4.668   0.909   1.594  0.00  0.00    +0.051 C 
ATOM      2  C   UNL     1       4.016   0.438   0.329  0.00  0.00    +0.033 A 
ATOM      3  C   UNL     1       4.588  -0.838  -0.207  0.00  0.00    +0.257 A 
ATOM      4  O   UNL     1       5.546  -1.392   0.325  0.00  0.00    -0.267 OA
ATOM      5  N   UNL     1       4.001  -1.353  -1.323  0.00  0.00    -0.275 N 
ATOM      6  H   UNL     1       4.387  -2.203  -1.702  0.00  0.00    +0.173 HD
ATOM      7  C   UNL     1       3.011  -0.747  -2.027  0.00  0.00    +0.327 A 
ATOM      8  O   UNL     1       2.547  -1.225  -3.056  0.00  0.00    -0.247 OA
ATOM      9  N   UNL     1       2.558   0.434  -1.519  0.00  0.00    -0.311 N 
ATOM     10  H   UNL     1       1.837   0.877  -2.076  0.00  0.00    +0.170 HD
ATOM     11  C   UNL     1       3.024   1.032  -0.367  0.00  0.00    +0.029 A 
ENDROOT
BRANCH  11  12
ATOM     12  C   UNL     1       2.379   2.372  -0.049  0.00  0.00    +0.061 C 
BRANCH  12  13
ATOM     13  C   UNL     1       0.847   2.323   0.177  0.00  0.00    +0.046 C 
BRANCH  13  14
ATOM     14  C   UNL     1       0.267   3.749   0.220  0.00  0.00    +0.162 C 
BRANCH  14  15
ATOM     15  O   UNL     1       0.866   4.545   1.231  0.00  0.00    -0.395 OA
ATOM     16  H   UNL     1       0.846   4.013   2.056  0.00  0.00    +0.209 HD
ENDBRANCH  14  15
ENDBRANCH  13  14
BRANCH  13  17
ATOM     17  C   UNL     1       0.473   1.554   1.450  0.00  0.00    +0.162 C 
BRANCH  17  18
ATOM     18  O   UNL     1       1.061   2.165   2.593  0.00  0.00    -0.395 OA
ATOM     19  H   UNL     1       1.653   1.506   3.001  0.00  0.00    +0.209 HD
ENDBRANCH  17  18
ENDBRANCH  13  17
ENDBRANCH  12  13
ENDBRANCH  11  12
TORSDOF 6
