REMARK  Name = 
REMARK  12 active torsions:
REMARK  status: ('A' for Active; 'I' for Inactive)
REMARK    1  A    between atoms: N_10  and  C_11
REMARK    2  A    between atoms: C_15  and  C_17
REMARK    3  A    between atoms: C_17  and  O_18
REMARK    4  A    between atoms: O_18  and  P_19
REMARK    5  A    between atoms: P_19  and  O_20
REMARK    6  A    between atoms: P_19  and  O_22
REMARK    7  A    between atoms: O_22  and  P_23
REMARK    8  A    between atoms: P_23  and  O_24
REMARK    9  A    between atoms: P_23  and  O_26
REMARK   10  A    between atoms: O_26  and  P_27
REMARK   11  A    between atoms: P_27  and  O_28
REMARK   12  A    between atoms: P_27  and  O_29
REMARK                            x       y       z     vdW  Elec       q    Type
REMARK                         _______ _______ _______ _____ _____    ______ ____
ROOT
ATOM      1  C   UNL     1       9.162  -6.912   1.889  0.00  0.00    +0.204 C 
ENDROOT
BRANCH   1   4
ATOM      2  C   UNL     1       8.408  -6.251  -1.393  0.00  0.00    +0.222 C 
ATOM      3  O   UNL     1       9.312  -6.982  -0.534  0.00  0.00    -0.351 OA
ATOM      4  C   UNL     1       9.604  -6.168   0.626  0.00  0.00    +0.147 C 
ATOM      5  C   UNL     1       8.856  -4.855   0.432  0.00  0.00    +0.038 C 
ATOM      6  C   UNL     1       7.724  -5.246  -0.486  0.00  0.00    +0.057 C 
BRANCH   2  14
ATOM      7  N   UNL     1       4.378  -9.034  -4.931  0.00  0.00    -0.341 N 
ATOM      8  H   UNL     1       4.441  -9.858  -4.345  0.00  0.00    +0.144 HD
ATOM      9  H   UNL     1       3.477  -8.801  -5.325  0.00  0.00    +0.144 HD
ATOM     10  C   UNL     1       5.019  -7.923  -4.396  0.00  0.00    +0.147 A 
ATOM     11  C   UNL     1       6.020  -8.010  -3.414  0.00  0.00    +0.147 A 
ATOM     12  N   UNL     1       6.586  -9.077  -2.746  0.00  0.00    -0.231 NA
ATOM     13  C   UNL     1       7.495  -8.536  -1.962  0.00  0.00    +0.203 A 
ATOM     14  N   UNL     1       7.518  -7.173  -2.064  0.00  0.00    -0.288 N 
ATOM     15  C   UNL     1       6.577  -6.813  -2.992  0.00  0.00    +0.167 A 
ATOM     16  N   UNL     1       6.267  -5.576  -3.411  0.00  0.00    -0.216 NA
ATOM     17  C   UNL     1       5.285  -5.617  -4.337  0.00  0.00    +0.225 A 
ATOM     18  N   UNL     1       4.651  -6.698  -4.838  0.00  0.00    -0.219 NA
ENDBRANCH   2  14
ENDBRANCH   1   4
BRANCH   1  19
ATOM     19  O   UNL     1       9.951  -8.092   2.040  0.00  0.00    -0.284 OA
BRANCH  19  20
ATOM     20  P   UNL     1       9.575  -9.016   3.454  0.00  0.00    +0.483 P 
ATOM     21  O   UNL     1      10.229  -7.938   4.321  0.00  0.00    -0.227 OA
BRANCH  20  22
ATOM     22  O   UNL     1      10.762 -10.046   3.017  0.00  0.00    -0.302 OA
ATOM     23  H   UNL     1      10.737 -10.242   2.064  0.00  0.00    +0.222 HD
ENDBRANCH  20  22
BRANCH  20  24
ATOM     24  O   UNL     1       9.198  -9.939   4.868  0.00  0.00    -0.186 OA
BRANCH  24  25
ATOM     25  P   UNL     1       8.117 -11.051   4.572  0.00  0.00    +0.492 P 
ATOM     26  O   UNL     1       6.825 -10.554   4.021  0.00  0.00    -0.226 OA
BRANCH  25  27
ATOM     27  O   UNL     1       8.802 -12.083   3.552  0.00  0.00    -0.302 OA
ATOM     28  H   UNL     1       8.468 -12.005   2.638  0.00  0.00    +0.222 HD
ENDBRANCH  25  27
BRANCH  25  29
ATOM     29  O   UNL     1       8.119 -11.864   5.924  0.00  0.00    -0.186 OA
BRANCH  29  30
ATOM     30  P   UNL     1       7.092 -13.252   5.819  0.00  0.00    +0.481 P 
ATOM     31  O   UNL     1       6.172 -14.495   5.726  0.00  0.00    -0.227 OA
BRANCH  30  32
ATOM     32  O   UNL     1       6.068 -12.431   6.795  0.00  0.00    -0.302 OA
ATOM     33  H   UNL     1       6.052 -12.909   7.645  0.00  0.00    +0.222 HD
ENDBRANCH  30  32
BRANCH  30  34
ATOM     34  O   UNL     1       7.968 -13.848   7.073  0.00  0.00    -0.302 OA
ATOM     35  H   UNL     1       8.591 -14.535   6.778  0.00  0.00    +0.222 HD
ENDBRANCH  30  34
ENDBRANCH  29  30
ENDBRANCH  25  29
ENDBRANCH  24  25
ENDBRANCH  20  24
ENDBRANCH  19  20
ENDBRANCH   1  19
TORSDOF 12
