REMARK  Name = 
REMARK  6 active torsions:
REMARK  status: ('A' for Active; 'I' for Inactive)
REMARK    1  A    between atoms: C_2  and  C_4
REMARK    2  A    between atoms: C_7  and  C_9
REMARK    3  A    between atoms: C_9  and  O_10
REMARK    4  A    between atoms: C_11  and  O_13
REMARK    5  A    between atoms: C_14  and  O_16
REMARK    6  A    between atoms: C_17  and  O_19
REMARK                            x       y       z     vdW  Elec       q    Type
REMARK                         _______ _______ _______ _____ _____    ______ ____
ROOT
ATOM      1  C   UNL     1       3.227   0.520   1.054  0.00  0.00    +0.235 C 
ATOM      2  C   UNL     1       3.632   1.983   0.805  0.00  0.00    +0.183 C 
ATOM      3  C   UNL     1       4.625   2.114  -0.356  0.00  0.00    +0.177 C 
ATOM      4  C   UNL     1       5.804   1.150  -0.175  0.00  0.00    +0.176 C 
ATOM      5  C   UNL     1       5.363  -0.296   0.120  0.00  0.00    +0.176 C 
ATOM      6  O   UNL     1       4.324  -0.397   1.100  0.00  0.00    -0.357 OA
ENDROOT
BRANCH   1  10
ATOM      7  N   UNL     1       0.921   0.863   0.179  0.00  0.00    -0.327 N 
ATOM      8  H   UNL     1       0.795   1.656   0.797  0.00  0.00    +0.145 HD
ATOM      9  H   UNL     1       0.131   0.565  -0.377  0.00  0.00    +0.145 HD
ATOM     10  C   UNL     1       2.035   0.074   0.171  0.00  0.00    +0.242 C 
ATOM     11  O   UNL     1       2.024  -0.969  -0.483  0.00  0.00    -0.273 OA
ENDBRANCH   1  10
BRANCH   2  12
ATOM     12  O   UNL     1       4.167   2.549   2.017  0.00  0.00    -0.386 OA
ATOM     13  H   UNL     1       5.141   2.583   1.923  0.00  0.00    +0.210 HD
ENDBRANCH   2  12
BRANCH   3  14
ATOM     14  O   UNL     1       3.963   1.984  -1.611  0.00  0.00    -0.386 OA
ATOM     15  H   UNL     1       3.938   1.037  -1.878  0.00  0.00    +0.210 HD
ENDBRANCH   3  14
BRANCH   4  16
ATOM     16  O   UNL     1       6.579   1.642   0.941  0.00  0.00    -0.386 OA
ATOM     17  H   UNL     1       7.300   1.006   1.104  0.00  0.00    +0.210 HD
ENDBRANCH   4  16
BRANCH   5  18
ATOM     18  C   UNL     1       5.099  -1.131  -1.145  0.00  0.00    +0.190 C 
BRANCH  18  19
ATOM     19  O   UNL     1       4.058  -0.596  -1.951  0.00  0.00    -0.392 OA
ATOM     20  H   UNL     1       3.236  -1.054  -1.651  0.00  0.00    +0.210 HD
ENDBRANCH  18  19
ENDBRANCH   5  18
TORSDOF 6
