REMARK  Name = 
REMARK  6 active torsions:
REMARK  status: ('A' for Active; 'I' for Inactive)
REMARK    1  A    between atoms: C_2  and  N_23
REMARK    2  A    between atoms: C_7  and  C_13
REMARK    3  A    between atoms: C_7  and  P_19
REMARK    4  A    between atoms: P_19  and  O_20
REMARK    5  A    between atoms: P_19  and  O_21
REMARK    6  A    between atoms: C_25  and  C_26
REMARK                            x       y       z     vdW  Elec       q    Type
REMARK                         _______ _______ _______ _____ _____    ______ ____
ROOT
ATOM      1  C   UNL     1       1.992   0.162   0.197  0.00  0.00    +0.226 C 
ATOM      2  O   UNL     1       2.491   0.655  -1.061  0.00  0.00    -0.348 OA
ATOM      3  C   UNL     1       3.669   1.426  -0.763  0.00  0.00    +0.175 C 
ATOM      4  C   UNL     1       3.362   2.105   0.548  0.00  0.00    +0.158 C 
ATOM      5  O   UNL     1       2.485   3.225   0.411  0.00  0.00    -0.330 OA
ATOM      6  C   UNL     1       2.854   4.196  -0.612  0.00  0.00    +0.302 C 
ATOM      7  O   UNL     1       3.179   3.578  -1.873  0.00  0.00    -0.333 OA
ATOM      8  C   UNL     1       3.981   2.409  -1.869  0.00  0.00    +0.198 C 
ATOM      9  C   UNL     1       2.628   1.010   1.303  0.00  0.00    +0.089 C 
ENDROOT
BRANCH   1  10
ATOM     10  N   UNL     1       0.536   0.172   0.226  0.00  0.00    -0.274 N 
ATOM     11  C   UNL     1      -0.083  -0.727   1.087  0.00  0.00    +0.331 A 
ATOM     12  O   UNL     1       0.524  -1.518   1.805  0.00  0.00    -0.246 OA
ATOM     13  N   UNL     1      -1.451  -0.679   1.104  0.00  0.00    -0.275 N 
ATOM     14  H   UNL     1      -1.916  -1.325   1.728  0.00  0.00    +0.173 HD
ATOM     15  C   UNL     1      -2.239   0.198   0.421  0.00  0.00    +0.257 A 
ATOM     16  O   UNL     1      -3.457   0.222   0.556  0.00  0.00    -0.267 OA
ATOM     17  C   UNL     1      -1.526   1.142  -0.472  0.00  0.00    +0.030 A 
ATOM     18  C   UNL     1      -2.350   2.090  -1.278  0.00  0.00    +0.051 C 
ATOM     19  C   UNL     1      -0.190   1.082  -0.515  0.00  0.00    +0.101 A 
ENDBRANCH   1  10
BRANCH   6  20
ATOM     20  C   UNL     1       1.548   4.963  -0.940  0.00  0.00    +0.024 A 
ATOM     21  C   UNL     1       1.324   5.479  -2.235  0.00  0.00    +0.009 A 
ATOM     22  C   UNL     1       0.147   6.160  -2.553  0.00  0.00    +0.000 A 
ATOM     23  C   UNL     1      -0.824   6.359  -1.578  0.00  0.00    +0.000 A 
ATOM     24  C   UNL     1      -0.616   5.880  -0.287  0.00  0.00    +0.000 A 
ATOM     25  C   UNL     1       0.559   5.192   0.032  0.00  0.00    +0.009 A 
ENDBRANCH   6  20
BRANCH   6  26
ATOM     26  P   UNL     1       4.130   5.375  -0.036  0.00  0.00    +0.391 P 
ATOM     27  O   UNL     1       5.209   6.372   0.451  0.00  0.00    -0.253 OA
BRANCH  26  28
ATOM     28  O   UNL     1       5.286   4.195  -0.085  0.00  0.00    -0.320 OA
ATOM     29  H   UNL     1       6.095   4.654   0.235  0.00  0.00    +0.220 HD
ENDBRANCH  26  28
BRANCH  26  30
ATOM     30  O   UNL     1       3.648   5.094   1.535  0.00  0.00    -0.320 OA
ATOM     31  H   UNL     1       3.056   4.320   1.647  0.00  0.00    +0.220 HD
ENDBRANCH  26  30
ENDBRANCH   6  26
TORSDOF 5
