REMARK  Name = 
REMARK  13 active torsions:
REMARK  status: ('A' for Active; 'I' for Inactive)
REMARK    1  A    between atoms: C_1  and  C_2
REMARK    2  A    between atoms: C_3  and  C_4
REMARK    3  A    between atoms: C_4  and  C_5
REMARK    4  A    between atoms: C_5  and  O_6
REMARK    5  A    between atoms: O_6  and  P_7
REMARK    6  A    between atoms: P_7  and  O_8
REMARK    7  A    between atoms: P_7  and  O_10
REMARK    8  A    between atoms: O_10  and  P_11
REMARK    9  A    between atoms: P_11  and  O_12
REMARK   10  A    between atoms: N_17  and  C_18
REMARK   11  A    between atoms: C_18  and  C_19
REMARK   12  A    between atoms: C_20  and  N_21
REMARK   13  A    between atoms: C_23  and  C_24
REMARK                            x       y       z     vdW  Elec       q    Type
REMARK                         _______ _______ _______ _____ _____    ______ ____
ROOT
ATOM      1  C   UNL     1       1.810  -2.563  -2.837  0.00  0.00    +0.122 C 
ATOM      2  C   UNL     1       2.329  -3.377  -3.962  0.00  0.00    +0.191 A 
ATOM      3  N   UNL     1       2.469  -2.836  -5.245  0.00  0.00    -0.190 N 
ATOM      4  C   UNL     1       3.074  -3.634  -6.114  0.00  0.00    +0.357 A 
ATOM      5  S   UNL     1       3.588  -5.067  -5.376  0.00  0.00    -0.027 S 
ATOM      6  C   UNL     1       2.657  -4.723  -3.957  0.00  0.00    +0.064 A 
ENDROOT
BRANCH   3   7
ATOM      7  C   UNL     1       1.890  -1.568  -5.711  0.00  0.00    +0.397 C 
BRANCH   7   8
ATOM      8  C   UNL     1       2.874  -0.439  -5.609  0.00  0.00    +0.056 A 
ATOM      9  C   UNL     1       4.125  -0.533  -6.214  0.00  0.00    +0.122 A 
ATOM     10  N   UNL     1       5.120   0.356  -6.051  0.00  0.00    -0.260 NA
ATOM     11  C   UNL     1       4.885   1.408  -5.244  0.00  0.00    +0.040 A 
ATOM     12  C   UNL     1       6.026   2.348  -4.998  0.00  0.00    +0.065 C 
ATOM     13  C   UNL     1       3.635   1.641  -4.681  0.00  0.00    +0.046 A 
ATOM     14  C   UNL     1       2.591   0.744  -4.919  0.00  0.00    +0.037 A 
BRANCH  14  15
ATOM     15  N   UNL     1       1.342   0.974  -4.317  0.00  0.00    -0.358 N 
ATOM     16  H   UNL     1       1.244   1.928  -3.966  0.00  0.00    +0.142 HD
ATOM     17  H   UNL     1       0.537   0.767  -4.905  0.00  0.00    +0.142 HD
ENDBRANCH  14  15
ENDBRANCH   7   8
ENDBRANCH   3   7
BRANCH   6  18
ATOM     18  C   UNL     1       2.322  -5.823  -2.973  0.00  0.00    +0.077 C 
BRANCH  18  19
ATOM     19  C   UNL     1       1.977  -7.101  -3.743  0.00  0.00    +0.178 C 
BRANCH  19  20
ATOM     20  O   UNL     1       1.667  -8.211  -2.939  0.00  0.00    -0.286 OA
BRANCH  20  21
ATOM     21  P   UNL     1       1.425  -9.619  -3.797  0.00  0.00    +0.480 P 
ATOM     22  O   UNL     1       1.638  -9.297  -5.291  0.00  0.00    -0.227 OA
BRANCH  21  23
ATOM     23  O   UNL     1       3.126  -9.929  -3.720  0.00  0.00    -0.302 OA
ATOM     24  H   UNL     1       3.365  -9.894  -4.667  0.00  0.00    +0.222 HD
ENDBRANCH  21  23
BRANCH  21  25
ATOM     25  O   UNL     1      -0.275  -9.309  -3.875  0.00  0.00    -0.229 OA
BRANCH  25  26
ATOM     26  P   UNL     1      -1.075 -10.403  -3.006  0.00  0.00    +0.220 P 
ATOM     27  O   UNL     1      -0.207 -11.612  -2.809  0.00  0.00    -0.517 OA
ATOM     28  O   UNL     1      -1.788  -9.724  -1.873  0.00  0.00    -0.437 OA
BRANCH  26  29
ATOM     29  O   UNL     1      -2.237 -10.785  -4.049  0.00  0.00    -0.343 OA
ATOM     30  H   UNL     1      -3.013 -10.962  -3.492  0.00  0.00    +0.218 HD
ENDBRANCH  26  29
ENDBRANCH  25  26
ENDBRANCH  21  25
ENDBRANCH  20  21
ENDBRANCH  19  20
ENDBRANCH  18  19
ENDBRANCH   6  18
TORSDOF 11
