REMARK  Name = 
REMARK  17 active torsions:
REMARK  status: ('A' for Active; 'I' for Inactive)
REMARK    1  A    between atoms: C_1  and  C_2
REMARK    2  A    between atoms: N_4  and  C_5
REMARK    3  A    between atoms: C_7  and  O_9
REMARK    4  A    between atoms: C_10  and  O_12
REMARK    5  A    between atoms: O_12  and  S_13
REMARK    6  A    between atoms: S_13  and  O_14
REMARK    7  A    between atoms: C_17  and  C_19
REMARK    8  A    between atoms: C_19  and  O_20
REMARK    9  A    between atoms: C_22  and  O_24
REMARK   10  A    between atoms: O_24  and  C_25
REMARK   11  A    between atoms: C_28  and  C_37
REMARK   12  A    between atoms: CA_33  and  C_35
REMARK   13  A    between atoms: C_35  and  O_36
REMARK   14  A    between atoms: N_39  and  C_40
REMARK   15  A    between atoms: C_40  and  C_41
REMARK   16  A    between atoms: C_41  and  S_42
REMARK   17  A    between atoms: S_42  and  O_43
REMARK                            x       y       z     vdW  Elec       q    Type
REMARK                         _______ _______ _______ _____ _____    ______ ____
ROOT
ATOM      1  C   UNL     1       8.514   2.401  -0.580  0.00  0.00    +0.160 C 
ATOM      2  C   UNL     1       7.014   2.379  -0.145  0.00  0.00    +0.274 C 
ATOM      3  O   UNL     1       6.760   1.407   0.874  0.00  0.00    -0.341 OA
ATOM      4  C   UNL     1       7.107   0.061   0.430  0.00  0.00    +0.180 C 
ATOM      5  C   UNL     1       8.622  -0.045   0.108  0.00  0.00    +0.213 C 
ATOM      6  C   UNL     1       8.939   0.976  -1.005  0.00  0.00    +0.173 C 
ENDROOT
BRANCH   1   9
ATOM      7  C   UNL     1       9.628   5.251  -0.264  0.00  0.00    +0.109 C 
ATOM      8  C   UNL     1       9.920   4.142   0.697  0.00  0.00    +0.210 C 
ATOM      9  N   UNL     1       9.396   2.913   0.478  0.00  0.00    -0.305 N 
ATOM     10  H   UNL     1       9.674   2.275   1.216  0.00  0.00    +0.149 HD
ATOM     11  O   UNL     1      10.642   4.316   1.676  0.00  0.00    -0.276 OA
ENDBRANCH   1   9
BRANCH   6  12
ATOM     12  O   UNL     1       8.348   0.618  -2.262  0.00  0.00    -0.387 OA
ATOM     13  H   UNL     1       7.383   0.540  -2.222  0.00  0.00    +0.210 HD
ENDBRANCH   6  12
BRANCH   4  14
ATOM     14  C   UNL     1       6.630  -0.962   1.471  0.00  0.00    +0.190 C 
BRANCH  14  15
ATOM     15  O   UNL     1       7.203  -0.730   2.747  0.00  0.00    -0.392 OA
ATOM     16  H   UNL     1       7.011   0.200   2.970  0.00  0.00    +0.210 HD
ENDBRANCH  14  15
ENDBRANCH   4  14
BRANCH   5  17
ATOM     17  O   UNL     1       9.358   0.258   1.300  0.00  0.00    -0.207 OA
BRANCH  17  18
ATOM     18  S   UNL     1      10.958  -0.075   1.388  0.00  0.00    +0.208 S 
ATOM     19  O   UNL     1      11.649   0.863   0.524  0.00  0.00    -0.118 OA
ATOM     20  O   UNL     1      11.115  -1.500   1.274  0.00  0.00    -0.118 OA
BRANCH  18  21
ATOM     21  O   UNL     1      11.276   0.317   2.908  0.00  0.00    -0.231 OA
ATOM     22  H   UNL     1      11.105  -0.469   3.476  0.00  0.00    +0.247 HD
ENDBRANCH  18  21
ENDBRANCH  17  18
ENDBRANCH   5  17
BRANCH   2  23
ATOM     23  O   UNL     1       6.603   3.719   0.193  0.00  0.00    -0.340 OA
BRANCH  23  24
ATOM     24  C   UNL     1       5.204   3.941   0.398  0.00  0.00    +0.177 C 
ATOM     25  CA  UNL     1       4.329   4.032  -0.891  0.00  0.00    +0.119 C 
ATOM     26  N   UNL     1       3.721   5.431  -0.854  0.00  0.00    +0.241 N 
ATOM     27  H1  UNL     1       4.300   6.055  -1.442  0.00  0.00    +0.203 HD
ATOM     28  H2  UNL     1       2.758   5.420  -1.225  0.00  0.00    +0.203 HD
ATOM     29  C   UNL     1       3.717   5.880   0.581  0.00  0.00    +0.153 C 
ATOM     30  C   UNL     1       5.040   5.325   1.070  0.00  0.00    +0.101 C 
BRANCH  29  31
ATOM     31  C   UNL     1       2.450   5.336   1.274  0.00  0.00    +0.261 C 
ATOM     32  N   UNL     1       2.283   5.613   2.604  0.00  0.00    -0.309 N 
ATOM     33  H   UNL     1       2.890   6.281   3.071  0.00  0.00    +0.149 HD
ATOM     34  O   UNL     1       1.639   4.683   0.614  0.00  0.00    -0.270 OA
BRANCH  32  35
ATOM     35  C   UNL     1       1.170   5.083   3.388  0.00  0.00    +0.129 C 
BRANCH  35  36
ATOM     36  C   UNL     1       1.017   3.566   3.388  0.00  0.00    +0.216 C 
BRANCH  36  37
ATOM     37  S   UNL     1       2.403   2.720   4.116  0.00  0.00    +0.081 S 
ATOM     38  O   UNL     1       3.626   3.171   3.484  0.00  0.00    -0.147 OA
ATOM     39  O   UNL     1       2.081   1.319   4.255  0.00  0.00    -0.147 OA
BRANCH  37  40
ATOM     40  O   UNL     1       2.318   3.351   5.598  0.00  0.00    -0.254 OA
ATOM     41  H   UNL     1       2.170   2.618   6.239  0.00  0.00    +0.244 HD
ENDBRANCH  37  40
ENDBRANCH  36  37
ENDBRANCH  35  36
ENDBRANCH  32  35
ENDBRANCH  29  31
BRANCH  25  42
ATOM     42  C   UNL     1       5.025   3.947  -2.250  0.00  0.00    +0.212 C 
BRANCH  42  43
ATOM     43  O   UNL     1       5.975   5.005  -2.349  0.00  0.00    -0.389 OA
ATOM     44  H   UNL     1       6.794   4.723  -1.894  0.00  0.00    +0.210 HD
ENDBRANCH  42  43
ENDBRANCH  25  42
ENDBRANCH  23  24
ENDBRANCH   2  23
TORSDOF 16
