REMARK  Name = 
REMARK  5 active torsions:
REMARK  status: ('A' for Active; 'I' for Inactive)
REMARK    1  A    between atoms: O_1  and  C_2
REMARK    2  A    between atoms: C_2  and  C_4
REMARK    3  A    between atoms: C_4  and  C_5
REMARK    4  A    between atoms: C_5  and  C_6
REMARK    5  A    between atoms: C_6  and  C_8
REMARK                            x       y       z     vdW  Elec       q    Type
REMARK                         _______ _______ _______ _____ _____    ______ ____
ROOT
ATOM      1  C   UNL     1       3.203  -1.159   0.099  0.00  0.00    +0.128 C 
ENDROOT
BRANCH   1   2
ATOM      2  C   UNL     1       2.489   0.163  -0.001  0.00  0.00    +0.305 C 
ATOM      3  O   UNL     1       3.035   1.251  -0.084  0.00  0.00    -0.251 OA
BRANCH   2   4
ATOM      4  O   UNL     1       1.144   0.026   0.009  0.00  0.00    -0.481 OA
ATOM      5  H   UNL     1       0.842  -0.900   0.079  0.00  0.00    +0.295 HD
ENDBRANCH   2   4
ENDBRANCH   1   2
BRANCH   1   6
ATOM      6  C   UNL     1       4.716  -0.975   0.085  0.00  0.00    +0.088 C 
BRANCH   6   7
ATOM      7  C   UNL     1       5.442  -2.299   0.185  0.00  0.00    +0.164 C 
ATOM      8  O   UNL     1       4.836  -3.371   0.266  0.00  0.00    -0.295 OA
BRANCH   7   9
ATOM      9  C   UNL     1       6.952  -2.254   0.182  0.00  0.00    +0.287 C 
ATOM     10  F   UNL     1       7.432  -0.982   0.085  0.00  0.00    -0.241 F 
ENDBRANCH   7   9
ENDBRANCH   6   7
ENDBRANCH   1   6
TORSDOF 5
