REMARK  Name = 
REMARK  4 active torsions:
REMARK  status: ('A' for Active; 'I' for Inactive)
REMARK    1  A    between atoms: C_1  and  C_2
REMARK    2  A    between atoms: C_2  and  C_3
REMARK    3  A    between atoms: C_3  and  C_4
REMARK    4  A    between atoms: C_4  and  C_5
REMARK                            x       y       z     vdW  Elec       q    Type
REMARK                         _______ _______ _______ _____ _____    ______ ____
ROOT
ATOM      1  C   UNL     1       5.067   2.717  -1.245  0.00  0.00    +0.108 A 
ATOM      2  N   UNL     1       4.626   3.940  -0.795  0.00  0.00    -0.337 N 
ATOM      3  H   UNL     1       3.995   4.108  -0.022  0.00  0.00    +0.167 HD
ATOM      4  C   UNL     1       5.175   4.894  -1.602  0.00  0.00    +0.138 A 
ATOM      5  C   UNL     1       5.009   6.309  -1.572  0.00  0.00    +0.289 A 
ATOM      6  N   UNL     1       5.720   6.970  -2.562  0.00  0.00    -0.262 N 
ATOM      7  H   UNL     1       5.636   7.979  -2.616  0.00  0.00    +0.190 HD
ATOM      8  N   UNL     1       6.537   6.298  -3.509  0.00  0.00    -0.261 N 
ATOM      9  H   UNL     1       7.038   6.840  -4.204  0.00  0.00    +0.190 HD
ATOM     10  C   UNL     1       6.705   4.914  -3.540  0.00  0.00    +0.291 A 
ATOM     11  O   UNL     1       7.428   4.381  -4.375  0.00  0.00    -0.264 OA
ATOM     12  O   UNL     1       4.306   6.904  -0.763  0.00  0.00    -0.264 OA
ATOM     13  C   UNL     1       5.953   4.212  -2.508  0.00  0.00    +0.160 A 
ATOM     14  N   UNL     1       5.878   2.858  -2.278  0.00  0.00    -0.227 NA
ENDROOT
BRANCH   1  15
ATOM     15  C   UNL     1       4.629   1.431  -0.626  0.00  0.00    +0.074 C 
BRANCH  15  16
ATOM     16  C   UNL     1       5.819   0.626  -0.104  0.00  0.00    +0.007 C 
BRANCH  16  18
ATOM     17  C   UNL     1       6.550  -1.495   1.040  0.00  0.00    +0.004 C 
ATOM     18  C   UNL     1       5.367  -0.692   0.524  0.00  0.00    -0.003 C 
ENDBRANCH  16  18
ENDBRANCH  15  16
ENDBRANCH   1  15
TORSDOF 3
