REMARK  Name = 
REMARK  4 active torsions:
REMARK  status: ('A' for Active; 'I' for Inactive)
REMARK    1  A    between atoms: C_2  and  O_3
REMARK    2  A    between atoms: C_9  and  O_10
REMARK    3  A    between atoms: O_10  and  C_11
REMARK    4  A    between atoms: N_13  and  O_14
REMARK                            x       y       z     vdW  Elec       q    Type
REMARK                         _______ _______ _______ _____ _____    ______ ____
ROOT
ATOM      1  C   UNL     1       2.295   0.141   0.101  0.00  0.00    +0.395 C 
ATOM      2  C   UNL     1       2.852  -1.205   0.624  0.00  0.00    +0.311 C 
ATOM      3  O   UNL     1       2.168  -2.222   0.735  0.00  0.00    -0.266 OA
ATOM      4  N   UNL     1       4.211  -1.144   0.837  0.00  0.00    -0.143 N 
ATOM      5  C   UNL     1       4.914   0.064   0.919  0.00  0.00    +0.106 A 
ATOM      6  C   UNL     1       6.293   0.094   1.133  0.00  0.00    +0.033 A 
ATOM      7  C   UNL     1       6.961   1.315   1.254  0.00  0.00    +0.048 A 
ATOM      8  C   UNL     1       6.253   2.514   1.178  0.00  0.00    +0.124 A 
ATOM      9  C   UNL     1       4.871   2.483   0.963  0.00  0.00    +0.093 A 
ATOM     10  C   UNL     1       4.206   1.266   0.821  0.00  0.00    +0.152 A 
ATOM     11  O   UNL     1       2.848   1.325   0.650  0.00  0.00    -0.453 OA
ENDROOT
BRANCH   4  12
ATOM     12  O   UNL     1       4.881  -2.310   1.256  0.00  0.00    -0.287 OA
ATOM     13  H   UNL     1       4.871  -2.835   0.436  0.00  0.00    +0.242 HD
ENDBRANCH   4  12
BRANCH   8  14
ATOM     14  O   UNL     1       6.786   3.767   1.299  0.00  0.00    -0.495 OA
ATOM     15  C   UNL     1       8.185   3.840   1.555  0.00  0.00    +0.277 C 
ENDBRANCH   8  14
BRANCH   1  16
ATOM     16  O   UNL     1       2.426   0.175  -1.319  0.00  0.00    -0.351 OA
ATOM     17  H   UNL     1       1.655   0.668  -1.644  0.00  0.00    +0.214 HD
ENDBRANCH   1  16
TORSDOF 3
