REMARK  Name = 
REMARK  51 active torsions:
REMARK  status: ('A' for Active; 'I' for Inactive)
REMARK    1  A    between atoms: N_1  and  C_2
REMARK    2  A    between atoms: C_2  and  C_3
REMARK    3  A    between atoms: C_2  and  C_59
REMARK    4  A    between atoms: C_3  and  O_4
REMARK    5  A    between atoms: O_4  and  C_5
REMARK    6  A    between atoms: N_7  and  C_8
REMARK    7  A    between atoms: C_8  and  C_9
REMARK    8  A    between atoms: C_9  and  N_10
REMARK    9  A    between atoms: N_10  and  C_11
REMARK   10  A    between atoms: C_12  and  N_13
REMARK   11  A    between atoms: N_13  and  C_14
REMARK   12  A    between atoms: C_14  and  C_15
REMARK   13  A    between atoms: C_15  and  C_16
REMARK   14  A    between atoms: C_16  and  N_17
REMARK   15  A    between atoms: N_20  and  C_21
REMARK   16  A    between atoms: C_21  and  C_22
REMARK   17  A    between atoms: C_22  and  C_23
REMARK   18  A    between atoms: C_23  and  N_24
REMARK   19  A    between atoms: C_25  and  C_27
REMARK   20  A    between atoms: C_29  and  O_30
REMARK   21  A    between atoms: O_30  and  C_31
REMARK   22  A    between atoms: C_34  and  C_36
REMARK   23  A    between atoms: C_36  and  O_37
REMARK   24  A    between atoms: C_38  and  O_40
REMARK   25  A    between atoms: C_41  and  O_43
REMARK   26  A    between atoms: C_44  and  O_46
REMARK   27  A    between atoms: C_48  and  N_50
REMARK   28  A    between atoms: C_59  and  O_60
REMARK   29  A    between atoms: O_60  and  C_61
REMARK   30  A    between atoms: N_63  and  C_64
REMARK   31  A    between atoms: C_64  and  C_65
REMARK   32  A    between atoms: C_65  and  N_66
REMARK   33  A    between atoms: N_66  and  C_67
REMARK   34  A    between atoms: C_68  and  N_69
REMARK   35  A    between atoms: N_69  and  C_70
REMARK   36  A    between atoms: C_70  and  C_71
REMARK   37  A    between atoms: C_71  and  C_72
REMARK   38  A    between atoms: C_72  and  N_73
REMARK   39  A    between atoms: N_76  and  C_77
REMARK   40  A    between atoms: C_77  and  C_78
REMARK   41  A    between atoms: C_78  and  C_79
REMARK   42  A    between atoms: C_79  and  N_80
REMARK   43  A    between atoms: C_81  and  C_83
REMARK   44  A    between atoms: C_85  and  O_86
REMARK   45  A    between atoms: O_86  and  C_87
REMARK   46  A    between atoms: C_90  and  C_92
REMARK   47  A    between atoms: C_92  and  O_93
REMARK   48  A    between atoms: C_94  and  O_96
REMARK   49  A    between atoms: C_97  and  O_99
REMARK   50  A    between atoms: C_100  and  O_102
REMARK   51  A    between atoms: C_104  and  N_106
REMARK                            x       y       z     vdW  Elec       q    Type
REMARK                         _______ _______ _______ _____ _____    ______ ____
ROOT
ATOM      1  C   UNL     1      -1.706 -24.676  14.365  0.00  0.00    +0.127 C 
ENDROOT
BRANCH   1   2
ATOM      2  N   UNL     1      -0.859 -24.302  13.211  0.00  0.00    -0.322 NA
ATOM      3  H   UNL     1      -1.370 -24.477  12.343  0.00  0.00    +0.119 HD
ATOM      4  H   UNL     1      -0.716 -23.291  13.240  0.00  0.00    +0.119 HD
ENDBRANCH   1   2
BRANCH   1   5
ATOM      5  C   UNL     1      -2.167 -26.152  14.292  0.00  0.00    +0.255 C 
BRANCH   5   6
ATOM      6  O   UNL     1      -1.047 -27.054  14.482  0.00  0.00    -0.449 OA
BRANCH   6   7
ATOM      7  C   UNL     1      -0.370 -27.425  13.361  0.00  0.00    +0.400 C 
ATOM      8  N   UNL     1       0.870 -27.894  13.708  0.00  0.00    -0.280 N 
ATOM      9  H   UNL     1       1.033 -27.761  14.702  0.00  0.00    +0.152 HD
ATOM     10  O   UNL     1      -0.769 -27.256  12.221  0.00  0.00    -0.226 OA
BRANCH   8  11
ATOM     11  C   UNL     1       2.070 -27.793  12.870  0.00  0.00    +0.126 C 
BRANCH  11  12
ATOM     12  C   UNL     1       1.982 -26.986  11.559  0.00  0.00    +0.120 C 
BRANCH  12  13
ATOM     13  N   UNL     1       1.508 -25.595  11.739  0.00  0.00    -0.338 N 
ATOM     14  H   UNL     1       0.479 -25.700  11.742  0.00  0.00    +0.146 HD
BRANCH  13  15
ATOM     15  C   UNL     1       1.952 -24.825  12.727  0.00  0.00    +0.103 C 
ATOM     16  C   UNL     1       1.718 -24.890  14.212  0.00  0.00    +0.250 C 
ATOM     17  O   UNL     1       1.411 -25.659  15.096  0.00  0.00    -0.282 OA
ATOM     18  C   UNL     1       2.349 -23.570  14.301  0.00  0.00    +0.250 C 
ATOM     19  O   UNL     1       2.373 -22.717  15.154  0.00  0.00    -0.282 OA
ATOM     20  C   UNL     1       2.816 -23.775  12.911  0.00  0.00    +0.103 C 
BRANCH  20  21
ATOM     21  N   UNL     1       3.665 -23.028  12.252  0.00  0.00    -0.339 N 
ATOM     22  H   UNL     1       4.308 -22.439  12.782  0.00  0.00    +0.146 HD
BRANCH  21  23
ATOM     23  C   UNL     1       3.339 -22.442  10.959  0.00  0.00    +0.103 C 
BRANCH  23  24
ATOM     24  C   UNL     1       4.623 -22.376  10.157  0.00  0.00    +0.034 C 
BRANCH  24  25
ATOM     25  C   UNL     1       5.092 -23.783   9.766  0.00  0.00    +0.086 C 
BRANCH  25  26
ATOM     26  N   UNL     1       6.408 -23.766   9.104  0.00  0.00    -0.300 NA
ATOM     27  C   UNL     1       6.817 -25.147   8.738  0.00  0.00    +0.100 C 
ATOM     28  C   UNL     1       7.319 -26.035   9.911  0.00  0.00    +0.100 C 
ATOM     29  N   UNL     1       8.301 -25.389  10.812  0.00  0.00    -0.300 NA
ATOM     30  C   UNL     1       7.778 -24.062  11.196  0.00  0.00    +0.100 C 
ATOM     31  C   UNL     1       7.456 -23.184   9.970  0.00  0.00    +0.100 C 
BRANCH  29  32
ATOM     32  C   UNL     1       9.624 -25.302  10.165  0.00  0.00    +0.086 C 
BRANCH  32  33
ATOM     33  C   UNL     1      10.686 -24.700  11.083  0.00  0.00    +0.034 C 
BRANCH  33  34
ATOM     34  C   UNL     1      10.825 -25.525  12.355  0.00  0.00    +0.106 C 
BRANCH  34  35
ATOM     35  N   UNL     1      11.801 -24.914  13.234  0.00  0.00    -0.311 N 
ATOM     36  H   UNL     1      11.463 -24.136  13.786  0.00  0.00    +0.149 HD
ATOM     37  C   UNL     1      13.139 -25.157  13.102  0.00  0.00    +0.244 C 
ATOM     38  O   UNL     1      13.634 -25.879  12.241  0.00  0.00    -0.270 OA
BRANCH  37  39
ATOM     39  C   UNL     1      13.987 -24.434  14.071  0.00  0.00    +0.047 A 
ATOM     40  C   UNL     1      15.282 -24.069  13.716  0.00  0.00    +0.097 A 
ATOM     41  C   UNL     1      16.049 -23.361  14.645  0.00  0.00    +0.277 A 
ATOM     42  C   UNL     1      15.517 -23.005  15.897  0.00  0.00    +0.130 A 
ATOM     43  C   UNL     1      14.224 -23.399  16.250  0.00  0.00    +0.131 A 
ATOM     44  C   UNL     1      13.482 -24.139  15.343  0.00  0.00    +0.059 A 
BRANCH  41  45
ATOM     45  N   UNL     1      17.429 -22.993  14.311  0.00  0.00    +0.080 N 
ATOM     46  O   UNL     1      17.865 -23.336  13.203  0.00  0.00    +0.041 OA
ATOM     47  O   UNL     1      18.078 -22.365  15.158  0.00  0.00    -0.576 OA
ENDBRANCH  41  45
BRANCH  43  48
ATOM     48  O   UNL     1      13.798 -23.007  17.484  0.00  0.00    -0.461 OA
BRANCH  48  49
ATOM     49  C   UNL     1      12.534 -23.459  18.005  0.00  0.00    +0.339 C 
ATOM     50  C   UNL     1      11.315 -22.739  17.363  0.00  0.00    +0.214 C 
ATOM     51  C   UNL     1      10.020 -23.258  18.010  0.00  0.00    +0.180 C 
ATOM     52  C   UNL     1       9.971 -24.792  18.005  0.00  0.00    +0.177 C 
ATOM     53  C   UNL     1      11.238 -25.369  18.646  0.00  0.00    +0.179 C 
ATOM     54  O   UNL     1      12.410 -24.888  17.973  0.00  0.00    -0.331 OA
BRANCH  52  55
ATOM     55  O   UNL     1       8.777 -25.214  18.672  0.00  0.00    -0.386 OA
ATOM     56  H   UNL     1       8.873 -25.069  19.631  0.00  0.00    +0.210 HD
ENDBRANCH  52  55
BRANCH  50  57
ATOM     57  O   UNL     1      11.420 -21.313  17.479  0.00  0.00    -0.383 OA
ATOM     58  H   UNL     1      11.371 -21.060  18.415  0.00  0.00    +0.210 HD
ENDBRANCH  50  57
BRANCH  51  59
ATOM     59  O   UNL     1       8.872 -22.759  17.310  0.00  0.00    -0.386 OA
ATOM     60  H   UNL     1       8.108 -23.293  17.607  0.00  0.00    +0.210 HD
ENDBRANCH  51  59
BRANCH  53  61
ATOM     61  C   UNL     1      11.249 -26.901  18.575  0.00  0.00    +0.190 C 
BRANCH  61  62
ATOM     62  O   UNL     1      12.401 -27.401  19.252  0.00  0.00    -0.392 OA
ATOM     63  H   UNL     1      13.175 -27.018  18.796  0.00  0.00    +0.210 HD
ENDBRANCH  61  62
ENDBRANCH  53  61
ENDBRANCH  48  49
ENDBRANCH  43  48
ENDBRANCH  37  39
ENDBRANCH  34  35
ENDBRANCH  33  34
ENDBRANCH  32  33
ENDBRANCH  29  32
ENDBRANCH  25  26
ENDBRANCH  24  25
ENDBRANCH  23  24
ENDBRANCH  21  23
ENDBRANCH  20  21
ENDBRANCH  13  15
ENDBRANCH  12  13
ENDBRANCH  11  12
ENDBRANCH   8  11
ENDBRANCH   6   7
ENDBRANCH   5   6
ENDBRANCH   1   5
BRANCH   1  64
ATOM     64  C   UNL     1      -2.854 -23.653  14.412  0.00  0.00    +0.255 C 
BRANCH  64  65
ATOM     65  O   UNL     1      -2.218 -22.348  14.490  0.00  0.00    -0.449 OA
BRANCH  65  66
ATOM     66  C   UNL     1      -2.504 -21.468  13.506  0.00  0.00    +0.400 C 
ATOM     67  N   UNL     1      -1.576 -20.468  13.515  0.00  0.00    -0.280 N 
ATOM     68  H   UNL     1      -0.825 -20.535  14.189  0.00  0.00    +0.152 HD
ATOM     69  O   UNL     1      -3.413 -21.574  12.701  0.00  0.00    -0.226 OA
BRANCH  67  70
ATOM     70  C   UNL     1      -1.707 -19.306  12.660  0.00  0.00    +0.126 C 
BRANCH  70  71
ATOM     71  C   UNL     1      -2.867 -18.403  13.105  0.00  0.00    +0.120 C 
BRANCH  71  72
ATOM     72  N   UNL     1      -3.005 -17.253  12.218  0.00  0.00    -0.338 N 
ATOM     73  H   UNL     1      -2.284 -16.541  12.336  0.00  0.00    +0.146 HD
BRANCH  72  74
ATOM     74  C   UNL     1      -4.108 -16.958  11.561  0.00  0.00    +0.103 C 
ATOM     75  C   UNL     1      -5.410 -17.671  11.432  0.00  0.00    +0.250 C 
ATOM     76  O   UNL     1      -5.953 -18.675  11.824  0.00  0.00    -0.282 OA
ATOM     77  C   UNL     1      -5.887 -16.537  10.607  0.00  0.00    +0.250 C 
ATOM     78  O   UNL     1      -6.903 -16.325   9.992  0.00  0.00    -0.282 OA
ATOM     79  C   UNL     1      -4.557 -15.910  10.798  0.00  0.00    +0.103 C 
BRANCH  79  80
ATOM     80  N   UNL     1      -4.117 -14.746  10.357  0.00  0.00    -0.339 N 
ATOM     81  H   UNL     1      -4.810 -14.059  10.052  0.00  0.00    +0.146 HD
BRANCH  80  82
ATOM     82  C   UNL     1      -2.943 -14.670   9.483  0.00  0.00    +0.103 C 
BRANCH  82  83
ATOM     83  C   UNL     1      -3.340 -14.880   8.017  0.00  0.00    +0.034 C 
BRANCH  83  84
ATOM     84  C   UNL     1      -4.345 -13.845   7.474  0.00  0.00    +0.086 C 
BRANCH  84  85
ATOM     85  N   UNL     1      -3.857 -12.452   7.511  0.00  0.00    -0.300 NA
ATOM     86  C   UNL     1      -4.897 -11.507   7.031  0.00  0.00    +0.100 C 
ATOM     87  C   UNL     1      -5.169 -11.530   5.502  0.00  0.00    +0.100 C 
ATOM     88  N   UNL     1      -3.976 -11.555   4.625  0.00  0.00    -0.300 NA
ATOM     89  C   UNL     1      -2.961 -12.479   5.166  0.00  0.00    +0.100 C 
ATOM     90  C   UNL     1      -2.665 -12.256   6.662  0.00  0.00    +0.100 C 
BRANCH  88  91
ATOM     91  C   UNL     1      -3.441 -10.206   4.384  0.00  0.00    +0.086 C 
BRANCH  91  92
ATOM     92  C   UNL     1      -2.349 -10.201   3.306  0.00  0.00    +0.034 C 
BRANCH  92  93
ATOM     93  C   UNL     1      -2.859 -10.824   2.008  0.00  0.00    +0.106 C 
BRANCH  93  94
ATOM     94  N   UNL     1      -1.823 -10.893   1.004  0.00  0.00    -0.311 N 
ATOM     95  H   UNL     1      -1.373 -11.786   0.860  0.00  0.00    +0.149 HD
ATOM     96  C   UNL     1      -1.567  -9.818   0.187  0.00  0.00    +0.244 C 
ATOM     97  O   UNL     1      -2.172  -8.752   0.249  0.00  0.00    -0.270 OA
BRANCH  96  98
ATOM     98  C   UNL     1      -0.487  -9.984  -0.814  0.00  0.00    +0.047 A 
ATOM     99  C   UNL     1       0.566 -10.879  -0.634  0.00  0.00    +0.097 A 
ATOM    100  C   UNL     1       1.594 -10.924  -1.578  0.00  0.00    +0.277 A 
ATOM    101  C   UNL     1       1.597 -10.039  -2.683  0.00  0.00    +0.130 A 
ATOM    102  C   UNL     1       0.557  -9.115  -2.829  0.00  0.00    +0.131 A 
ATOM    103  C   UNL     1      -0.507  -9.137  -1.929  0.00  0.00    +0.059 A 
BRANCH 100 104
ATOM    104  N   UNL     1       2.670 -11.900  -1.418  0.00  0.00    +0.080 N 
ATOM    105  O   UNL     1       2.617 -12.642  -0.422  0.00  0.00    +0.041 OA
ATOM    106  O   UNL     1       3.557 -11.934  -2.274  0.00  0.00    -0.576 OA
ENDBRANCH 100 104
BRANCH 102 107
ATOM    107  O   UNL     1       0.664  -8.233  -3.872  0.00  0.00    -0.461 OA
BRANCH 107 108
ATOM    108  C   UNL     1      -0.054  -6.988  -3.732  0.00  0.00    +0.339 C 
ATOM    109  C   UNL     1       0.793  -5.846  -4.336  0.00  0.00    +0.214 C 
ATOM    110  C   UNL     1      -0.020  -4.546  -4.320  0.00  0.00    +0.180 C 
ATOM    111  C   UNL     1      -1.381  -4.731  -4.987  0.00  0.00    +0.177 C 
ATOM    112  C   UNL     1      -2.111  -5.892  -4.308  0.00  0.00    +0.179 C 
ATOM    113  O   UNL     1      -1.329  -7.096  -4.381  0.00  0.00    -0.331 OA
BRANCH 109 114
ATOM    114  O   UNL     1       1.989  -5.673  -3.554  0.00  0.00    -0.383 OA
ATOM    115  H   UNL     1       2.139  -4.714  -3.459  0.00  0.00    +0.210 HD
ENDBRANCH 109 114
BRANCH 110 116
ATOM    116  O   UNL     1       0.708  -3.498  -4.976  0.00  0.00    -0.386 OA
ATOM    117  H   UNL     1       0.048  -2.826  -5.243  0.00  0.00    +0.210 HD
ENDBRANCH 110 116
BRANCH 111 118
ATOM    118  O   UNL     1      -2.102  -3.497  -4.906  0.00  0.00    -0.386 OA
ATOM    119  H   UNL     1      -2.366  -3.340  -3.981  0.00  0.00    +0.210 HD
ENDBRANCH 111 118
BRANCH 112 120
ATOM    120  C   UNL     1      -3.460  -6.161  -4.981  0.00  0.00    +0.190 C 
BRANCH 120 121
ATOM    121  O   UNL     1      -4.157  -7.176  -4.260  0.00  0.00    -0.392 OA
ATOM    122  H   UNL     1      -3.553  -7.941  -4.218  0.00  0.00    +0.210 HD
ENDBRANCH 120 121
ENDBRANCH 112 120
ENDBRANCH 107 108
ENDBRANCH 102 107
ENDBRANCH  96  98
ENDBRANCH  93  94
ENDBRANCH  92  93
ENDBRANCH  91  92
ENDBRANCH  88  91
ENDBRANCH  84  85
ENDBRANCH  83  84
ENDBRANCH  82  83
ENDBRANCH  80  82
ENDBRANCH  79  80
ENDBRANCH  72  74
ENDBRANCH  71  72
ENDBRANCH  70  71
ENDBRANCH  67  70
ENDBRANCH  65  66
ENDBRANCH  64  65
ENDBRANCH   1  64
TORSDOF 51
