REMARK  Name = 
REMARK  5 active torsions:
REMARK  status: ('A' for Active; 'I' for Inactive)
REMARK    1  A    between atoms: S_1  and  C_2
REMARK    2  A    between atoms: C_3  and  C_4
REMARK    3  A    between atoms: C_4  and  S_5
REMARK    4  A    between atoms: S_5  and  C_7
REMARK    5  A    between atoms: C_7  and  C_8
REMARK                            x       y       z     vdW  Elec       q    Type
REMARK                         _______ _______ _______ _____ _____    ______ ____
ROOT
ATOM      1  C   UNL     1       5.195   3.881   0.972  0.00  0.00    +0.131 C 
ENDROOT
BRANCH   1   3
ATOM      2  C   UNL     1       3.119   5.286   1.095  0.00  0.00    +0.034 C 
ATOM      3  C   UNL     1       3.714   4.087   1.053  0.00  0.00    -0.007 C 
BRANCH   2   4
ATOM      4  S   UNL     1       1.401   5.434   1.203  0.00  0.00    -0.151 S 
ATOM      5  H   UNL     1       1.309   6.772   1.230  0.00  0.00    +0.107 HD
ENDBRANCH   2   4
ENDBRANCH   1   3
BRANCH   1   6
ATOM      6  S   UNL     1       5.621   2.899  -0.506  0.00  0.00    +0.030 S 
ATOM      7  O   UNL     1       5.134   1.496  -0.273  0.00  0.00    -0.257 OA
BRANCH   6   8
ATOM      8  C   UNL     1       7.422   2.920  -0.212  0.00  0.00    +0.130 C 
BRANCH   8   9
ATOM      9  C   UNL     1       8.125   2.045  -1.204  0.00  0.00    -0.021 C 
ATOM     10  C   UNL     1       9.064   2.460  -2.066  0.00  0.00    +0.005 C 
ENDBRANCH   8   9
ENDBRANCH   6   8
ENDBRANCH   1   6
TORSDOF 5
