REMARK  Name = 
REMARK  4 active torsions:
REMARK  status: ('A' for Active; 'I' for Inactive)
REMARK    1  A    between atoms: O_1  and  C_2
REMARK    2  A    between atoms: C_2  and  C_4
REMARK    3  A    between atoms: C_2  and  C_7
REMARK    4  A    between atoms: C_4  and  O_5
REMARK                            x       y       z     vdW  Elec       q    Type
REMARK                         _______ _______ _______ _____ _____    ______ ____
ROOT
ATOM      1  C   UNL     1       2.516  -0.021  -0.122  0.00  0.00    +0.253 C 
ENDROOT
BRANCH   1   2
ATOM      2  C   UNL     1       2.804   0.799  -1.364  0.00  0.00    -0.008 A 
ATOM      3  C   UNL     1       2.980   0.235  -2.640  0.00  0.00    +0.007 A 
ATOM      4  C   UNL     1       3.244   1.046  -3.749  0.00  0.00    +0.000 A 
ATOM      5  C   UNL     1       3.319   2.429  -3.608  0.00  0.00    +0.000 A 
ATOM      6  C   UNL     1       3.127   3.007  -2.358  0.00  0.00    +0.000 A 
ATOM      7  C   UNL     1       2.870   2.199  -1.247  0.00  0.00    +0.007 A 
ENDBRANCH   1   2
BRANCH   1   8
ATOM      8  O   UNL     1       3.174  -1.303  -0.111  0.00  0.00    -0.376 OA
ATOM      9  H   UNL     1       3.022  -1.714  -0.980  0.00  0.00    +0.211 HD
ENDBRANCH   1   8
BRANCH   1  10
ATOM     10  C   UNL     1       1.022  -0.268   0.138  0.00  0.00    +0.338 C 
ATOM     11  O   UNL     1       0.099   0.484  -0.132  0.00  0.00    -0.248 OA
BRANCH  10  12
ATOM     12  O   UNL     1       0.830  -1.459   0.778  0.00  0.00    -0.479 OA
ATOM     13  H   UNL     1       1.708  -1.889   0.910  0.00  0.00    +0.295 HD
ENDBRANCH  10  12
ENDBRANCH   1  10
TORSDOF 4
