REMARK  Name = 
REMARK  4 active torsions:
REMARK  status: ('A' for Active; 'I' for Inactive)
REMARK    1  A    between atoms: O_1  and  C_2
REMARK    2  A    between atoms: C_6  and  C_12
REMARK    3  A    between atoms: C_9  and  O_11
REMARK    4  A    between atoms: C_12  and  O_13
REMARK                            x       y       z     vdW  Elec       q    Type
REMARK                         _______ _______ _______ _____ _____    ______ ____
ROOT
ATOM      1  C   UNL     1       2.294  -0.015   0.059  0.00  0.00    +0.169 C 
ATOM      2  C   UNL     1       2.799   1.009  -0.959  0.00  0.00    +0.148 C 
ATOM      3  C   UNL     1       2.508   0.523  -2.376  0.00  0.00    +0.077 C 
ATOM      4  C   UNL     1       3.052  -0.885  -2.611  0.00  0.00    +0.229 C 
ATOM      5  O   UNL     1       2.643  -1.822  -1.605  0.00  0.00    -0.363 OA
ATOM      6  C   UNL     1       2.896  -1.390  -0.257  0.00  0.00    +0.194 C 
ENDROOT
BRANCH   1   7
ATOM      7  O   UNL     1       0.865  -0.065   0.007  0.00  0.00    -0.387 OA
ATOM      8  H   UNL     1       0.570  -0.761   0.619  0.00  0.00    +0.210 HD
ENDBRANCH   1   7
BRANCH   2   9
ATOM      9  O   UNL     1       4.200   1.200  -0.765  0.00  0.00    -0.389 OA
ATOM     10  H   UNL     1       4.563   1.678  -1.537  0.00  0.00    +0.210 HD
ENDBRANCH   2   9
BRANCH   4  11
ATOM     11  C   UNL     1       4.569  -0.905  -2.850  0.00  0.00    +0.334 C 
ATOM     12  O   UNL     1       5.225   0.023  -3.301  0.00  0.00    -0.248 OA
BRANCH  11  13
ATOM     13  O   UNL     1       5.108  -2.114  -2.547  0.00  0.00    -0.479 OA
ATOM     14  H   UNL     1       4.403  -2.702  -2.195  0.00  0.00    +0.295 HD
ENDBRANCH  11  13
ENDBRANCH   4  11
TORSDOF 4
