REMARK  Name = 
REMARK  17 active torsions:
REMARK  status: ('A' for Active; 'I' for Inactive)
REMARK    1  A    between atoms: CG1_1  and  CB_2
REMARK    2  A    between atoms: CB_2  and  CG2_3
REMARK    3  A    between atoms: CB_2  and  CA_4
REMARK    4  A    between atoms: CA_4  and  N_6
REMARK    5  A    between atoms: CA_4  and  C_25
REMARK    6  A    between atoms: C_7  and  C_9
REMARK    7  A    between atoms: C_9  and  C_11
REMARK    8  A    between atoms: C_9  and  N_13
REMARK    9  A    between atoms: C_11  and  S_12
REMARK   10  A    between atoms: C_14  and  C_16
REMARK   11  A    between atoms: C_16  and  C_17
REMARK   12  A    between atoms: C_17  and  C_18
REMARK   13  A    between atoms: C_18  and  C_19
REMARK   14  A    between atoms: C_19  and  N_21
REMARK   15  A    between atoms: C_19  and  C_22
REMARK   16  A    between atoms: C_22  and  O_23
REMARK   17  A    between atoms: C_25  and  O_26
REMARK                            x       y       z     vdW  Elec       q    Type
REMARK                         _______ _______ _______ _____ _____    ______ ____
ROOT
ATOM      1  C   UNK A   1      -7.476  -4.393 -13.136  0.00  0.00    +0.168 C 
ENDROOT
BRANCH   1   4
ATOM      2  N   VAL A   2      -9.036  -2.499 -12.964  0.00  0.00    -0.301 N 
ATOM      3  H   VAL A   2      -8.179  -1.937 -13.009  0.00  0.00    +0.150 HD
ATOM      4  C   UNK A   1      -8.872  -3.852 -12.751  0.00  0.00    +0.235 C 
ATOM      5  O   UNK A   1      -9.765  -4.566 -12.301  0.00  0.00    -0.274 OA
BRANCH   2   6
ATOM      6  CA  VAL A   2     -10.283  -1.797 -12.649  0.00  0.00    +0.184 C 
BRANCH   6   8
ATOM      7  CG1 VAL A   2     -10.113  -0.107 -14.586  0.00  0.00    +0.009 C 
ATOM      8  CB  VAL A   2     -10.955  -1.190 -13.906  0.00  0.00    +0.014 C 
ATOM      9  CG2 VAL A   2     -11.327  -2.272 -14.927  0.00  0.00    +0.009 C 
ENDBRANCH   6   8
BRANCH   6  10
ATOM     10  C   VAL A   2     -10.008  -0.742 -11.560  0.00  0.00    +0.326 C 
ATOM     11  OXT VAL A   2      -8.891  -0.425 -11.172  0.00  0.00    -0.249 OA
BRANCH  10  12
ATOM     12  O   VAL A   2     -11.126  -0.174 -11.046  0.00  0.00    -0.479 OA
ATOM     13  H   VAL A   2     -11.963  -0.523 -11.404  0.00  0.00    +0.295 HD
ENDBRANCH  10  12
ENDBRANCH   6  10
ENDBRANCH   2   6
ENDBRANCH   1   4
BRANCH   1  14
ATOM     14  N   UNK A   1      -6.492  -4.099 -12.093  0.00  0.00    -0.303 N 
ATOM     15  H   UNK A   1      -6.348  -4.764 -11.342  0.00  0.00    +0.149 HD
ATOM     16  C   UNK A   1      -5.855  -2.886 -12.071  0.00  0.00    +0.214 C 
ATOM     17  O   UNK A   1      -6.136  -2.005 -12.886  0.00  0.00    -0.276 OA
BRANCH  16  18
ATOM     18  C   UNK A   1      -4.768  -2.728 -11.015  0.00  0.00    +0.096 C 
BRANCH  18  19
ATOM     19  C   UNK A   1      -4.660  -1.251 -10.641  0.00  0.00    +0.011 C 
BRANCH  19  20
ATOM     20  C   UNK A   1      -3.566  -0.920  -9.619  0.00  0.00    +0.030 C 
BRANCH  20  21
ATOM     21  C   UNK A   1      -3.547   0.571  -9.230  0.00  0.00    +0.161 C 
BRANCH  21  22
ATOM     22  N   UNK A   1      -4.864   1.009  -8.691  0.00  0.00    -0.318 NA
ATOM     23  H   UNK A   1      -5.079   0.442  -7.867  0.00  0.00    +0.119 HD
ATOM     24  H   UNK A   1      -4.766   1.964  -8.333  0.00  0.00    +0.119 HD
ENDBRANCH  21  22
BRANCH  21  25
ATOM     25  C   UNK A   1      -3.199   1.448 -10.445  0.00  0.00    +0.322 C 
ATOM     26  O   UNK A   1      -2.070   1.645 -10.866  0.00  0.00    -0.249 OA
BRANCH  25  27
ATOM     27  O   UNK A   1      -4.315   1.971 -11.019  0.00  0.00    -0.480 OA
ATOM     28  H   UNK A   1      -5.090   1.637 -10.502  0.00  0.00    +0.295 HD
ENDBRANCH  25  27
ENDBRANCH  21  25
ENDBRANCH  20  21
ENDBRANCH  19  20
ENDBRANCH  18  19
ENDBRANCH  16  18
ENDBRANCH   1  14
BRANCH   1  29
ATOM     29  C   UNK A   1      -7.581  -5.893 -13.434  0.00  0.00    +0.097 C 
BRANCH  29  30
ATOM     30  S   UNK A   1      -6.013  -6.578 -14.075  0.00  0.00    -0.176 S 
ATOM     31  H   UNK A   1      -5.892  -5.742 -15.119  0.00  0.00    +0.102 HD
ENDBRANCH  29  30
ENDBRANCH   1  29
TORSDOF 15
