REMARK  Name = 
REMARK  3 active torsions:
REMARK  status: ('A' for Active; 'I' for Inactive)
REMARK    1  A    between atoms: C_5  and  C_6
REMARK    2  A    between atoms: C_5  and  O_7
REMARK    3  A    between atoms: C_8  and  C_9
REMARK                            x       y       z     vdW  Elec       q    Type
REMARK                         _______ _______ _______ _____ _____    ______ ____
ROOT
ATOM      1  C   UNL     1       2.340   0.161  -0.039  0.00  0.00    +0.009 C 
ATOM      2  C   UNL     1       2.498   0.094  -1.562  0.00  0.00    +0.024 C 
ATOM      3  C   UNL     1       1.748  -1.154  -2.087  0.00  0.00    -0.041 C 
ATOM      4  C   UNL     1       1.198  -1.173  -3.329  0.00  0.00    -0.040 C 
ATOM      5  C   UNL     1       1.056   0.069  -4.081  0.00  0.00    -0.041 C 
ATOM      6  C   UNL     1       1.041   1.337  -3.256  0.00  0.00    +0.036 C 
ATOM      7  C   UNL     1       0.841   0.125  -5.401  0.00  0.00    +0.050 C 
ATOM      8  C   UNL     1       0.597  -1.109  -6.169  0.00  0.00    +0.157 C 
ATOM      9  O   UNL     1       0.625  -1.081  -7.397  0.00  0.00    -0.293 OA
ATOM     10  C   UNL     1       0.131  -2.321  -5.406  0.00  0.00    +0.083 C 
ATOM     11  C   UNL     1       0.758  -2.448  -4.021  0.00  0.00    +0.043 C 
ATOM     12  C   UNL     1       1.665  -2.298  -1.157  0.00  0.00    +0.000 C 
ATOM     13  C   UNL     1       2.103  -2.272   0.122  0.00  0.00    -0.017 C 
ATOM     14  C   UNL     1       2.217   1.411  -2.304  0.00  0.00    +0.013 C 
ATOM     15  C   UNL     1       2.925  -1.112   0.642  0.00  0.00    +0.018 C 
ATOM     16  C   UNL     1       4.378  -1.541   0.251  0.00  0.00    +0.019 C 
ATOM     17  C   UNL     1       2.951  -0.647   2.143  0.00  0.00    +0.072 C 
ATOM     18  C   UNL     1       1.628  -0.507   2.904  0.00  0.00    +0.042 C 
ATOM     19  C   UNL     1       3.570   0.759   1.981  0.00  0.00    +0.035 C 
ATOM     20  C   UNL     1       2.891   1.356   0.748  0.00  0.00    +0.008 C 
ENDROOT
BRANCH  17  21
ATOM     21  O   UNL     1       3.806  -1.467   2.945  0.00  0.00    -0.388 OA
ATOM     22  H   UNL     1       3.396  -2.356   2.952  0.00  0.00    +0.210 HD
ENDBRANCH  17  21
TORSDOF 1
