REMARK  Name = 
REMARK  11 active torsions:
REMARK  status: ('A' for Active; 'I' for Inactive)
REMARK    1  A    between atoms: C_7  and  C_9
REMARK    2  A    between atoms: N_11  and  C_12
REMARK    3  A    between atoms: C_12  and  C_13
REMARK    4  A    between atoms: C_13  and  O_14
REMARK    5  A    between atoms: O_14  and  C_15
REMARK    6  A    between atoms: C_15  and  C_16
REMARK    7  A    between atoms: C_16  and  O_17
REMARK    8  A    between atoms: O_17  and  C_18
REMARK    9  A    between atoms: C_18  and  C_19
REMARK   10  A    between atoms: C_19  and  N_20
REMARK   11  A    between atoms: C_21  and  C_23
REMARK                            x       y       z     vdW  Elec       q    Type
REMARK                         _______ _______ _______ _____ _____    ______ ____
ROOT
ATOM      1  C   UNL     1      14.212   1.216  -2.858  0.00  0.00    +0.188 C 
ENDROOT
BRANCH   1   2
ATOM      2  O   UNL     1      13.121   2.130  -2.672  0.00  0.00    -0.376 OA
BRANCH   2   3
ATOM      3  C   UNL     1      12.690   2.743  -3.884  0.00  0.00    +0.178 C 
BRANCH   3   4
ATOM      4  C   UNL     1      11.549   3.719  -3.606  0.00  0.00    +0.132 C 
BRANCH   4   6
ATOM      5  C   UNL     1      11.858   5.244  -5.538  0.00  0.00    +0.260 C 
ATOM      6  N   UNL     1      11.075   4.376  -4.809  0.00  0.00    -0.308 N 
ATOM      7  H   UNL     1      10.120   4.217  -5.090  0.00  0.00    +0.149 HD
ATOM      8  O   UNL     1      13.027   5.487  -5.260  0.00  0.00    -0.269 OA
BRANCH   5  16
ATOM      9 CL   UNL     1       7.518   8.728 -10.837  0.00  0.00    -0.084 Cl
ATOM     10  C   UNL     1       8.863   8.146  -9.931  0.00  0.00    +0.042 A 
ATOM     11  C   UNL     1      10.128   8.687 -10.151  0.00  0.00    +0.022 A 
ATOM     12  C   UNL     1      11.233   8.256  -9.409  0.00  0.00    +0.027 A 
ATOM     13  C   UNL     1      11.006   7.286  -8.427  0.00  0.00    +0.047 A 
ATOM     14  N   UNL     1      11.870   6.710  -7.522  0.00  0.00    -0.351 N 
ATOM     15  H   UNL     1      12.855   6.924  -7.436  0.00  0.00    +0.166 HD
ATOM     16  C   UNL     1      11.197   5.861  -6.667  0.00  0.00    +0.103 A 
ATOM     17  C   UNL     1       9.893   5.802  -7.123  0.00  0.00    +0.041 A 
ATOM     18  C   UNL     1       9.752   6.724  -8.196  0.00  0.00    +0.002 A 
ATOM     19  C   UNL     1       8.658   7.153  -8.970  0.00  0.00    +0.030 A 
ENDBRANCH   5  16
ENDBRANCH   4   6
ENDBRANCH   3   4
ENDBRANCH   2   3
ENDBRANCH   1   2
BRANCH   1  20
ATOM     20  C   UNL     1      15.480   1.842  -3.456  0.00  0.00    +0.188 C 
BRANCH  20  21
ATOM     21  O   UNL     1      15.912   2.947  -2.660  0.00  0.00    -0.376 OA
BRANCH  21  22
ATOM     22  C   UNL     1      17.078   3.593  -3.177  0.00  0.00    +0.178 C 
BRANCH  22  23
ATOM     23  C   UNL     1      16.793   4.375  -4.463  0.00  0.00    +0.132 C 
BRANCH  23  24
ATOM     24  N   UNL     1      17.945   5.093  -4.962  0.00  0.00    -0.308 N 
ATOM     25  H   UNL     1      17.969   6.089  -4.823  0.00  0.00    +0.149 HD
ATOM     26  C   UNL     1      18.884   4.499  -5.773  0.00  0.00    +0.260 C 
ATOM     27  O   UNL     1      18.874   3.298  -6.030  0.00  0.00    -0.269 OA
BRANCH  26  28
ATOM     28  C   UNL     1      19.853   5.407  -6.347  0.00  0.00    +0.103 A 
ATOM     29  N   UNL     1      20.779   4.990  -7.281  0.00  0.00    -0.351 N 
ATOM     30  H   UNL     1      20.866   4.031  -7.593  0.00  0.00    +0.166 HD
ATOM     31  C   UNL     1      21.479   6.059  -7.792  0.00  0.00    +0.047 A 
ATOM     32  C   UNL     1      22.437   6.116  -8.812  0.00  0.00    +0.027 A 
ATOM     33  C   UNL     1      22.947   7.376  -9.148  0.00  0.00    +0.022 A 
ATOM     34  C   UNL     1      22.529   8.519  -8.470  0.00  0.00    +0.042 A 
ATOM     35  C   UNL     1      21.596   8.444  -7.432  0.00  0.00    +0.030 A 
ATOM     36 CL   UNL     1      23.152  10.058  -8.931  0.00  0.00    -0.084 Cl
ATOM     37  C   UNL     1      21.052   7.190  -7.100  0.00  0.00    +0.002 A 
ATOM     38  C   UNL     1      20.068   6.763  -6.168  0.00  0.00    +0.041 A 
ENDBRANCH  26  28
ENDBRANCH  23  24
ENDBRANCH  22  23
ENDBRANCH  21  22
ENDBRANCH  20  21
ENDBRANCH   1  20
TORSDOF 11
