REMARK  Name = 
REMARK  2 active torsions:
REMARK  status: ('A' for Active; 'I' for Inactive)
REMARK    1  A    between atoms: O_1  and  C_2
REMARK    2  A    between atoms: C_8  and  O_10
REMARK                            x       y       z     vdW  Elec       q    Type
REMARK                         _______ _______ _______ _____ _____    ______ ____
ROOT
ATOM      1  C   UNL     1       2.507  -0.054  -0.008  0.00  0.00    +0.154 C 
ATOM      2  C   UNL     1       2.999   0.998  -1.022  0.00  0.00    +0.154 C 
ATOM      3  C   UNL     1       2.561   0.750  -2.477  0.00  0.00    +0.115 C 
ATOM      4  S   UNL     1       3.242  -0.800  -3.146  0.00  0.00    -0.090 S 
ATOM      5  S   UNL     1       2.401  -2.148  -1.854  0.00  0.00    -0.090 S 
ATOM      6  C   UNL     1       3.004  -1.488  -0.269  0.00  0.00    +0.115 C 
ENDROOT
BRANCH   1   7
ATOM      7  O   UNL     1       1.076   0.003   0.074  0.00  0.00    -0.388 OA
ATOM      8  H   UNL     1       0.777  -0.742   0.625  0.00  0.00    +0.210 HD
ENDBRANCH   1   7
BRANCH   2   9
ATOM      9  O   UNL     1       4.423   1.128  -0.913  0.00  0.00    -0.388 OA
ATOM     10  H   UNL     1       4.728   1.705  -1.636  0.00  0.00    +0.210 HD
ENDBRANCH   2   9
TORSDOF 2
