REMARK  Name = 
REMARK  9 active torsions:
REMARK  status: ('A' for Active; 'I' for Inactive)
REMARK    1  A    between atoms: O_1  and  C_2
REMARK    2  A    between atoms: C_2  and  C_3
REMARK    3  A    between atoms: C_6  and  O_8
REMARK    4  A    between atoms: O_8  and  C_9
REMARK    5  A    between atoms: C_9  and  C_10
REMARK    6  A    between atoms: C_10  and  C_11
REMARK    7  A    between atoms: C_15  and  O_17
REMARK    8  A    between atoms: C_18  and  O_20
REMARK    9  A    between atoms: C_21  and  O_23
REMARK                            x       y       z     vdW  Elec       q    Type
REMARK                         _______ _______ _______ _____ _____    ______ ____
ROOT
ATOM      1  C   UNL     1       0.818   1.715   4.773  0.00  0.00    +0.178 C 
ATOM      2  C   UNL     1      -0.613   1.478   5.261  0.00  0.00    +0.177 C 
ATOM      3  C   UNL     1      -1.583   2.147   4.283  0.00  0.00    +0.179 C 
ATOM      4  C   UNL     1      -1.234   3.618   4.021  0.00  0.00    +0.201 C 
ATOM      5  C   UNL     1       0.268   3.741   3.673  0.00  0.00    +0.282 C 
ATOM      6  O   UNL     1       1.051   3.129   4.695  0.00  0.00    -0.341 OA
ENDROOT
BRANCH   2   7
ATOM      7  O   UNL     1      -0.907   0.082   5.324  0.00  0.00    -0.386 OA
ATOM      8  H   UNL     1      -1.879   0.026   5.411  0.00  0.00    +0.210 HD
ENDBRANCH   2   7
BRANCH   3   9
ATOM      9  O   UNL     1      -2.922   2.030   4.793  0.00  0.00    -0.386 OA
ATOM     10  H   UNL     1      -3.456   2.661   4.270  0.00  0.00    +0.210 HD
ENDBRANCH   3   9
BRANCH   4  11
ATOM     11  O   UNL     1      -2.114   4.081   2.978  0.00  0.00    -0.384 OA
ATOM     12  H   UNL     1      -1.640   4.022   2.129  0.00  0.00    +0.210 HD
ENDBRANCH   4  11
BRANCH   1  13
ATOM     13  C   UNL     1       1.871   1.093   5.691  0.00  0.00    +0.190 C 
BRANCH  13  14
ATOM     14  O   UNL     1       3.140   1.133   5.026  0.00  0.00    -0.392 OA
ATOM     15  H   UNL     1       3.739   0.557   5.526  0.00  0.00    +0.210 HD
ENDBRANCH  13  14
ENDBRANCH   1  13
BRANCH   5  16
ATOM     16  O   UNL     1       0.632   5.121   3.546  0.00  0.00    -0.349 OA
BRANCH  16  17
ATOM     17  C   UNL     1       2.002   5.241   3.152  0.00  0.00    +0.165 C 
BRANCH  17  18
ATOM     18  C   UNL     1       2.427   6.706   3.118  0.00  0.00    +0.062 C 
BRANCH  18  19
ATOM     19  C   UNL     1       3.867   6.825   2.721  0.00  0.00    +0.146 C 
ATOM     20  O   UNL     1       4.081   7.383   1.420  0.00  0.00    -0.372 OA
ATOM     21  C   UNL     1       4.519   8.169   2.538  0.00  0.00    +0.191 C 
ENDBRANCH  18  19
ENDBRANCH  17  18
ENDBRANCH  16  17
ENDBRANCH   5  16
TORSDOF 9
