REMARK  Name = 
REMARK  21 active torsions:
REMARK  status: ('A' for Active; 'I' for Inactive)
REMARK    1  A    between atoms: O_1  and  C_2
REMARK    2  A    between atoms: C_2  and  C_3
REMARK    3  A    between atoms: C_6  and  O_8
REMARK    4  A    between atoms: C_9  and  O_11
REMARK    5  A    between atoms: C_12  and  O_14
REMARK    6  A    between atoms: O_14  and  C_15
REMARK    7  A    between atoms: C_18  and  C_20
REMARK    8  A    between atoms: C_20  and  O_21
REMARK    9  A    between atoms: C_22  and  O_24
REMARK   10  A    between atoms: C_25  and  O_27
REMARK   11  A    between atoms: O_27  and  C_28
REMARK   12  A    between atoms: C_31  and  C_33
REMARK   13  A    between atoms: C_33  and  O_34
REMARK   14  A    between atoms: O_34  and  P_35
REMARK   15  A    between atoms: P_35  and  O_36
REMARK   16  A    between atoms: P_35  and  O_37
REMARK   17  A    between atoms: C_39  and  O_41
REMARK   18  A    between atoms: C_42  and  O_44
REMARK   19  A    between atoms: C_45  and  O_47
REMARK   20  A    between atoms: C_48  and  O_50
REMARK   21  A    between atoms: C_51  and  O_53
REMARK                            x       y       z     vdW  Elec       q    Type
REMARK                         _______ _______ _______ _____ _____    ______ ____
ROOT
ATOM      1  C   UNL     1       2.011   3.509  -2.929  0.00  0.00    +0.282 C 
ATOM      2  C   UNL     1       1.283   2.206  -3.354  0.00  0.00    +0.202 C 
ATOM      3  C   UNL     1       1.650   1.811  -4.797  0.00  0.00    +0.186 C 
ATOM      4  C   UNL     1       1.348   2.992  -5.728  0.00  0.00    +0.177 C 
ATOM      5  C   UNL     1       2.108   4.254  -5.259  0.00  0.00    +0.178 C 
ATOM      6  O   UNL     1       1.877   4.572  -3.878  0.00  0.00    -0.341 OA
ENDROOT
BRANCH   4   7
ATOM      7  O   UNL     1      -0.073   3.225  -5.740  0.00  0.00    -0.386 OA
ATOM      8  H   UNL     1      -0.225   4.018  -6.288  0.00  0.00    +0.210 HD
ENDBRANCH   4   7
BRANCH   2   9
ATOM      9  O   UNL     1      -0.145   2.331  -3.197  0.00  0.00    -0.384 OA
ATOM     10  H   UNL     1      -0.537   2.454  -4.086  0.00  0.00    +0.210 HD
ENDBRANCH   2   9
BRANCH   3  11
ATOM     11  O   UNL     1       3.019   1.476  -5.033  0.00  0.00    -0.340 OA
BRANCH  11  12
ATOM     12  C   UNL     1       3.558   0.422  -4.258  0.00  0.00    +0.282 C 
ATOM     13  C   UNL     1       5.100   0.406  -4.438  0.00  0.00    +0.201 C 
ATOM     14  C   UNL     1       5.598  -0.413  -5.642  0.00  0.00    +0.179 C 
ATOM     15  C   UNL     1       4.744  -1.659  -5.904  0.00  0.00    +0.177 C 
ATOM     16  C   UNL     1       3.234  -1.361  -5.823  0.00  0.00    +0.179 C 
ATOM     17  O   UNL     1       2.900  -0.799  -4.552  0.00  0.00    -0.340 OA
BRANCH  15  18
ATOM     18  O   UNL     1       5.069  -2.634  -4.892  0.00  0.00    -0.386 OA
ATOM     19  H   UNL     1       4.703  -3.486  -5.198  0.00  0.00    +0.210 HD
ENDBRANCH  15  18
BRANCH  14  20
ATOM     20  O   UNL     1       5.742   0.364  -6.833  0.00  0.00    -0.386 OA
ATOM     21  H   UNL     1       5.093   1.093  -6.851  0.00  0.00    +0.210 HD
ENDBRANCH  14  20
BRANCH  13  22
ATOM     22  O   UNL     1       5.713  -0.096  -3.234  0.00  0.00    -0.384 OA
ATOM     23  H   UNL     1       5.554  -1.065  -3.232  0.00  0.00    +0.210 HD
ENDBRANCH  13  22
BRANCH  16  24
ATOM     24  C   UNL     1       2.672  -0.581  -7.028  0.00  0.00    +0.206 C 
BRANCH  24  25
ATOM     25  O   UNL     1       3.001  -1.346  -8.154  0.00  0.00    -0.284 OA
BRANCH  25  26
ATOM     26  P   UNL     1       2.559  -0.837  -9.747  0.00  0.00    +0.472 P 
ATOM     27  O   UNL     1       2.163  -0.382 -11.173  0.00  0.00    -0.228 OA
BRANCH  26  28
ATOM     28  O   UNL     1       3.848   0.162  -9.664  0.00  0.00    -0.303 OA
ATOM     29  H   UNL     1       4.370  -0.005 -10.473  0.00  0.00    +0.222 HD
ENDBRANCH  26  28
BRANCH  26  30
ATOM     30  O   UNL     1       3.416  -2.145 -10.221  0.00  0.00    -0.303 OA
ATOM     31  H   UNL     1       2.967  -2.973  -9.971  0.00  0.00    +0.222 HD
ENDBRANCH  26  30
ENDBRANCH  25  26
ENDBRANCH  24  25
ENDBRANCH  16  24
ENDBRANCH  11  12
ENDBRANCH   3  11
BRANCH   5  32
ATOM     32  C   UNL     1       3.603   4.249  -5.616  0.00  0.00    +0.190 C 
BRANCH  32  33
ATOM     33  O   UNL     1       3.804   3.929  -6.990  0.00  0.00    -0.392 OA
ATOM     34  H   UNL     1       4.105   4.742  -7.433  0.00  0.00    +0.210 HD
ENDBRANCH  32  33
ENDBRANCH   5  32
BRANCH   1  35
ATOM     35  O   UNL     1       3.377   3.204  -2.628  0.00  0.00    -0.340 OA
BRANCH  35  38
ATOM     36  C   UNL     1       4.241   5.327   0.464  0.00  0.00    +0.178 C 
ATOM     37  C   UNL     1       3.390   4.368  -0.382  0.00  0.00    +0.177 C 
ATOM     38  C   UNL     1       4.100   4.062  -1.722  0.00  0.00    +0.186 C 
ATOM     39  C   UNL     1       4.622   5.337  -2.405  0.00  0.00    +0.201 C 
ATOM     40  C   UNL     1       5.320   6.274  -1.400  0.00  0.00    +0.279 C 
ATOM     41  O   UNL     1       4.489   6.531  -0.279  0.00  0.00    -0.341 OA
BRANCH  40  42
ATOM     42  O   UNL     1       5.646   7.498  -2.049  0.00  0.00    -0.365 OA
ATOM     43  H   UNL     1       5.745   7.285  -2.996  0.00  0.00    +0.213 HD
ENDBRANCH  40  42
BRANCH  39  44
ATOM     44  O   UNL     1       5.569   5.035  -3.453  0.00  0.00    -0.384 OA
ATOM     45  H   UNL     1       6.216   4.392  -3.109  0.00  0.00    +0.210 HD
ENDBRANCH  39  44
BRANCH  37  46
ATOM     46  O   UNL     1       3.117   3.156   0.325  0.00  0.00    -0.386 OA
ATOM     47  H   UNL     1       3.950   2.669   0.464  0.00  0.00    +0.210 HD
ENDBRANCH  37  46
BRANCH  36  48
ATOM     48  C   UNL     1       3.544   5.708   1.774  0.00  0.00    +0.190 C 
BRANCH  48  49
ATOM     49  O   UNL     1       4.382   6.594   2.519  0.00  0.00    -0.392 OA
ATOM     50  H   UNL     1       4.544   7.359   1.933  0.00  0.00    +0.210 HD
ENDBRANCH  48  49
ENDBRANCH  36  48
ENDBRANCH  35  38
ENDBRANCH   1  35
TORSDOF 21
