REMARK  Name = 
REMARK  8 active torsions:
REMARK  status: ('A' for Active; 'I' for Inactive)
REMARK    1  A    between atoms: N_6  and  C_7
REMARK    2  A    between atoms: C_7  and  C_8
REMARK    3  A    between atoms: C_8  and  N_9
REMARK    4  A    between atoms: N_9  and  CA_10
REMARK    5  A    between atoms: CA_10  and  CB_11
REMARK    6  A    between atoms: CA_10  and  C_13
REMARK    7  A    between atoms: CB_11  and  OG_12
REMARK    8  A    between atoms: C_13  and  O_14
REMARK                            x       y       z     vdW  Elec       q    Type
REMARK                         _______ _______ _______ _____ _____    ______ ____
ROOT
ATOM      1  N   UNL     1       3.903  -4.066   2.649  0.00  0.00    -0.329 N 
ATOM      2  H   UNL     1       4.447  -4.735   3.173  0.00  0.00    +0.145 HD
ATOM      3  H   UNL     1       3.195  -4.499   2.062  0.00  0.00    +0.145 HD
ATOM      4  C   UNL     1       4.568  -3.079   1.991  0.00  0.00    +0.195 A 
ATOM      5  N   UNL     1       5.711  -2.622   2.598  0.00  0.00    -0.294 N 
ATOM      6  H   UNL     1       5.988  -2.987   3.493  0.00  0.00    +0.172 HD
ATOM      7  C   UNL     1       6.471  -1.586   2.106  0.00  0.00    +0.279 A 
ATOM      8  O   UNL     1       7.452  -1.161   2.706  0.00  0.00    -0.265 OA
ATOM      9  C   UNL     1       5.977  -1.102   0.867  0.00  0.00    +0.153 A 
ATOM     10  N   UNL     1       6.409  -0.127   0.012  0.00  0.00    -0.323 N 
ATOM     11  C   UNL     1       5.548  -0.129  -1.057  0.00  0.00    +0.202 A 
ATOM     12  N   UNL     1       4.591  -1.019  -0.914  0.00  0.00    -0.216 NA
ATOM     13  C   UNL     1       4.850  -1.618   0.281  0.00  0.00    +0.186 A 
ATOM     14  N   UNL     1       4.099  -2.641   0.862  0.00  0.00    -0.195 NA
ENDROOT
BRANCH  10  15
ATOM     15  C   UNL     1       7.599   0.694   0.121  0.00  0.00    +0.138 C 
BRANCH  15  16
ATOM     16  C   ACE A   0       7.354   2.208  -0.015  0.00  0.00    +0.103 C 
BRANCH  16  17
ATOM     17  N   UNL     1       6.509   2.775   1.050  0.00  0.00    -0.308 NA
ATOM     18  H   UNL     1       6.966   2.590   1.948  0.00  0.00    +0.122 HD
BRANCH  17  19
ATOM     19  CA  UNL     1       6.368   4.257   0.918  0.00  0.00    +0.105 C 
BRANCH  19  20
ATOM     20  C   UNL     1       5.624   4.817   2.152  0.00  0.00    +0.176 C 
BRANCH  20  21
ATOM     21  O   UNL     1       6.394   4.597   3.334  0.00  0.00    -0.393 OA
ATOM     22  H   UNL     1       6.214   3.683   3.612  0.00  0.00    +0.209 HD
ENDBRANCH  20  21
ENDBRANCH  19  20
BRANCH  19  23
ATOM     23  CB  UNL     1       5.607   4.676  -0.357  0.00  0.00    +0.176 C 
BRANCH  23  24
ATOM     24  O   UNL     1       4.301   4.112  -0.382  0.00  0.00    -0.393 OA
ATOM     25  H   UNL     1       4.392   3.197  -0.052  0.00  0.00    +0.209 HD
ENDBRANCH  23  24
ENDBRANCH  19  23
ENDBRANCH  17  19
ENDBRANCH  16  17
ENDBRANCH  15  16
ENDBRANCH  10  15
TORSDOF 8
