REMARK  Name = 
REMARK  5 active torsions:
REMARK  status: ('A' for Active; 'I' for Inactive)
REMARK    1  A    between atoms: N1_6  and  C1*_9
REMARK    2  A    between atoms: C4*_12  and  C5*_14
REMARK    3  A    between atoms: C5*_14  and  O5*_15
REMARK    4  A    between atoms: C3*_16  and  O3*_18
REMARK    5  A    between atoms: C2*_19  and  O2*_21
REMARK                            x       y       z     vdW  Elec       q    Type
REMARK                         _______ _______ _______ _____ _____    ______ ____
ROOT
ATOM      1  C1*   C A   1       6.742  -0.034   0.095  0.00  0.00    +0.255 C 
ATOM      2  C2*   C A   1       7.138  -1.322   0.848  0.00  0.00    +0.195 C 
ATOM      3  C3*   C A   1       8.458  -0.977   1.536  0.00  0.00    +0.178 C 
ATOM      4  C4*   C A   1       8.639   0.523   1.294  0.00  0.00    +0.177 C 
ATOM      5  O4*   C A   1       7.394   1.033   0.816  0.00  0.00    -0.346 OA
ENDROOT
BRANCH   1  12
ATOM      6  N4    C A   1       7.705   0.423  -5.330  0.00  0.00    -0.343 N 
ATOM      7  H41   C A   1       8.617   0.184  -5.693  0.00  0.00    +0.144 HD
ATOM      8  H42   C A   1       7.322   1.283  -5.711  0.00  0.00    +0.144 HD
ATOM      9  C4    C A   1       7.497   0.303  -3.986  0.00  0.00    +0.123 A 
ATOM     10  C5    C A   1       8.288  -0.676  -3.221  0.00  0.00    +0.061 A 
ATOM     11  C6    C A   1       8.045  -0.728  -1.914  0.00  0.00    +0.096 A 
ATOM     12  N1    C A   1       7.079   0.062  -1.326  0.00  0.00    -0.270 N 
ATOM     13  C2    C A   1       6.343   0.980  -2.092  0.00  0.00    +0.352 A 
ATOM     14  O2    C A   1       5.469   1.680  -1.588  0.00  0.00    -0.244 OA
ATOM     15  N3    C A   1       6.609   1.071  -3.442  0.00  0.00    -0.178 NA
ENDBRANCH   1  12
BRANCH   2  16
ATOM     16  O2*   C A   1       6.155  -1.648   1.853  0.00  0.00    -0.385 OA
ATOM     17  H2*   C A   1       5.948  -0.835   2.351  0.00  0.00    +0.210 HD
ENDBRANCH   2  16
BRANCH   3  18
ATOM     18  O3*   C A   1       9.553  -1.702   0.969  0.00  0.00    -0.386 OA
ATOM     19  H3*   C A   1      10.328  -1.494   1.525  0.00  0.00    +0.210 HD
ENDBRANCH   3  18
BRANCH   4  20
ATOM     20  C5*   C A   1       9.083   1.257   2.557  0.00  0.00    +0.190 C 
BRANCH  20  21
ATOM     21  O5*   C A   1      10.360   0.782   2.974  0.00  0.00    -0.392 OA
ATOM     22  H5*   C A   1      11.029   1.350   2.551  0.00  0.00    +0.210 HD
ENDBRANCH  20  21
ENDBRANCH   4  20
TORSDOF 5
