REMARK  Name = 
REMARK  8 active torsions:
REMARK  status: ('A' for Active; 'I' for Inactive)
REMARK    1  A    between atoms: O_1  and  C_2
REMARK    2  A    between atoms: C_2  and  C_3
REMARK    3  A    between atoms: C_6  and  N_18
REMARK    4  A    between atoms: C_8  and  O_10
REMARK    5  A    between atoms: C_11  and  O_13
REMARK    6  A    between atoms: O_13  and  P_14
REMARK    7  A    between atoms: P_14  and  O_15
REMARK    8  A    between atoms: P_14  and  O_16
REMARK                            x       y       z     vdW  Elec       q    Type
REMARK                         _______ _______ _______ _____ _____    ______ ____
ROOT
ATOM      1  C   UNL     1       2.902  -1.446   0.687  0.00  0.00    +0.178 C 
ATOM      2  C   UNL     1       3.039  -2.501  -0.419  0.00  0.00    +0.194 C 
ATOM      3  C   UNL     1       2.662  -3.815   0.242  0.00  0.00    +0.196 C 
ATOM      4  C   UNL     1       2.573  -3.486   1.745  0.00  0.00    +0.255 C 
ATOM      5  O   UNL     1       2.273  -2.078   1.811  0.00  0.00    -0.346 OA
ENDROOT
BRANCH   4   6
ATOM      6  N   UNL     1       1.546  -4.240   2.492  0.00  0.00    -0.271 N 
ATOM      7  C   UNL     1       1.432  -5.610   2.284  0.00  0.00    +0.331 A 
ATOM      8  O   UNL     1       2.135  -6.250   1.507  0.00  0.00    -0.246 OA
ATOM      9  N   UNL     1       0.465  -6.248   3.008  0.00  0.00    -0.275 N 
ATOM     10  H   UNL     1       0.353  -7.236   2.844  0.00  0.00    +0.173 HD
ATOM     11  C   UNL     1      -0.236  -5.716   4.050  0.00  0.00    +0.254 A 
ATOM     12  O   UNL     1      -1.006  -6.367   4.740  0.00  0.00    -0.268 OA
ATOM     13  C   UNL     1       0.005  -4.292   4.315  0.00  0.00    +0.088 A 
ATOM     14  C   UNL     1       0.866  -3.631   3.540  0.00  0.00    +0.098 A 
ENDBRANCH   4   6
BRANCH   3  15
ATOM     15  O   UNL     1       3.658  -4.803  -0.042  0.00  0.00    -0.385 OA
ATOM     16  H   UNL     1       3.365  -5.620   0.418  0.00  0.00    +0.210 HD
ENDBRANCH   3  15
BRANCH   1  17
ATOM     17  C   UNL     1       4.262  -0.866   1.109  0.00  0.00    +0.190 C 
BRANCH  17  18
ATOM     18  O   UNL     1       5.168  -1.904   1.462  0.00  0.00    -0.392 OA
ATOM     19  H   UNL     1       6.052  -1.506   1.553  0.00  0.00    +0.210 HD
ENDBRANCH  17  18
ENDBRANCH   1  17
BRANCH   2  20
ATOM     20  O   UNL     1       2.130  -2.232  -1.516  0.00  0.00    -0.278 OA
BRANCH  20  21
ATOM     21  P   UNL     1       2.530  -0.730  -2.276  0.00  0.00    +0.473 P 
ATOM     22  O   UNL     1       2.888   0.614  -2.956  0.00  0.00    -0.228 OA
BRANCH  21  23
ATOM     23  O   UNL     1       1.266  -1.068  -3.261  0.00  0.00    -0.303 OA
ATOM     24  H   UNL     1       0.414  -0.929  -2.812  0.00  0.00    +0.222 HD
ENDBRANCH  21  23
BRANCH  21  25
ATOM     25  O   UNL     1       3.590  -1.630  -3.134  0.00  0.00    -0.303 OA
ATOM     26  H   UNL     1       3.074  -2.079  -3.830  0.00  0.00    +0.222 HD
ENDBRANCH  21  25
ENDBRANCH  20  21
ENDBRANCH   2  20
TORSDOF 8
