REMARK  Name = 
REMARK  7 active torsions:
REMARK  status: ('A' for Active; 'I' for Inactive)
REMARK    1  A    between atoms: C_2  and  C_3
REMARK    2  A    between atoms: C_7  and  C_9
REMARK    3  A    between atoms: C_9  and  C_10
REMARK    4  A    between atoms: C_10  and  O_11
REMARK    5  A    between atoms: C_10  and  O_12
REMARK    6  A    between atoms: C_13  and  C_14
REMARK    7  A    between atoms: C_13  and  C_15
REMARK                            x       y       z     vdW  Elec       q    Type
REMARK                         _______ _______ _______ _____ _____    ______ ____
ROOT
ATOM      1  C   UNL     1       2.012  -0.016  -0.216  0.00  0.00    +0.058 C 
ATOM      2  C   UNL     1       2.630  -1.243   0.528  0.00  0.00    -0.022 C 
ATOM      3  C   UNL     1       3.097  -2.360  -0.423  0.00  0.00    +0.012 C 
ATOM      4  C   UNL     1       1.526  -1.865   1.418  0.00  0.00    +0.012 C 
ATOM      5  C   UNL     1       3.873  -0.701   1.342  0.00  0.00    +0.009 C 
ATOM      6  C   UNL     1       3.995   0.797   1.033  0.00  0.00    +0.079 C 
ATOM      7  C   UNL     1       2.645   1.146   0.498  0.00  0.00    +0.137 C 
ATOM      8  O   UNL     1       2.168   2.273   0.538  0.00  0.00    -0.297 OA
ATOM      9  C   UNL     1       2.331   0.125  -1.699  0.00  0.00    +0.016 C 
ENDROOT
BRANCH   5  10
ATOM     10  C   UNL     1       3.837  -0.970   2.863  0.00  0.00    +0.092 C 
BRANCH  10  11
ATOM     11  C   UNL     1       5.081  -0.509   3.628  0.00  0.00    +0.345 C 
BRANCH  11  12
ATOM     12  O   UNL     1       6.259  -1.064   3.089  0.00  0.00    -0.507 OA
ATOM     13  H   UNL     1       6.058  -1.994   2.892  0.00  0.00    +0.287 HD
ENDBRANCH  11  12
BRANCH  11  14
ATOM     14  O   UNL     1       4.973  -0.937   4.969  0.00  0.00    -0.507 OA
ATOM     15  H   UNL     1       5.561  -0.353   5.477  0.00  0.00    +0.287 HD
ENDBRANCH  11  14
ENDBRANCH  10  11
ENDBRANCH   5  10
TORSDOF 4
