REMARK  Name = 
REMARK  2 active torsions:
REMARK  status: ('A' for Active; 'I' for Inactive)
REMARK    1  A    between atoms: CA_7  and  C_8
REMARK    2  A    between atoms: C_8  and  O_9
REMARK                            x       y       z     vdW  Elec       q    Type
REMARK                         _______ _______ _______ _____ _____    ______ ____
ROOT
ATOM      1  N   UNL     1       1.172   0.082   0.112  0.00  0.00    -0.329 N 
ATOM      2  H   UNL     1       0.686  -0.712  -0.283  0.00  0.00    +0.145 HD
ATOM      3  H   UNL     1       0.744   0.974  -0.117  0.00  0.00    +0.145 HD
ATOM      4  C   UNL     1       2.522   0.111   0.004  0.00  0.00    +0.195 A 
ATOM      5  N   UNL     1       3.154  -1.088  -0.025  0.00  0.00    -0.293 N 
ATOM      6  H   UNL     1       2.643  -1.949   0.067  0.00  0.00    +0.172 HD
ATOM      7  C   UNL     1       4.512  -1.201  -0.079  0.00  0.00    +0.280 A 
ATOM      8  O   UNL     1       5.049  -2.307  -0.051  0.00  0.00    -0.265 OA
ATOM      9  C   UNL     1       5.269   0.085  -0.162  0.00  0.00    +0.168 A 
ATOM     10  N   UNL     1       6.658   0.039  -0.198  0.00  0.00    -0.244 NA
ATOM     11  CA  UNL     1       7.283   1.181  -0.130  0.00  0.00    +0.062 C 
ATOM     12  C   UNL     1       6.607   2.548  -0.044  0.00  0.00    +0.156 C 
ATOM     13  N   UNL     1       5.178   2.436  -0.264  0.00  0.00    -0.322 N 
ATOM     14  H   UNL     1       4.589   3.207   0.032  0.00  0.00    +0.148 HD
ATOM     15  C   UNL     1       4.523   1.219  -0.168  0.00  0.00    +0.154 A 
ATOM     16  N   UNL     1       3.153   1.236  -0.069  0.00  0.00    -0.199 NA
ENDROOT
BRANCH  11  17
ATOM     17  C   UNL     1       8.803   1.172  -0.087  0.00  0.00    +0.208 C 
BRANCH  17  18
ATOM     18  O   UNL     1       9.355   1.822  -1.216  0.00  0.00    -0.389 OA
ATOM     19  H   UNL     1       9.217   1.225  -1.975  0.00  0.00    +0.210 HD
ENDBRANCH  17  18
ENDBRANCH  11  17
TORSDOF 2
