REMARK  Name = 
REMARK  14 active torsions:
REMARK  status: ('A' for Active; 'I' for Inactive)
REMARK    1  A    between atoms: C_1  and  C_2
REMARK    2  A    between atoms: C_2  and  O_4
REMARK    3  A    between atoms: C_2  and  N_5
REMARK    4  A    between atoms: N_5  and  CA_6
REMARK    5  A    between atoms: CA_6  and  C_8
REMARK    6  A    between atoms: CA_6  and  C_10
REMARK    7  A    between atoms: C_8  and  O_9
REMARK    8  A    between atoms: C_10  and  O_12
REMARK    9  A    between atoms: C_10  and  C_13
REMARK   10  A    between atoms: C_13  and  O_15
REMARK   11  A    between atoms: C_13  and  C_16
REMARK   12  A    between atoms: C_16  and  O_18
REMARK   13  A    between atoms: C_16  and  C_19
REMARK   14  A    between atoms: C_19  and  O_20
REMARK                            x       y       z     vdW  Elec       q    Type
REMARK                         _______ _______ _______ _____ _____    ______ ____
ROOT
ATOM      1  C   UNL     1       7.611  -5.937  -1.298  0.00  0.00    +0.165 C 
ENDROOT
BRANCH   1   2
ATOM      2  O   UNL     1       8.060  -6.108  -2.657  0.00  0.00    -0.388 OA
ATOM      3  H   UNL     1       7.248  -6.063  -3.215  0.00  0.00    +0.210 HD
ENDBRANCH   1   2
BRANCH   1   4
ATOM      4  CA  UNL     1       8.865  -5.693  -0.395  0.00  0.00    +0.112 C 
BRANCH   4   5
ATOM      5  N   UNL     1       9.765  -6.877  -0.229  0.00  0.00    -0.285 NA
ATOM      6  H   UNL     1      10.594  -6.535   0.259  0.00  0.00    +0.125 HD
BRANCH   5   8
ATOM      7  C   UNL     1      11.271  -8.556  -1.164  0.00  0.00    +0.055 C 
ATOM      8  C   UNL     1      10.276  -7.444  -1.470  0.00  0.00    +0.180 C 
BRANCH   8   9
ATOM      9  O   UNL     1      10.958  -6.447  -2.199  0.00  0.00    -0.378 OA
ATOM     10  H   UNL     1      10.251  -6.013  -2.714  0.00  0.00    +0.211 HD
ENDBRANCH   8   9
ENDBRANCH   5   8
ENDBRANCH   4   5
BRANCH   4  11
ATOM     11  C   UNL     1       8.464  -5.219   1.022  0.00  0.00    +0.177 C 
BRANCH  11  12
ATOM     12  O   UNL     1       9.613  -4.992   1.838  0.00  0.00    -0.393 OA
ATOM     13  H   UNL     1       9.949  -5.877   2.084  0.00  0.00    +0.209 HD
ENDBRANCH  11  12
ENDBRANCH   4  11
ENDBRANCH   1   4
BRANCH   1  14
ATOM     14  C   UNL     1       6.558  -4.789  -1.271  0.00  0.00    +0.175 C 
BRANCH  14  15
ATOM     15  O   UNL     1       7.061  -3.597  -1.889  0.00  0.00    -0.387 OA
ATOM     16  H   UNL     1       8.012  -3.511  -1.697  0.00  0.00    +0.210 HD
ENDBRANCH  14  15
BRANCH  14  17
ATOM     17  C   UNL     1       5.246  -5.209  -1.968  0.00  0.00    +0.171 C 
BRANCH  17  18
ATOM     18  O   UNL     1       5.500  -5.687  -3.303  0.00  0.00    -0.387 OA
ATOM     19  H   UNL     1       4.614  -5.862  -3.681  0.00  0.00    +0.210 HD
ENDBRANCH  17  18
BRANCH  17  20
ATOM     20  C   UNL     1       4.239  -4.055  -2.032  0.00  0.00    +0.189 C 
BRANCH  20  21
ATOM     21  O   UNL     1       3.012  -4.562  -2.565  0.00  0.00    -0.392 OA
ATOM     22  H   UNL     1       2.924  -4.206  -3.465  0.00  0.00    +0.210 HD
ENDBRANCH  20  21
ENDBRANCH  17  20
ENDBRANCH  14  17
ENDBRANCH   1  14
TORSDOF 13
