REMARK  Name = 
REMARK  21 active torsions:
REMARK  status: ('A' for Active; 'I' for Inactive)
REMARK    1  A    between atoms: C_1  and  C_2
REMARK    2  A    between atoms: C_2  and  C_3
REMARK    3  A    between atoms: C_3  and  C_4
REMARK    4  A    between atoms: C_4  and  C_5
REMARK    5  A    between atoms: C_5  and  C_6
REMARK    6  A    between atoms: C_6  and  C_7
REMARK    7  A    between atoms: C_7  and  C_8
REMARK    8  A    between atoms: C_8  and  O_10
REMARK    9  A    between atoms: O_10  and  C_11
REMARK   10  A    between atoms: C_13  and  O_15
REMARK   11  A    between atoms: C_16  and  C_18
REMARK   12  A    between atoms: C_18  and  O_19
REMARK   13  A    between atoms: C_21  and  O_23
REMARK   14  A    between atoms: O_23  and  C_24
REMARK   15  A    between atoms: C_24  and  C_25
REMARK   16  A    between atoms: C_25  and  O_26
REMARK   17  A    between atoms: C_28  and  C_30
REMARK   18  A    between atoms: C_30  and  O_31
REMARK   19  A    between atoms: C_32  and  O_34
REMARK   20  A    between atoms: C_35  and  O_37
REMARK   21  A    between atoms: C_38  and  O_40
REMARK                            x       y       z     vdW  Elec       q    Type
REMARK                         _______ _______ _______ _____ _____    ______ ____
ROOT
ATOM      1  C   UNL     1      10.949   4.062   3.794  0.00  0.00    +0.241 C 
ATOM      2  C   UNL     1      11.346   4.306   2.330  0.00  0.00    +0.213 C 
ATOM      3  C   UNL     1      10.922   3.137   1.420  0.00  0.00    +0.286 C 
ATOM      4  O   UNL     1      11.466   1.927   1.933  0.00  0.00    -0.340 OA
ATOM      5  C   UNL     1      10.901   1.575   3.204  0.00  0.00    +0.179 C 
ATOM      6  C   UNL     1      11.232   2.628   4.276  0.00  0.00    +0.189 C 
ENDROOT
BRANCH   6   7
ATOM      7  O   UNL     1      10.486   2.317   5.461  0.00  0.00    -0.385 OA
ATOM      8  H   UNL     1       9.661   2.836   5.484  0.00  0.00    +0.210 HD
ENDBRANCH   6   7
BRANCH   2   9
ATOM      9  O   UNL     1      10.771   5.561   1.905  0.00  0.00    -0.383 OA
ATOM     10  H   UNL     1       9.899   5.390   1.507  0.00  0.00    +0.210 HD
ENDBRANCH   2   9
BRANCH   3  11
ATOM     11  O   UNL     1      11.379   3.434   0.100  0.00  0.00    -0.312 OA
BRANCH  11  12
ATOM     12  C   UNL     1      11.060   2.510  -0.947  0.00  0.00    +0.225 C 
ATOM     13  C   UNL     1       9.556   2.339  -1.312  0.00  0.00    +0.207 C 
ATOM     14  C   UNL     1       9.384   0.826  -1.477  0.00  0.00    +0.179 C 
ATOM     15  C   UNL     1      10.793   0.250  -1.385  0.00  0.00    +0.178 C 
ATOM     16  O   UNL     1      11.585   1.201  -0.673  0.00  0.00    -0.336 OA
BRANCH  13  17
ATOM     17  O   UNL     1       8.635   2.873  -0.349  0.00  0.00    -0.384 OA
ATOM     18  H   UNL     1       8.276   2.143   0.183  0.00  0.00    +0.210 HD
ENDBRANCH  13  17
BRANCH  14  19
ATOM     19  O   UNL     1       8.762   0.518  -2.722  0.00  0.00    -0.386 OA
ATOM     20  H   UNL     1       8.711  -0.457  -2.774  0.00  0.00    +0.210 HD
ENDBRANCH  14  19
BRANCH  12  21
ATOM     21  C   UNL     1      11.777   3.062  -2.226  0.00  0.00    +0.223 C 
BRANCH  21  22
ATOM     22  O   UNL     1      13.184   3.241  -2.037  0.00  0.00    -0.390 OA
ATOM     23  H   UNL     1      13.276   3.768  -1.223  0.00  0.00    +0.210 HD
ENDBRANCH  21  22
ENDBRANCH  12  21
BRANCH  15  24
ATOM     24  C   UNL     1      10.818  -1.087  -0.643  0.00  0.00    +0.190 C 
BRANCH  24  25
ATOM     25  O   UNL     1       9.946  -2.020  -1.271  0.00  0.00    -0.392 OA
ATOM     26  H   UNL     1      10.100  -2.879  -0.835  0.00  0.00    +0.210 HD
ENDBRANCH  24  25
ENDBRANCH  15  24
ENDBRANCH  11  12
ENDBRANCH   3  11
BRANCH   5  27
ATOM     27  C   UNL     1      11.441   0.191   3.576  0.00  0.00    +0.190 C 
BRANCH  27  28
ATOM     28  O   UNL     1      12.866   0.196   3.669  0.00  0.00    -0.392 OA
ATOM     29  H   UNL     1      13.190   0.585   2.835  0.00  0.00    +0.210 HD
ENDBRANCH  27  28
ENDBRANCH   5  27
BRANCH   1  30
ATOM     30  O   UNL     1      11.763   4.994   4.562  0.00  0.00    -0.456 OA
BRANCH  30  31
ATOM     31  C   UNL     1      11.227   5.606   5.648  0.00  0.00    +0.307 C 
ATOM     32  O   UNL     1      10.157   5.332   6.158  0.00  0.00    -0.251 OA
BRANCH  31  33
ATOM     33  C   UNL     1      12.140   6.760   6.024  0.00  0.00    +0.120 C 
BRANCH  33  34
ATOM     34  C   UNL     1      12.410   6.925   7.514  0.00  0.00    +0.011 C 
BRANCH  34  35
ATOM     35  C   UNL     1      13.137   5.725   8.123  0.00  0.00    +0.001 C 
BRANCH  35  36
ATOM     36  C   UNL     1      13.499   5.985   9.587  0.00  0.00    +0.000 C 
BRANCH  36  37
ATOM     37  C   UNL     1      14.164   4.762  10.220  0.00  0.00    -0.000 C 
BRANCH  37  39
ATOM     38  C   UNL     1      15.162   3.801  12.325  0.00  0.00    +0.004 C 
ATOM     39  C   UNL     1      14.510   5.017  11.686  0.00  0.00    -0.003 C 
ENDBRANCH  37  39
ENDBRANCH  36  37
ENDBRANCH  35  36
ENDBRANCH  34  35
ENDBRANCH  33  34
ENDBRANCH  31  33
ENDBRANCH  30  31
ENDBRANCH   1  30
TORSDOF 20
