REMARK  Name = 
REMARK  4 active torsions:
REMARK  status: ('A' for Active; 'I' for Inactive)
REMARK    1  A    between atoms: C_1  and  C_2
REMARK    2  A    between atoms: C_3  and  C_8
REMARK    3  A    between atoms: N_11  and  C_12
REMARK    4  A    between atoms: C_16  and  N_18
REMARK                            x       y       z     vdW  Elec       q    Type
REMARK                         _______ _______ _______ _____ _____    ______ ____
ROOT
ATOM      1  C   UNL     1       3.126   2.870   0.076  0.00  0.00    +0.084 A 
ATOM      2  C   UNL     1       2.078   3.390   0.809  0.00  0.00    +0.049 A 
ATOM      3  C   UNL     1       1.966   4.753   0.801  0.00  0.00    +0.116 A 
ATOM      4  N   UNL     1       2.820   5.550   0.145  0.00  0.00    -0.223 NA
ATOM      5  C   UNL     1       3.829   4.977  -0.526  0.00  0.00    +0.220 A 
ATOM      6  N   UNL     1       4.775   5.768  -1.182  0.00  0.00    -0.283 N 
ATOM      7  H   UNL     1       5.418   5.175  -1.686  0.00  0.00    +0.155 HD
ATOM      8  N   UNL     1       3.999   3.648  -0.603  0.00  0.00    -0.214 NA
ENDROOT
BRANCH   1  17
ATOM      9  C   UNL     1       5.968   1.216  -0.052  0.00  0.00    +0.067 C 
ATOM     10  C   UNL     1       4.570   0.707  -0.072  0.00  0.00    +0.057 A 
ATOM     11  N   UNL     1       4.418  -0.674  -0.147  0.00  0.00    -0.230 NA
ATOM     12  C   UNL     1       3.152  -0.996  -0.167  0.00  0.00    +0.156 A 
ATOM     13  N   UNL     1       2.721  -2.264  -0.251  0.00  0.00    -0.338 N 
ATOM     14  H   UNL     1       3.415  -2.979  -0.066  0.00  0.00    +0.144 HD
ATOM     15  H   UNL     1       1.789  -2.481   0.078  0.00  0.00    +0.144 HD
ATOM     16  S   UNL     1       2.062   0.313  -0.057  0.00  0.00    -0.051 S 
ATOM     17  C   UNL     1       3.382   1.427  -0.007  0.00  0.00    +0.062 A 
ENDBRANCH   1  17
BRANCH   6  18
ATOM     18  C   UNL     1       5.222   7.071  -0.899  0.00  0.00    +0.040 A 
ATOM     19  C   UNL     1       4.747   7.825   0.181  0.00  0.00    +0.107 A 
ATOM     20  C   UNL     1       5.205   9.130   0.409  0.00  0.00    +0.275 A 
ATOM     21  C   UNL     1       6.131   9.720  -0.456  0.00  0.00    +0.084 A 
ATOM     22  C   UNL     1       6.589   8.993  -1.553  0.00  0.00    +0.008 A 
ATOM     23  C   UNL     1       6.133   7.687  -1.774  0.00  0.00    +0.024 A 
BRANCH  20  24
ATOM     24  N   UNL     1       4.712   9.873   1.573  0.00  0.00    +0.080 N 
ATOM     25  O   UNL     1       3.890   9.319   2.315  0.00  0.00    +0.041 OA
ATOM     26  O   UNL     1       5.156  11.018   1.752  0.00  0.00    -0.576 OA
ENDBRANCH  20  24
ENDBRANCH   6  18
TORSDOF 3
