REMARK  Name = 
REMARK  28 active torsions:
REMARK  status: ('A' for Active; 'I' for Inactive)
REMARK    1  A    between atoms: N_1  and  C_2
REMARK    2  A    between atoms: C_2  and  C_3
REMARK    3  A    between atoms: C_3  and  C_4
REMARK    4  A    between atoms: C_4  and  C_5
REMARK    5  A    between atoms: C_5  and  C_6
REMARK    6  A    between atoms: C_6  and  N_8
REMARK    7  A    between atoms: C_6  and  C_87
REMARK    8  A    between atoms: C_9  and  C_11
REMARK    9  A    between atoms: C_17  and  C_19
REMARK   10  A    between atoms: C_25  and  N_27
REMARK   11  A    between atoms: C_28  and  C_30
REMARK   12  A    between atoms: C_30  and  N_31
REMARK   13  A    between atoms: C_32  and  C_34
REMARK   14  A    between atoms: C_34  and  N_35
REMARK   15  A    between atoms: C_36  and  C_38
REMARK   16  A    between atoms: C_38  and  N_39
REMARK   17  A    between atoms: C_43  and  C_45
REMARK   18  A    between atoms: C_45  and  C_46
REMARK   19  A    between atoms: C_49  and  O_50
REMARK   20  A    between atoms: C_56  and  C_58
REMARK   21  A    between atoms: C_58  and  C_59
REMARK   22  A    between atoms: C_68  and  C_70
REMARK   23  A    between atoms: C_70  and  C_71
REMARK   24  A    between atoms: C_71  and  C_72
REMARK   25  A    between atoms: C_78  and  C_80
REMARK   26  A    between atoms: C_80  and  C_81
REMARK   27  A    between atoms: N_89  and  C_90
REMARK   28  A    between atoms: C_90  and  C_91
REMARK                            x       y       z     vdW  Elec       q    Type
REMARK                         _______ _______ _______ _____ _____    ______ ____
ROOT
ATOM      1  C   UNL     1       6.604  -7.106   0.771  0.00  0.00    +0.170 C 
ATOM      2  N   UNL     1       6.545  -9.209   1.711  0.00  0.00    -0.302 N 
ATOM      3  H   UNL     1       5.568  -9.141   1.887  0.00  0.00    +0.150 HD
ATOM      4  C   UNL     1       6.709 -11.334   2.368  0.00  0.00    +0.234 C 
ATOM      5  O   UNL     1       5.814 -11.958   1.624  0.00  0.00    -0.274 OA
ATOM      6  C   UNL     1       6.762 -13.346   3.608  0.00  0.00    +0.168 C 
ATOM      7  N   UNL     1       5.645 -14.772   4.605  0.00  0.00    -0.302 N 
ATOM      8  H   UNL     1       5.800 -15.767   4.158  0.00  0.00    +0.150 HD
ATOM      9  C   UNL     1       5.462 -16.043   5.908  0.00  0.00    +0.234 C 
ATOM     10  O   UNL     1       5.857 -17.261   5.803  0.00  0.00    -0.274 OA
ATOM     11  C   UNL     1       4.866 -15.855   7.424  0.00  0.00    +0.159 C 
ATOM     12  N   UNL     1       6.092 -15.059   7.527  0.00  0.00    -0.302 N 
ATOM     13  H   UNL     1       7.010 -15.490   7.503  0.00  0.00    +0.150 HD
ATOM     14  C   UNL     1       6.112 -13.872   6.923  0.00  0.00    +0.234 C 
ATOM     15  O   UNL     1       5.002 -13.358   6.784  0.00  0.00    -0.274 OA
ATOM     16  C   UNL     1       7.419 -13.354   6.214  0.00  0.00    +0.163 C 
ATOM     17  N   UNL     1       6.777 -12.126   5.844  0.00  0.00    -0.302 N 
ATOM     18  H   UNL     1       5.780 -12.333   5.656  0.00  0.00    +0.150 HD
ATOM     19  C   UNL     1       7.194 -11.378   4.820  0.00  0.00    +0.234 C 
ATOM     20  O   UNL     1       8.152 -11.700   4.097  0.00  0.00    -0.274 OA
ATOM     21  C   UNL     1       6.286 -10.210   4.503  0.00  0.00    +0.163 C 
ATOM     22  N   UNL     1       7.459  -9.505   3.983  0.00  0.00    -0.302 N 
ATOM     23  H   UNL     1       8.098  -9.991   3.334  0.00  0.00    +0.150 HD
ATOM     24  C   UNL     1       7.216  -8.277   3.582  0.00  0.00    +0.235 C 
ATOM     25  O   UNL     1       6.158  -7.753   3.956  0.00  0.00    -0.274 OA
ATOM     26  C   UNL     1       8.157  -7.811   2.408  0.00  0.00    +0.169 C 
ATOM     27  C   UNL     1       7.641  -6.345   2.778  0.00  0.00    +0.112 C 
ATOM     28  S   UNL     1       9.140  -5.427   2.820  0.00  0.00    -0.091 S 
ATOM     29  S   UNL     1       8.162  -4.286   1.578  0.00  0.00    -0.091 S 
ATOM     30  C   UNL     1       8.157  -5.986   0.311  0.00  0.00    +0.112 C 
ENDROOT
BRANCH   1  33
ATOM     31  C   UNL     1       5.543  -1.628  -2.135  0.00  0.00    +0.162 C 
ATOM     32  N   UNL     1       6.606  -2.994  -1.060  0.00  0.00    -0.288 N 
ATOM     33  C   UNL     1       6.312  -5.017  -0.291  0.00  0.00    +0.237 C 
ATOM     34  O   UNL     1       5.122  -4.955  -0.661  0.00  0.00    -0.274 OA
ATOM     35  C   UNL     1       7.604  -1.307  -1.413  0.00  0.00    +0.109 C 
ATOM     36  C   UNL     1       7.264   0.486  -2.348  0.00  0.00    +0.021 C 
ATOM     37  C   UNL     1       5.809   0.448  -2.189  0.00  0.00    +0.033 C 
BRANCH  31  40
ATOM     38  N   UNL     1       4.772  -0.065  -4.787  0.00  0.00    -0.302 N 
ATOM     39  H   UNL     1       3.835   0.205  -4.509  0.00  0.00    +0.150 HD
ATOM     40  C   UNL     1       5.762  -0.896  -3.969  0.00  0.00    +0.234 C 
ATOM     41  O   UNL     1       6.890  -0.766  -4.504  0.00  0.00    -0.274 OA
BRANCH  38  42
ATOM     42  C   UNL     1       5.001   0.245  -6.356  0.00  0.00    +0.159 C 
BRANCH  42  43
ATOM     43  C   UNL     1       4.005   1.185  -7.245  0.00  0.00    +0.234 C 
ATOM     44  N   UNL     1       4.581   2.140  -8.085  0.00  0.00    -0.305 N 
ATOM     45  H   UNL     1       5.579   2.313  -8.067  0.00  0.00    +0.149 HD
ATOM     46  O   UNL     1       2.784   1.017  -7.257  0.00  0.00    -0.274 OA
BRANCH  44  47
ATOM     47  C   UNL     1       3.807   3.017  -8.992  0.00  0.00    +0.199 C 
BRANCH  47  48
ATOM     48  C   UNL     1       3.339   4.321  -8.328  0.00  0.00    +0.228 C 
ATOM     49  O   UNL     1       3.633   5.435  -8.753  0.00  0.00    -0.274 OA
ATOM     50  N   UNL     1       2.515   4.189  -7.249  0.00  0.00    -0.328 N 
ATOM     51  H   UNL     1       2.158   5.030  -6.813  0.00  0.00    +0.145 HD
ATOM     52  H   UNL     1       2.191   3.285  -6.923  0.00  0.00    +0.145 HD
ENDBRANCH  47  48
ENDBRANCH  44  47
ENDBRANCH  42  43
BRANCH  42  53
ATOM     53  C   UNL     1       4.875  -1.165  -6.949  0.00  0.00    +0.032 C 
BRANCH  53  54
ATOM     54  C   UNL     1       5.171  -1.317  -8.431  0.00  0.00    +0.003 C 
BRANCH  54  55
ATOM     55  C   UNL     1       5.057  -2.787  -8.835  0.00  0.00    +0.015 C 
BRANCH  55  56
ATOM     56  C   UNL     1       5.331  -2.942 -10.325  0.00  0.00    +0.077 C 
BRANCH  56  57
ATOM     57  N   UNL     1       5.241  -4.345 -10.700  0.00  0.00    -0.330 NA
ATOM     58  H   UNL     1       4.299  -4.686 -10.510  0.00  0.00    +0.118 HD
ATOM     59  H   UNL     1       5.385  -4.436 -11.704  0.00  0.00    +0.118 HD
ENDBRANCH  56  57
ENDBRANCH  55  56
ENDBRANCH  54  55
ENDBRANCH  53  54
ENDBRANCH  42  53
ENDBRANCH  38  42
ENDBRANCH  31  40
ENDBRANCH   1  33
BRANCH  26  60
ATOM     60  N   UNL     1       8.253  -8.534   0.688  0.00  0.00    -0.302 N 
ATOM     61  H   UNL     1       9.148  -8.456   0.235  0.00  0.00    +0.150 HD
ATOM     62  C   UNL     1       7.035  -9.034  -0.324  0.00  0.00    +0.231 C 
ATOM     63  O   UNL     1       5.786  -8.871  -0.215  0.00  0.00    -0.274 OA
BRANCH  62  64
ATOM     64  C   UNL     1       7.335  -9.740  -1.575  0.00  0.00    +0.200 C 
BRANCH  64  65
ATOM     65  N   UNL     1       6.561  -9.003  -2.604  0.00  0.00    -0.305 N 
ATOM     66  H   UNL     1       6.617  -7.987  -2.622  0.00  0.00    +0.149 HD
ATOM     67  C   UNL     1       5.432  -9.561  -3.191  0.00  0.00    +0.231 C 
ATOM     68  O   UNL     1       5.108 -10.736  -3.018  0.00  0.00    -0.274 OA
BRANCH  67  69
ATOM     69  C   UNL     1       4.713  -8.688  -4.235  0.00  0.00    +0.200 C 
BRANCH  69  70
ATOM     70  N   UNL     1       5.360  -8.772  -5.538  0.00  0.00    -0.306 N 
ATOM     71  H   UNL     1       5.142  -9.539  -6.169  0.00  0.00    +0.149 HD
ATOM     72  C   UNL     1       6.354  -7.895  -5.904  0.00  0.00    +0.227 C 
ATOM     73  O   UNL     1       6.727  -6.985  -5.163  0.00  0.00    -0.274 OA
BRANCH  72  74
ATOM     74  C   UNL     1       6.951  -8.088  -7.310  0.00  0.00    +0.174 C 
BRANCH  74  75
ATOM     75  N   UNL     1       6.932  -9.503  -7.722  0.00  0.00    -0.322 NA
ATOM     76  H   UNL     1       7.405  -9.577  -8.626  0.00  0.00    +0.119 HD
ATOM     77  H   UNL     1       7.514 -10.032  -7.071  0.00  0.00    +0.119 HD
ENDBRANCH  74  75
ENDBRANCH  72  74
ENDBRANCH  69  70
ENDBRANCH  67  69
ENDBRANCH  64  65
ENDBRANCH  62  64
ENDBRANCH  26  60
BRANCH  11  78
ATOM     78  C   UNL     1       3.743 -16.948   6.769  0.00  0.00    +0.041 C 
BRANCH  78  79
ATOM     79  C   UNL     1       3.009 -17.466   7.970  0.00  0.00    +0.098 C 
BRANCH  79  80
ATOM     80  C   UNL     1       1.931 -18.461   7.689  0.00  0.00    +0.211 C 
ATOM     81  O   UNL     1       1.862 -19.538   8.269  0.00  0.00    -0.276 OA
ATOM     82  N   UNL     1       0.985 -18.049   6.807  0.00  0.00    -0.329 N 
ATOM     83  H   UNL     1       0.206 -18.667   6.638  0.00  0.00    +0.145 HD
ATOM     84  H   UNL     1       1.027 -17.164   6.317  0.00  0.00    +0.145 HD
ENDBRANCH  79  80
ENDBRANCH  78  79
ENDBRANCH  11  78
BRANCH  21  85
ATOM     85  C   UNL     1       4.805 -10.362   3.592  0.00  0.00    +0.067 C 
BRANCH  85  86
ATOM     86  C   UNL     1       3.798 -11.266   4.215  0.00  0.00    -0.045 A 
ATOM     87  C   UNL     1       3.116 -12.299   3.542  0.00  0.00    +0.007 A 
ATOM     88  C   UNL     1       2.398 -13.242   4.279  0.00  0.00    +0.045 A 
ATOM     89  C   UNL     1       2.374 -13.135   5.661  0.00  0.00    +0.117 A 
ATOM     90  C   UNL     1       2.937 -12.030   6.299  0.00  0.00    +0.045 A 
ATOM     91  C   UNL     1       3.616 -11.078   5.567  0.00  0.00    +0.007 A 
BRANCH  89  92
ATOM     92  O   UNL     1       1.837 -14.160   6.388  0.00  0.00    -0.507 OA
ATOM     93  H   UNL     1       1.978 -13.938   7.325  0.00  0.00    +0.292 HD
ENDBRANCH  89  92
ENDBRANCH  85  86
ENDBRANCH  21  85
BRANCH  16  94
ATOM     94  C   UNL     1       8.844 -13.742   6.732  0.00  0.00    +0.067 C 
BRANCH  94  95
ATOM     95  C   UNL     1       9.683 -12.603   6.354  0.00  0.00    -0.045 A 
ATOM     96  C   UNL     1      10.359 -12.507   5.114  0.00  0.00    +0.004 A 
ATOM     97  C   UNL     1      10.701 -11.232   4.692  0.00  0.00    +0.000 A 
ATOM     98  C   UNL     1      10.188 -10.125   5.397  0.00  0.00    +0.000 A 
ATOM     99  C   UNL     1       9.428 -10.267   6.560  0.00  0.00    +0.000 A 
ATOM    100  C   UNL     1       9.258 -11.508   7.093  0.00  0.00    +0.004 A 
ENDBRANCH  94  95
ENDBRANCH  16  94
BRANCH   6 101
ATOM    101  C   UNL     1       7.775 -15.197   4.449  0.00  0.00    +0.127 C 
BRANCH 101 102
ATOM    102  C   UNL     1       8.242 -16.859   5.599  0.00  0.00    +0.213 C 
ATOM    103  O   UNL     1       7.986 -16.998   6.875  0.00  0.00    -0.276 OA
ATOM    104  N   UNL     1       9.003 -18.166   5.508  0.00  0.00    -0.329 N 
ATOM    105  H   UNL     1       9.462 -18.361   6.453  0.00  0.00    +0.145 HD
ATOM    106  H   UNL     1       8.513 -19.104   5.675  0.00  0.00    +0.145 HD
ENDBRANCH 101 102
ENDBRANCH   6 101
TORSDOF 28
