REMARK  Name = 
REMARK  6 active torsions:
REMARK  status: ('A' for Active; 'I' for Inactive)
REMARK    1  A    between atoms: N_1  and  C_2
REMARK    2  A    between atoms: C_2  and  C_4
REMARK    3  A    between atoms: C_2  and  C_13
REMARK    4  A    between atoms: C_4  and  C_5
REMARK    5  A    between atoms: C_5  and  C_6
REMARK    6  A    between atoms: C_6  and  N_7
REMARK                            x       y       z     vdW  Elec       q    Type
REMARK                         _______ _______ _______ _____ _____    ______ ____
ROOT
ATOM      1  C   UNL     1       2.552  -2.496   0.224  0.00  0.00    +0.039 C 
ENDROOT
BRANCH   1   2
ATOM      2  C   UNL     1       3.029  -1.242  -0.515  0.00  0.00    +0.031 C 
BRANCH   2   3
ATOM      3  C   UNL     1       2.496   0.072   0.083  0.00  0.00    +0.138 C 
BRANCH   3   4
ATOM      4  C   UNL     1       2.975   0.289   1.539  0.00  0.00    +0.227 C 
ATOM      5  O   UNL     1       2.720  -0.480   2.460  0.00  0.00    -0.274 OA
ATOM      6  N   UNL     1       3.738   1.400   1.747  0.00  0.00    -0.328 N 
ATOM      7  H   UNL     1       3.937   1.650   2.705  0.00  0.00    +0.145 HD
ATOM      8  H   UNL     1       3.630   2.151   1.069  0.00  0.00    +0.145 HD
ENDBRANCH   3   4
BRANCH   3   9
ATOM      9  N   UNL     1       2.927   1.210  -0.767  0.00  0.00    -0.320 NA
ATOM     10  H   UNL     1       3.936   1.154  -0.913  0.00  0.00    +0.119 HD
ATOM     11  H   UNL     1       2.507   1.123  -1.693  0.00  0.00    +0.119 HD
ENDBRANCH   3   9
ENDBRANCH   2   3
ENDBRANCH   1   2
BRANCH   1  12
ATOM     12  C   UNL     1       3.091  -3.772  -0.413  0.00  0.00    +0.196 C 
BRANCH  12  13
ATOM     13  N   UNL     1       2.672  -4.950   0.363  0.00  0.00    -0.279 N 
ATOM     14  H   UNL     1       2.104  -4.800   1.189  0.00  0.00    +0.258 HD
ATOM     15  C   UNL     1       3.016  -6.212   0.072  0.00  0.00    +0.341 C 
ATOM     16  N   UNL     1       2.582  -7.210   0.846  0.00  0.00    -0.292 N 
ATOM     17  H   UNL     1       2.823  -8.173   0.651  0.00  0.00    +0.255 HD
ATOM     18  H   UNL     1       1.999  -7.041   1.656  0.00  0.00    +0.255 HD
ATOM     19  N   UNL     1       3.786  -6.506  -0.979  0.00  0.00    -0.292 N 
ATOM     20  H   UNL     1       4.046  -7.459  -1.198  0.00  0.00    +0.255 HD
ATOM     21  H   UNL     1       4.144  -5.781  -1.586  0.00  0.00    +0.255 HD
ENDBRANCH  12  13
ENDBRANCH   1  12
TORSDOF 6
