REMARK  Name = 
REMARK  10 active torsions:
REMARK  status: ('A' for Active; 'I' for Inactive)
REMARK    1  A    between atoms: C_1  and  C_2
REMARK    2  A    between atoms: C_2  and  C_4
REMARK    3  A    between atoms: C_4  and  O_6
REMARK    4  A    between atoms: C_4  and  C_7
REMARK    5  A    between atoms: C_7  and  O_9
REMARK    6  A    between atoms: C_7  and  C_10
REMARK    7  A    between atoms: C_10  and  O_11
REMARK    8  A    between atoms: O_11  and  P_12
REMARK    9  A    between atoms: P_12  and  O_13
REMARK   10  A    between atoms: P_12  and  O_14
REMARK                            x       y       z     vdW  Elec       q    Type
REMARK                         _______ _______ _______ _____ _____    ______ ____
ROOT
ATOM      1  C   UNL     1       4.910   0.212  -0.885  0.00  0.00    +0.176 C 
ENDROOT
BRANCH   1   2
ATOM      2  O   UNL     1       5.424  -1.060  -0.469  0.00  0.00    -0.386 OA
ATOM      3  H   UNL     1       5.410  -1.628  -1.263  0.00  0.00    +0.210 HD
ENDBRANCH   1   2
BRANCH   1   4
ATOM      4  C   UNL     1       5.127   1.275   0.206  0.00  0.00    +0.210 C 
BRANCH   4   6
ATOM      5  C   UNL     1       5.244   0.098   2.530  0.00  0.00    +0.089 C 
ATOM      6  C   UNL     1       4.441   0.855   1.503  0.00  0.00    +0.161 C 
ATOM      7  O   UNL     1       3.253   1.151   1.714  0.00  0.00    -0.295 OA
ENDBRANCH   4   6
BRANCH   4   8
ATOM      8  O   UNL     1       6.508   1.588   0.369  0.00  0.00    -0.382 OA
ATOM      9  H   UNL     1       6.570   2.365   0.952  0.00  0.00    +0.210 HD
ENDBRANCH   4   8
ENDBRANCH   1   4
BRANCH   1  10
ATOM     10  C   UNL     1       5.586   0.618  -2.202  0.00  0.00    +0.206 C 
BRANCH  10  11
ATOM     11  O   UNL     1       5.268  -0.357  -3.193  0.00  0.00    -0.284 OA
BRANCH  11  12
ATOM     12  P   UNL     1       5.915  -0.033  -4.765  0.00  0.00    +0.472 P 
ATOM     13  O   UNL     1       6.493   0.257  -6.171  0.00  0.00    -0.228 OA
BRANCH  12  14
ATOM     14  O   UNL     1       5.231  -1.454  -5.185  0.00  0.00    -0.303 OA
ATOM     15  H   UNL     1       4.283  -1.350  -5.362  0.00  0.00    +0.222 HD
ENDBRANCH  12  14
BRANCH  12  16
ATOM     16  O   UNL     1       7.332  -0.629  -4.219  0.00  0.00    -0.303 OA
ATOM     17  H   UNL     1       7.842  -0.863  -5.019  0.00  0.00    +0.222 HD
ENDBRANCH  12  16
ENDBRANCH  11  12
ENDBRANCH  10  11
ENDBRANCH   1  10
TORSDOF 9
