REMARK  Name = 
REMARK  13 active torsions:
REMARK  status: ('A' for Active; 'I' for Inactive)
REMARK    1  A    between atoms: N_1  and  C_2
REMARK    2  A    between atoms: C_2  and  C_3
REMARK    3  A    between atoms: C_3  and  C_4
REMARK    4  A    between atoms: C_4  and  C_6
REMARK    5  A    between atoms: C_4  and  C_10
REMARK    6  A    between atoms: C_6  and  C_7
REMARK    7  A    between atoms: C_7  and  O_8
REMARK    8  A    between atoms: C_10  and  C_12
REMARK    9  A    between atoms: C_10  and  C_14
REMARK   10  A    between atoms: C_12  and  N_13
REMARK   11  A    between atoms: C_14  and  C_15
REMARK   12  A    between atoms: C_15  and  C_16
REMARK   13  A    between atoms: C_16  and  O_17
REMARK                            x       y       z     vdW  Elec       q    Type
REMARK                         _______ _______ _______ _____ _____    ______ ____
ROOT
ATOM      1  C   UNL     1       4.311  -1.213   0.491  0.00  0.00    +0.005 C 
ENDROOT
BRANCH   1   2
ATOM      2  C   UNL     1       2.758  -1.151   0.494  0.00  0.00    +0.019 C 
BRANCH   2   3
ATOM      3  C   UNL     1       2.133   0.114  -0.102  0.00  0.00    +0.078 C 
BRANCH   3   4
ATOM      4  N   UNL     1       2.506   0.283  -1.502  0.00  0.00    -0.330 NA
ATOM      5  H   UNL     1       2.121  -0.497  -2.040  0.00  0.00    +0.118 HD
ATOM      6  H   UNL     1       2.028   1.110  -1.867  0.00  0.00    +0.118 HD
ENDBRANCH   3   4
ENDBRANCH   2   3
ENDBRANCH   1   2
BRANCH   1   7
ATOM      7  C   UNL     1       4.844  -2.615   0.978  0.00  0.00    +0.007 C 
BRANCH   7   8
ATOM      8  C   UNL     1       4.408  -3.784   0.049  0.00  0.00    +0.016 C 
BRANCH   8   9
ATOM      9  C   UNL     1       4.879  -3.663  -1.402  0.00  0.00    +0.121 C 
BRANCH   9  10
ATOM     10  C   UNL     1       4.411  -4.849  -2.217  0.00  0.00    +0.305 C 
ATOM     11  O   UNL     1       3.376  -5.466  -2.015  0.00  0.00    -0.251 OA
BRANCH  10  12
ATOM     12  O   UNL     1       5.230  -5.140  -3.250  0.00  0.00    -0.481 OA
ATOM     13  H   UNL     1       6.019  -4.573  -3.311  0.00  0.00    +0.295 HD
ENDBRANCH  10  12
ENDBRANCH   9  10
ENDBRANCH   8   9
ENDBRANCH   7   8
BRANCH   7  14
ATOM     14  C   UNL     1       4.444  -2.909   2.448  0.00  0.00    +0.081 C 
BRANCH  14  15
ATOM     15  N   UNL     1       5.016  -4.150   2.961  0.00  0.00    -0.330 NA
ATOM     16  H   UNL     1       4.771  -4.248   3.947  0.00  0.00    +0.118 HD
ATOM     17  H   UNL     1       4.590  -4.953   2.499  0.00  0.00    +0.118 HD
ENDBRANCH  14  15
ENDBRANCH   7  14
ENDBRANCH   1   7
BRANCH   1  18
ATOM     18  C   UNL     1       4.893  -0.025   1.292  0.00  0.00    +0.124 C 
BRANCH  18  19
ATOM     19  C   UNL     1       6.401   0.013   1.348  0.00  0.00    +0.305 C 
ATOM     20  O   UNL     1       7.047  -0.096   2.379  0.00  0.00    -0.251 OA
BRANCH  19  21
ATOM     21  O   UNL     1       6.980   0.219   0.145  0.00  0.00    -0.481 OA
ATOM     22  H   UNL     1       6.338   0.364  -0.575  0.00  0.00    +0.295 HD
ENDBRANCH  19  21
ENDBRANCH  18  19
ENDBRANCH   1  18
TORSDOF 13
