REMARK  Name = 
REMARK  4 active torsions:
REMARK  status: ('A' for Active; 'I' for Inactive)
REMARK    1  A    between atoms: C_1  and  C_2
REMARK    2  A    between atoms: C_3  and  C_4
REMARK    3  A    between atoms: C_4  and  C_5
REMARK    4  A    between atoms: C_5  and  O_6
REMARK                            x       y       z     vdW  Elec       q    Type
REMARK                         _______ _______ _______ _____ _____    ______ ____
ROOT
ATOM      1  C   UNL     1       0.930  -0.038   0.039  0.00  0.00    +0.066 C 
ATOM      2  C   UNL     1       2.414   0.075   0.032  0.00  0.00    +0.049 A 
ATOM      3  N   UNL     1       3.143  -1.103   0.003  0.00  0.00    -0.252 NA
ATOM      4  C   UNL     1       4.429  -0.833   0.012  0.00  0.00    +0.156 A 
ATOM      5  S   UNL     1       4.849   0.825   0.034  0.00  0.00    -0.080 S 
ATOM      6  C   UNL     1       3.179   1.233   0.045  0.00  0.00    +0.014 A 
ENDROOT
BRANCH   6   7
ATOM      7  C   UNL     1       2.743   2.669   0.072  0.00  0.00    +0.072 C 
BRANCH   7   8
ATOM      8  C   UNL     1       2.582   3.255  -1.330  0.00  0.00    +0.161 C 
BRANCH   8   9
ATOM      9  O   UNL     1       1.551   2.598  -2.061  0.00  0.00    -0.395 OA
ATOM     10  H   UNL     1       1.892   1.719  -2.308  0.00  0.00    +0.209 HD
ENDBRANCH   8   9
ENDBRANCH   7   8
ENDBRANCH   6   7
TORSDOF 3
