REMARK  Name = 
REMARK  6 active torsions:
REMARK  status: ('A' for Active; 'I' for Inactive)
REMARK    1  A    between atoms: O_1  and  C_2
REMARK    2  A    between atoms: C_4  and  C_17
REMARK    3  A    between atoms: C_9  and  O_10
REMARK    4  A    between atoms: C_12  and  O_13
REMARK    5  A    between atoms: C_20  and  O_21
REMARK    6  A    between atoms: C_22  and  O_23
REMARK                            x       y       z     vdW  Elec       q    Type
REMARK                         _______ _______ _______ _____ _____    ______ ____
ROOT
ATOM      1  C   UNL     1       2.333  -0.022  -0.082  0.00  0.00    +0.230 C 
ATOM      2  C   UNL     1       2.917   1.283   0.428  0.00  0.00    +0.202 C 
ATOM      3  O   UNL     1       2.214   2.284   0.550  0.00  0.00    -0.289 OA
ATOM      4  C   UNL     1       4.374   1.266   0.715  0.00  0.00    +0.103 A 
ATOM      5  C   UNL     1       5.011   0.021   0.777  0.00  0.00    +0.139 A 
ATOM      6  C   UNL     1       6.393  -0.057   0.977  0.00  0.00    +0.092 A 
ATOM      7  C   UNL     1       7.130   1.110   1.130  0.00  0.00    +0.124 A 
ATOM      8  C   UNL     1       6.515   2.355   1.084  0.00  0.00    +0.091 A 
ATOM      9  O   UNL     1       4.382  -1.183   0.621  0.00  0.00    -0.480 OA
ATOM     10  C   UNL     1       5.136   2.433   0.873  0.00  0.00    +0.134 A 
ATOM     11  C   UNL     1       2.948  -1.156   0.738  0.00  0.00    +0.240 C 
ENDROOT
BRANCH  11  12
ATOM     12  C   UNL     1       2.420  -2.511   0.277  0.00  0.00    -0.001 A 
ATOM     13  C   UNL     1       3.014  -3.208  -0.789  0.00  0.00    +0.056 A 
ATOM     14  C   UNL     1       2.482  -4.422  -1.202  0.00  0.00    +0.159 A 
ATOM     15  C   UNL     1       1.359  -4.960  -0.581  0.00  0.00    +0.158 A 
ATOM     16  C   UNL     1       0.746  -4.285   0.465  0.00  0.00    +0.049 A 
ATOM     17  C   UNL     1       1.277  -3.062   0.891  0.00  0.00    +0.011 A 
BRANCH  14  18
ATOM     18  O   UNL     1       3.073  -5.089  -2.237  0.00  0.00    -0.503 OA
ATOM     19  H   UNL     1       2.531  -5.896  -2.345  0.00  0.00    +0.292 HD
ENDBRANCH  14  18
BRANCH  15  20
ATOM     20  O   UNL     1       0.891  -6.160  -1.042  0.00  0.00    -0.503 OA
ATOM     21  H   UNL     1       0.114  -6.402  -0.509  0.00  0.00    +0.292 HD
ENDBRANCH  15  20
ENDBRANCH  11  12
BRANCH   1  22
ATOM     22  O   UNL     1       0.908   0.015   0.051  0.00  0.00    -0.380 OA
ATOM     23  H   UNL     1       0.636   0.904  -0.257  0.00  0.00    +0.211 HD
ENDBRANCH   1  22
BRANCH   7  24
ATOM     24  O   UNL     1       8.480   1.080   1.324  0.00  0.00    -0.507 OA
ATOM     25  H   UNL     1       8.782   0.155   1.323  0.00  0.00    +0.292 HD
ENDBRANCH   7  24
BRANCH  10  26
ATOM     26  O   UNL     1       4.556   3.668   0.792  0.00  0.00    -0.506 OA
ATOM     27  H   UNL     1       5.214   4.359   0.969  0.00  0.00    +0.292 HD
ENDBRANCH  10  26
TORSDOF 6
