REMARK  Name = 
REMARK  19 active torsions:
REMARK  status: ('A' for Active; 'I' for Inactive)
REMARK    1  A    between atoms: O_1  and  C_2
REMARK    2  A    between atoms: C_2  and  C_3
REMARK    3  A    between atoms: C_3  and  C_5
REMARK    4  A    between atoms: C_5  and  O_6
REMARK    5  A    between atoms: O_6  and  P_7
REMARK    6  A    between atoms: P_7  and  O_8
REMARK    7  A    between atoms: P_7  and  O_10
REMARK    8  A    between atoms: O_10  and  C_11
REMARK    9  A    between atoms: C_13  and  O_15
REMARK   10  A    between atoms: C_16  and  O_18
REMARK   11  A    between atoms: C_19  and  O_21
REMARK   12  A    between atoms: O_21  and  P_22
REMARK   13  A    between atoms: P_22  and  O_23
REMARK   14  A    between atoms: P_22  and  O_24
REMARK   15  A    between atoms: C_26  and  O_28
REMARK   16  A    between atoms: O_28  and  P_29
REMARK   17  A    between atoms: P_29  and  O_30
REMARK   18  A    between atoms: P_29  and  O_31
REMARK   19  A    between atoms: C_33  and  O_35
REMARK                            x       y       z     vdW  Elec       q    Type
REMARK                         _______ _______ _______ _____ _____    ______ ____
ROOT
ATOM      1  C   UNL     1       8.404   3.508  -3.781  0.00  0.00    +0.192 C 
ATOM      2  C   UNL     1       9.205   4.658  -3.196  0.00  0.00    +0.178 C 
ATOM      3  C   UNL     1       8.311   5.505  -2.253  0.00  0.00    +0.193 C 
ATOM      4  C   UNL     1       7.006   5.971  -2.912  0.00  0.00    +0.193 C 
ATOM      5  C   UNL     1       6.217   4.841  -3.557  0.00  0.00    +0.177 C 
ATOM      6  C   UNL     1       7.183   4.093  -4.536  0.00  0.00    +0.177 C 
ENDROOT
BRANCH   6   7
ATOM      7  O   UNL     1       7.581   4.956  -5.633  0.00  0.00    -0.386 OA
ATOM      8  H   UNL     1       8.420   5.406  -5.376  0.00  0.00    +0.210 HD
ENDBRANCH   6   7
BRANCH   5   9
ATOM      9  O   UNL     1       5.589   4.097  -2.521  0.00  0.00    -0.386 OA
ATOM     10  H   UNL     1       4.995   4.698  -2.032  0.00  0.00    +0.210 HD
ENDBRANCH   5   9
BRANCH   2  11
ATOM     11  O   UNL     1       9.780   5.465  -4.232  0.00  0.00    -0.386 OA
ATOM     12  H   UNL     1       9.788   6.398  -3.930  0.00  0.00    +0.210 HD
ENDBRANCH   2  11
BRANCH   3  13
ATOM     13  O   UNL     1       9.077   6.651  -1.813  0.00  0.00    -0.278 OA
BRANCH  13  14
ATOM     14  P   UNL     1      10.585   6.136  -1.141  0.00  0.00    +0.473 P 
ATOM     15  O   UNL     1      11.935   5.674  -0.539  0.00  0.00    -0.228 OA
BRANCH  14  16
ATOM     16  O   UNL     1      10.743   7.700  -0.709  0.00  0.00    -0.303 OA
ATOM     17  H   UNL     1      10.052   8.226  -1.152  0.00  0.00    +0.222 HD
ENDBRANCH  14  16
BRANCH  14  18
ATOM     18  O   UNL     1       9.744   5.654   0.172  0.00  0.00    -0.303 OA
ATOM     19  H   UNL     1      10.406   5.595   0.892  0.00  0.00    +0.222 HD
ENDBRANCH  14  18
ENDBRANCH  13  14
ENDBRANCH   3  13
BRANCH   4  20
ATOM     20  O   UNL     1       7.303   6.842  -3.964  0.00  0.00    -0.278 OA
BRANCH  20  21
ATOM     21  P   UNL     1       5.893   7.567  -4.656  0.00  0.00    +0.473 P 
ATOM     22  O   UNL     1       4.631   8.216  -5.274  0.00  0.00    -0.228 OA
BRANCH  21  23
ATOM     23  O   UNL     1       6.116   8.744  -3.544  0.00  0.00    -0.303 OA
ATOM     24  H   UNL     1       6.369   9.541  -4.047  0.00  0.00    +0.222 HD
ENDBRANCH  21  23
BRANCH  21  25
ATOM     25  O   UNL     1       6.938   8.211  -5.735  0.00  0.00    -0.303 OA
ATOM     26  H   UNL     1       7.076   7.601  -6.485  0.00  0.00    +0.222 HD
ENDBRANCH  21  25
ENDBRANCH  20  21
ENDBRANCH   4  20
BRANCH   1  27
ATOM     27  O   UNL     1       8.071   2.663  -2.666  0.00  0.00    -0.278 OA
BRANCH  27  28
ATOM     28  P   UNL     1       7.120   1.301  -3.150  0.00  0.00    +0.476 P 
ATOM     29  O   UNL     1       6.793   1.011  -1.687  0.00  0.00    -0.227 OA
BRANCH  28  30
ATOM     30  O   UNL     1       5.862   2.143  -3.688  0.00  0.00    -0.302 OA
ATOM     31  H   UNL     1       5.323   2.420  -2.916  0.00  0.00    +0.222 HD
ENDBRANCH  28  30
BRANCH  28  32
ATOM     32  O   UNL     1       6.169  -0.061  -3.633  0.00  0.00    -0.279 OA
BRANCH  32  33
ATOM     33  C   UNL     1       6.600  -0.663  -4.832  0.00  0.00    +0.249 C 
BRANCH  33  34
ATOM     34  C   UNL     1       5.670  -1.798  -5.216  0.00  0.00    +0.184 C 
ATOM     35  O   UNL     1       5.388  -2.016  -6.397  0.00  0.00    -0.292 OA
BRANCH  34  36
ATOM     36  C   UNL     1       5.121  -2.664  -4.089  0.00  0.00    +0.232 C 
BRANCH  36  37
ATOM     37  O   UNL     1       6.148  -3.205  -3.274  0.00  0.00    -0.387 OA
ATOM     38  H   UNL     1       5.761  -3.359  -2.395  0.00  0.00    +0.210 HD
ENDBRANCH  36  37
ENDBRANCH  34  36
ENDBRANCH  33  34
ENDBRANCH  32  33
ENDBRANCH  28  32
ENDBRANCH  27  28
ENDBRANCH   1  27
TORSDOF 19
