REMARK  Name = 
REMARK  3 active torsions:
REMARK  status: ('A' for Active; 'I' for Inactive)
REMARK    1  A    between atoms: C_2  and  C_4
REMARK    2  A    between atoms: C_7  and  C_8
REMARK    3  A    between atoms: C_8  and  O_9
REMARK                            x       y       z     vdW  Elec       q    Type
REMARK                         _______ _______ _______ _____ _____    ______ ____
ROOT
ATOM      1  C   UNL     1       3.157  -0.732  -1.122  0.00  0.00    +0.065 A 
ATOM      2  C   UNL     1       2.995  -2.120  -1.168  0.00  0.00    +0.016 A 
ATOM      3  C   UNL     1       3.487  -2.846  -2.256  0.00  0.00    +0.007 A 
ATOM      4  C   UNL     1       4.163  -2.199  -3.302  0.00  0.00    -0.022 A 
ATOM      5  C   UNL     1       4.355  -0.812  -3.226  0.00  0.00    +0.007 A 
ATOM      6  C   UNL     1       3.863  -0.083  -2.138  0.00  0.00    +0.016 A 
ENDROOT
BRANCH   1  10
ATOM      7  N   UNL     1       1.433  -0.400   0.624  0.00  0.00    -0.247 N 
ATOM      8  H   UNL     1       0.861  -1.051   0.094  0.00  0.00    +0.288 HD
ATOM      9  H   UNL     1       0.862   0.309   1.069  0.00  0.00    +0.288 HD
ATOM     10  C   UNL     1       2.542   0.068  -0.024  0.00  0.00    +0.308 C 
ATOM     11  N   UNL     1       3.036   1.222   0.284  0.00  0.00    -0.099 NA
ATOM     12  H   UNL     1       2.514   1.622   1.066  0.00  0.00    +0.363 HD
ENDBRANCH   1  10
BRANCH   4  13
ATOM     13  C   UNL     1       4.590  -2.950  -4.538  0.00  0.00    +0.191 C 
BRANCH  13  14
ATOM     14  O   UNL     1       5.013  -4.273  -4.236  0.00  0.00    -0.390 OA
ATOM     15  H   UNL     1       5.676  -4.197  -3.527  0.00  0.00    +0.210 HD
ENDBRANCH  13  14
ENDBRANCH   4  13
TORSDOF 3
