REMARK  Name = 
REMARK  11 active torsions:
REMARK  status: ('A' for Active; 'I' for Inactive)
REMARK    1  A    between atoms: C_1  and  O_2
REMARK    2  A    between atoms: O_2  and  C_3
REMARK    3  A    between atoms: C_3  and  C_5
REMARK    4  A    between atoms: C_6  and  O_7
REMARK    5  A    between atoms: C_11  and  O_12
REMARK    6  A    between atoms: O_12  and  C_13
REMARK    7  A    between atoms: C_13  and  C_14
REMARK    8  A    between atoms: C_15  and  C_16
REMARK    9  A    between atoms: C_18  and  C_19
REMARK   10  A    between atoms: C_21  and  C_24
REMARK   11  A    between atoms: C_24  and  O_25
REMARK                            x       y       z     vdW  Elec       q    Type
REMARK                         _______ _______ _______ _____ _____    ______ ____
ROOT
ATOM      1  C   UNL     1       2.812  -4.754  -0.292  0.00  0.00    +0.014 C 
ATOM      2  C   UNL     1       1.535  -5.076  -0.564  0.00  0.00    +0.007 C 
ENDROOT
BRANCH   2   3
ATOM      3  C   UNL     1       1.084  -6.409  -0.966  0.00  0.00    -0.024 A 
ATOM      4  C   UNL     1      -0.220  -6.821  -0.678  0.00  0.00    +0.011 A 
ATOM      5  C   UNL     1      -0.666  -8.071  -1.108  0.00  0.00    +0.039 A 
ATOM      6  C   UNL     1       0.183  -8.898  -1.843  0.00  0.00    +0.134 A 
ATOM      7  F   UNL     1      -0.290 -10.087  -2.244  0.00  0.00    -0.205 F 
ATOM      8  C   UNL     1       1.484  -8.501  -2.171  0.00  0.00    +0.056 A 
ATOM      9  C   UNL     1       1.915  -7.246  -1.721  0.00  0.00    +0.022 A 
BRANCH   8  10
ATOM     10  C   UNL     1       2.372  -9.332  -2.973  0.00  0.00    +0.171 A 
ATOM     11  O   UNL     1       3.612  -8.815  -3.223  0.00  0.00    -0.354 OA
ATOM     12  N   UNL     1       4.344  -9.685  -4.005  0.00  0.00    -0.071 NA
ATOM     13  C   UNL     1       3.537 -10.736  -4.225  0.00  0.00    +0.190 A 
ATOM     14  C   UNL     1       2.285 -10.559  -3.587  0.00  0.00    +0.088 A 
BRANCH  13  15
ATOM     15  C   UNL     1       3.994 -11.857  -5.035  0.00  0.00    +0.359 C 
ATOM     16  O   UNL     1       3.316 -12.843  -5.277  0.00  0.00    -0.243 OA
BRANCH  15  17
ATOM     17  O   UNL     1       5.263 -11.705  -5.507  0.00  0.00    -0.476 OA
ATOM     18  H   UNL     1       5.613 -10.842  -5.192  0.00  0.00    +0.295 HD
ENDBRANCH  15  17
ENDBRANCH  13  15
ENDBRANCH   8  10
ENDBRANCH   2   3
BRANCH   1  19
ATOM     19  C   UNL     1       3.223  -3.349  -0.002  0.00  0.00    +0.256 C 
BRANCH  19  20
ATOM     20  O   UNL     1       3.929  -3.294   1.237  0.00  0.00    -0.487 OA
BRANCH  20  22
ATOM     21  C   UNL     1       5.337  -1.847   2.541  0.00  0.00    +0.142 A 
ATOM     22  C   UNL     1       4.239  -2.026   1.677  0.00  0.00    +0.138 A 
ATOM     23  C   UNL     1       3.441  -0.913   1.356  0.00  0.00    +0.047 A 
ATOM     24  C   UNL     1       3.715   0.351   1.871  0.00  0.00    +0.007 A 
ATOM     25  C   UNL     1       4.768   0.519   2.755  0.00  0.00    +0.046 A 
ATOM     26  C   UNL     1       5.563  -0.572   3.099  0.00  0.00    +0.134 A 
BRANCH  21  27
ATOM     27  C   UNL     1       6.319  -2.914   2.863  0.00  0.00    +0.346 C 
ATOM     28  O   UNL     1       7.006  -2.870   3.878  0.00  0.00    -0.245 OA
BRANCH  27  30
ATOM     29  C   UNL     1       7.531  -4.734   2.006  0.00  0.00    +0.280 C 
ATOM     30  O   UNL     1       6.469  -3.792   1.844  0.00  0.00    -0.464 OA
ENDBRANCH  27  30
ENDBRANCH  21  27
BRANCH  26  31
ATOM     31  O   UNL     1       6.564  -0.299   3.997  0.00  0.00    -0.506 OA
ATOM     32  H   UNL     1       6.974  -1.146   4.280  0.00  0.00    +0.292 HD
ENDBRANCH  26  31
ENDBRANCH  20  22
ENDBRANCH  19  20
ENDBRANCH   1  19
TORSDOF 10
