REMARK  Name = 
REMARK  7 active torsions:
REMARK  status: ('A' for Active; 'I' for Inactive)
REMARK    1  A    between atoms: O_1  and  C_2
REMARK    2  A    between atoms: C_4  and  O_5
REMARK    3  A    between atoms: C_9  and  C_14
REMARK    4  A    between atoms: C_10  and  O_11
REMARK    5  A    between atoms: C_16  and  O_17
REMARK    6  A    between atoms: C_18  and  O_19
REMARK    7  A    between atoms: C_20  and  O_21
REMARK                            x       y       z     vdW  Elec       q    Type
REMARK                         _______ _______ _______ _____ _____    ______ ____
ROOT
ATOM      1  C   UNL     1       2.427   0.231  -0.046  0.00  0.00    +0.124 A 
ATOM      2  C   UNL     1       3.232   1.367  -0.056  0.00  0.00    +0.092 A 
ATOM      3  C   UNL     1       4.625   1.236  -0.032  0.00  0.00    +0.147 A 
ATOM      4  O   UNL     1       5.354   2.401  -0.048  0.00  0.00    -0.451 OA
ATOM      5  C   UNL     1       6.743   2.337   0.020  0.00  0.00    +0.181 A 
ATOM      6  C   UNL     1       7.426   1.171   0.043  0.00  0.00    +0.208 A 
ATOM      7  C   UNL     1       6.674  -0.117   0.003  0.00  0.00    +0.238 A 
ATOM      8  O   UNL     1       7.277  -1.175  -0.057  0.00  0.00    -0.283 OA
ATOM      9  C   UNL     1       5.205  -0.032  -0.007  0.00  0.00    +0.109 A 
ATOM     10  C   UNL     1       4.377  -1.171  -0.004  0.00  0.00    +0.135 A 
ATOM     11  C   UNL     1       2.986  -1.042  -0.022  0.00  0.00    +0.091 A 
ENDROOT
BRANCH   5  12
ATOM     12  C   UNL     1       7.394   3.686   0.042  0.00  0.00    +0.028 A 
ATOM     13  C   UNL     1       8.603   3.920   0.728  0.00  0.00    +0.061 A 
ATOM     14  C   UNL     1       9.219   5.168   0.685  0.00  0.00    +0.163 A 
ATOM     15  C   UNL     1       8.629   6.221   0.009  0.00  0.00    +0.201 A 
ATOM     16  C   UNL     1       7.413   6.032  -0.633  0.00  0.00    +0.163 A 
ATOM     17  C   UNL     1       6.796   4.778  -0.626  0.00  0.00    +0.061 A 
BRANCH  14  18
ATOM     18  O   UNL     1      10.421   5.343   1.307  0.00  0.00    -0.503 OA
ATOM     19  H   UNL     1      10.661   6.275   1.131  0.00  0.00    +0.292 HD
ENDBRANCH  14  18
BRANCH  15  20
ATOM     20  O   UNL     1       9.255   7.437  -0.010  0.00  0.00    -0.501 OA
ATOM     21  H   UNL     1       8.650   8.016  -0.518  0.00  0.00    +0.292 HD
ENDBRANCH  15  20
BRANCH  16  22
ATOM     22  O   UNL     1       6.865   7.114  -1.268  0.00  0.00    -0.503 OA
ATOM     23  H   UNL     1       6.001   6.852  -1.633  0.00  0.00    +0.292 HD
ENDBRANCH  16  22
ENDBRANCH   5  12
BRANCH   1  24
ATOM     24  O   UNL     1       1.075   0.405  -0.063  0.00  0.00    -0.507 OA
ATOM     25  H   UNL     1       0.634  -0.461  -0.026  0.00  0.00    +0.292 HD
ENDBRANCH   1  24
BRANCH   6  26
ATOM     26  O   UNL     1       8.804   1.058   0.066  0.00  0.00    -0.501 OA
ATOM     27  H   UNL     1       9.172   1.687  -0.575  0.00  0.00    +0.292 HD
ENDBRANCH   6  26
BRANCH  10  28
ATOM     28  O   UNL     1       4.914  -2.426   0.020  0.00  0.00    -0.506 OA
ATOM     29  H   UNL     1       4.225  -3.107  -0.007  0.00  0.00    +0.292 HD
ENDBRANCH  10  28
TORSDOF 7
