REMARK  Name = 
REMARK  1 active torsions:
REMARK  status: ('A' for Active; 'I' for Inactive)
REMARK    1  A    between atoms: C_13  and  C_15
REMARK                            x       y       z     vdW  Elec       q    Type
REMARK                         _______ _______ _______ _____ _____    ______ ____
ROOT
ATOM      1  C   UNL     1       5.578   1.916  -1.243  0.00  0.00    +0.079 C 
ATOM      2  C   UNL     1       5.920   1.168  -2.528  0.00  0.00    +0.076 C 
ATOM      3  C   UNL     1       7.402   1.321  -2.924  0.00  0.00    +0.031 C 
ATOM      4  C   UNL     1       8.230   0.184  -2.314  0.00  0.00    +0.105 C 
ATOM      5  N   UNL     1       8.372   0.177  -0.869  0.00  0.00    -0.310 N 
ATOM      6  H   UNL     1       8.990  -0.545  -0.516  0.00  0.00    +0.149 HD
ATOM      7  C   UNL     1       7.359   0.429   0.029  0.00  0.00    +0.259 C 
ATOM      8  O   UNL     1       7.158  -0.240   1.030  0.00  0.00    -0.269 OA
ATOM      9  C   UNL     1       6.642   1.738  -0.181  0.00  0.00    +0.111 C 
ATOM     10  N   UNL     1       7.065   2.806   0.429  0.00  0.00    -0.239 NA
ATOM     11  C   UNL     1       6.478   3.825  -0.255  0.00  0.00    +0.104 C 
ATOM     12 BR   UNL     1       7.012   5.554   0.086  0.00  0.00    -0.029 Br
ATOM     13  C   UNL     1       5.676   3.417  -1.246  0.00  0.00    +0.019 C 
ENDROOT
BRANCH   2  14
ATOM     14  C   UNL     1       4.994   1.409  -3.686  0.00  0.00    +0.203 C 
ATOM     15  C   UNL     1       5.004   0.504  -4.878  0.00  0.00    +0.371 C 
ATOM     16  O   UNL     1       5.782  -0.426  -4.997  0.00  0.00    -0.245 OA
ATOM     17  N   UNL     1       4.025   0.927  -5.722  0.00  0.00    +0.004 NA
ATOM     18  C   UNL     1       3.505   1.944  -5.095  0.00  0.00    +0.410 C 
ATOM     19  N   UNL     1       2.456   2.623  -5.601  0.00  0.00    -0.249 N 
ATOM     20  H   UNL     1       2.279   2.454  -6.586  0.00  0.00    +0.241 HD
ATOM     21  H   UNL     1       2.358   3.582  -5.300  0.00  0.00    +0.241 HD
ATOM     22  N   UNL     1       4.063   2.293  -3.874  0.00  0.00    -0.071 NA
ENDBRANCH   2  14
TORSDOF 1
