REMARK  Name = 
REMARK  8 active torsions:
REMARK  status: ('A' for Active; 'I' for Inactive)
REMARK    1  A    between atoms: C_1  and  O_2
REMARK    2  A    between atoms: O_2  and  C_3
REMARK    3  A    between atoms: C_5  and  C_6
REMARK    4  A    between atoms: C_6  and  N_7
REMARK    5  A    between atoms: N_7  and  C_8
REMARK    6  A    between atoms: N_7  and  C_9
REMARK    7  A    between atoms: C_21  and  O_22
REMARK    8  A    between atoms: O_22  and  C_23
REMARK                            x       y       z     vdW  Elec       q    Type
REMARK                         _______ _______ _______ _____ _____    ______ ____
ROOT
ATOM      1  C   UNL     1       7.397   1.005   3.928  0.00  0.00    +0.049 A 
ATOM      2  C   UNL     1       8.538   0.371   4.407  0.00  0.00    +0.136 A 
ATOM      3  N   UNL     1       9.550   0.973   5.090  0.00  0.00    -0.234 NA
ATOM      4  C   UNL     1       9.474   2.282   5.358  0.00  0.00    +0.167 A 
ATOM      5  N   UNL     1      10.465   2.849   6.035  0.00  0.00    -0.195 NA
ATOM      6  C   UNL     1      10.370   4.147   6.307  0.00  0.00    +0.216 A 
ATOM      7  N   UNL     1       9.377   4.946   5.923  0.00  0.00    -0.199 NA
ATOM      8  C   UNL     1       8.381   4.370   5.252  0.00  0.00    +0.131 A 
ATOM      9  N   UNL     1       7.360   5.235   4.836  0.00  0.00    -0.342 N 
ATOM     10  H   UNL     1       6.445   4.903   5.121  0.00  0.00    +0.144 HD
ATOM     11  H   UNL     1       7.565   6.152   5.227  0.00  0.00    +0.144 HD
ATOM     12  N   UNL     1      11.397   4.737   7.014  0.00  0.00    -0.327 N 
ATOM     13  H   UNL     1      11.428   5.726   6.816  0.00  0.00    +0.145 HD
ATOM     14  H   UNL     1      12.254   4.208   6.882  0.00  0.00    +0.145 HD
ATOM     15  C   UNL     1       8.375   3.012   4.935  0.00  0.00    +0.061 A 
ATOM     16  C   UNL     1       7.343   2.364   4.224  0.00  0.00    +0.039 A 
ENDROOT
BRANCH   1  17
ATOM     17  N   UNL     1       6.380   0.396   3.211  0.00  0.00    -0.327 N 
ATOM     18  C   UNL     1       5.774   1.167   2.126  0.00  0.00    +0.129 C 
BRANCH  17  19
ATOM     19  C   UNL     1       6.090  -1.047   3.270  0.00  0.00    +0.143 C 
BRANCH  19  24
ATOM     20  C   UNL     1       3.937  -1.025   6.475  0.00  0.00    +0.121 A 
ATOM     21  C   UNL     1       3.561  -2.362   6.546  0.00  0.00    +0.049 A 
ATOM     22  C   UNL     1       4.032  -3.271   5.596  0.00  0.00    +0.049 A 
ATOM     23  C   UNL     1       4.870  -2.852   4.558  0.00  0.00    +0.125 A 
ATOM     24  C   UNL     1       5.261  -1.497   4.467  0.00  0.00    +0.015 A 
ATOM     25  C   UNL     1       4.802  -0.608   5.456  0.00  0.00    +0.054 A 
BRANCH  20  27
ATOM     26  C   UNL     1       2.440  -0.364   8.196  0.00  0.00    +0.277 C 
ATOM     27  O   UNL     1       3.517  -0.037   7.324  0.00  0.00    -0.495 OA
ENDBRANCH  20  27
BRANCH  23  28
ATOM     28  O   UNL     1       5.345  -3.685   3.573  0.00  0.00    -0.495 OA
ATOM     29  C   UNL     1       4.955  -5.054   3.639  0.00  0.00    +0.277 C 
ENDBRANCH  23  28
ENDBRANCH  19  24
ENDBRANCH  17  19
ENDBRANCH   1  17
TORSDOF 5
