REMARK  Name = 
REMARK  13 active torsions:
REMARK  status: ('A' for Active; 'I' for Inactive)
REMARK    1  A    between atoms: C_1  and  N_2
REMARK    2  A    between atoms: N_2  and  C_3
REMARK    3  A    between atoms: N_2  and  C_4
REMARK    4  A    between atoms: N_2  and  C_5
REMARK    5  A    between atoms: C_8  and  C_9
REMARK    6  A    between atoms: C_9  and  N_10
REMARK    7  A    between atoms: C_11  and  C_13
REMARK    8  A    between atoms: C_19  and  O_20
REMARK    9  A    between atoms: O_20  and  C_21
REMARK   10  A    between atoms: C_21  and  C_22
REMARK   11  A    between atoms: N_29  and  C_30
REMARK   12  A    between atoms: C_30  and  C_31
REMARK   13  A    between atoms: C_35  and  C_37
REMARK                            x       y       z     vdW  Elec       q    Type
REMARK                         _______ _______ _______ _____ _____    ______ ____
ROOT
ATOM      1  C   UNL     1       5.800   2.310  -7.551  0.00  0.00    +0.106 A 
ATOM      2  N   UNL     1       5.686   0.929  -7.706  0.00  0.00    -0.332 N 
ATOM      3  C   UNL     1       6.308   0.530  -8.886  0.00  0.00    +0.050 A 
ATOM      4  C   UNL     1       6.373  -0.706  -9.553  0.00  0.00    +0.030 A 
ATOM      5  C   UNL     1       7.192  -0.801 -10.691  0.00  0.00    +0.048 A 
ATOM      6  C   UNL     1       7.928   0.290 -11.148  0.00  0.00    +0.122 A 
ATOM      7  C   UNL     1       7.781   1.530 -10.531  0.00  0.00    +0.055 A 
ATOM      8  C   UNL     1       6.974   1.644  -9.387  0.00  0.00    +0.004 A 
ATOM      9  C   UNL     1       6.655   2.736  -8.557  0.00  0.00    +0.041 A 
ENDROOT
BRANCH   1  12
ATOM     10  N   UNL     1       5.383   4.481  -6.664  0.00  0.00    -0.306 N 
ATOM     11  H   UNL     1       5.759   4.824  -7.535  0.00  0.00    +0.149 HD
ATOM     12  C   UNL     1       5.182   3.120  -6.515  0.00  0.00    +0.261 C 
ATOM     13  O   UNL     1       4.552   2.666  -5.566  0.00  0.00    -0.269 OA
BRANCH  10  14
ATOM     14  C   UNL     1       4.861   5.458  -5.748  0.00  0.00    +0.140 C 
BRANCH  14  18
ATOM     15  C   UNL     1       6.593   5.888  -1.854  0.00  0.00    +0.145 A 
ATOM     16  C   UNL     1       6.919   4.766  -2.615  0.00  0.00    +0.072 A 
ATOM     17  C   UNL     1       6.472   4.664  -3.931  0.00  0.00    +0.011 A 
ATOM     18  C   UNL     1       5.711   5.683  -4.515  0.00  0.00    -0.030 A 
ATOM     19  C   UNL     1       5.591   6.894  -3.824  0.00  0.00    +0.011 A 
ATOM     20  C   UNL     1       6.056   7.005  -2.511  0.00  0.00    +0.072 A 
BRANCH  15  22
ATOM     21  C   UNL     1       6.712   4.414   0.192  0.00  0.00    +0.360 C 
ATOM     22  N   UNL     1       6.633   5.854  -0.339  0.00  0.00    -0.383 NA
ATOM     23  C   UNL     1       5.307   6.422   0.184  0.00  0.00    +0.360 C 
ATOM     24  C   UNL     1       7.832   6.638   0.145  0.00  0.00    +0.360 C 
ENDBRANCH  15  22
ENDBRANCH  14  18
ENDBRANCH  10  14
ENDBRANCH   1  12
BRANCH   2  25
ATOM     25  C   UNL     1       5.012   0.012  -6.779  0.00  0.00    +0.157 C 
BRANCH  25  26
ATOM     26  C   UNL     1       5.918  -0.436  -5.645  0.00  0.00    -0.027 A 
ATOM     27  C   UNL     1       5.664  -0.039  -4.318  0.00  0.00    +0.021 A 
ATOM     28  C   UNL     1       6.515  -0.430  -3.272  0.00  0.00    +0.065 A 
ATOM     29  C   UNL     1       7.595  -1.276  -3.541  0.00  0.00    +0.016 A 
ATOM     30  C   UNL     1       7.838  -1.705  -4.847  0.00  0.00    +0.001 A 
ATOM     31  C   UNL     1       7.011  -1.283  -5.889  0.00  0.00    +0.005 A 
BRANCH  28  32
ATOM     32  C   UNL     1       6.314   0.076  -1.877  0.00  0.00    +0.308 C 
ATOM     33  N   UNL     1       5.748   1.216  -1.614  0.00  0.00    -0.099 NA
ATOM     34  H   UNL     1       5.458   1.673  -2.487  0.00  0.00    +0.363 HD
ATOM     35  N   UNL     1       6.749  -0.653  -0.808  0.00  0.00    -0.247 N 
ATOM     36  H   UNL     1       6.324  -0.341   0.059  0.00  0.00    +0.288 HD
ATOM     37  H   UNL     1       6.710  -1.662  -0.908  0.00  0.00    +0.288 HD
ENDBRANCH  28  32
ENDBRANCH  25  26
ENDBRANCH   2  25
BRANCH   6  38
ATOM     38  O   UNL     1       8.768   0.055 -12.206  0.00  0.00    -0.487 OA
BRANCH  38  39
ATOM     39  C   UNL     1       9.871   0.965 -12.308  0.00  0.00    +0.264 C 
BRANCH  39  40
ATOM     40  C   UNL     1      10.977   0.343 -13.120  0.00  0.00    -0.010 A 
ATOM     41  C   UNL     1      11.499  -0.907 -12.756  0.00  0.00    +0.007 A 
ATOM     42  C   UNL     1      12.541  -1.479 -13.485  0.00  0.00    +0.000 A 
ATOM     43  C   UNL     1      13.079  -0.804 -14.579  0.00  0.00    +0.000 A 
ATOM     44  C   UNL     1      12.582   0.449 -14.938  0.00  0.00    +0.000 A 
ATOM     45  C   UNL     1      11.539   1.023 -14.209  0.00  0.00    +0.007 A 
ENDBRANCH  39  40
ENDBRANCH  38  39
ENDBRANCH   6  38
TORSDOF 10
