REMARK  Name = 
REMARK  5 active torsions:
REMARK  status: ('A' for Active; 'I' for Inactive)
REMARK    1  A    between atoms: C_5  and  C_7
REMARK    2  A    between atoms: C_7  and  C_8
REMARK    3  A    between atoms: C_8  and  C_9
REMARK    4  A    between atoms: C_9  and  C_10
REMARK    5  A    between atoms: C_10  and  O_11
REMARK                            x       y       z     vdW  Elec       q    Type
REMARK                         _______ _______ _______ _____ _____    ______ ____
ROOT
ATOM      1  C   UNL     1       1.957   0.041   0.085  0.00  0.00    +0.105 C 
ATOM      2  N   UNL     1       2.318  -0.577   1.339  0.00  0.00    -0.294 N 
ATOM      3  H   UNL     1       2.060  -0.251   2.262  0.00  0.00    +0.151 HD
ATOM      4  C   UNL     1       2.423  -1.951   1.142  0.00  0.00    +0.300 C 
ATOM      5  O   UNL     1       2.483  -2.801   2.008  0.00  0.00    -0.253 OA
ATOM      6  N   UNL     1       2.447  -2.171  -0.228  0.00  0.00    -0.294 N 
ATOM      7  H   UNL     1       2.544  -3.104  -0.609  0.00  0.00    +0.151 HD
ATOM      8  C   UNL     1       2.576  -0.920  -0.934  0.00  0.00    +0.108 C 
ATOM      9  C   UNL     1       4.037  -0.476  -1.212  0.00  0.00    +0.069 C 
ATOM     10  S   UNL     1       4.096   1.328  -0.874  0.00  0.00    -0.154 S 
ATOM     11  C   UNL     1       2.441   1.452  -0.160  0.00  0.00    +0.093 C 
ENDROOT
BRANCH   9  12
ATOM     12  C   UNL     1       5.196  -1.132  -0.429  0.00  0.00    +0.016 C 
BRANCH  12  13
ATOM     13  C   UNL     1       5.453  -2.628  -0.677  0.00  0.00    +0.012 C 
BRANCH  13  14
ATOM     14  C   UNL     1       5.667  -2.986  -2.142  0.00  0.00    +0.120 C 
BRANCH  14  15
ATOM     15  C   UNL     1       5.653  -4.476  -2.370  0.00  0.00    +0.305 C 
ATOM     16  O   UNL     1       4.825  -5.039  -3.073  0.00  0.00    -0.251 OA
BRANCH  15  17
ATOM     17  O   UNL     1       6.642  -5.139  -1.741  0.00  0.00    -0.481 OA
ATOM     18  H   UNL     1       7.235  -4.576  -1.213  0.00  0.00    +0.295 HD
ENDBRANCH  15  17
ENDBRANCH  14  15
ENDBRANCH  13  14
ENDBRANCH  12  13
ENDBRANCH   9  12
TORSDOF 5
