REMARK  Name = 
REMARK  6 active torsions:
REMARK  status: ('A' for Active; 'I' for Inactive)
REMARK    1  A    between atoms: C_2  and  C_3
REMARK    2  A    between atoms: C_2  and  O_4
REMARK    3  A    between atoms: C_2  and  C_5
REMARK    4  A    between atoms: CA_7  and  C_17
REMARK    5  A    between atoms: C_14  and  O_16
REMARK    6  A    between atoms: C_17  and  O_18
REMARK                            x       y       z     vdW  Elec       q    Type
REMARK                         _______ _______ _______ _____ _____    ______ ____
ROOT
ATOM      1  C   UNL     1       2.410   1.046  -0.887  0.00  0.00    -0.008 A 
ATOM      2  C   UNL     1       3.093   0.763  -2.096  0.00  0.00    +0.004 A 
ATOM      3  C   UNL     1       3.517  -0.592  -2.465  0.00  0.00    +0.006 C 
ATOM      4  C   UNL     1       4.135  -0.855  -3.623  0.00  0.00    -0.023 C 
ATOM      5  C   UNL     1       4.443   0.176  -4.662  0.00  0.00    +0.065 C 
ATOM      6  C   UNL     1       4.095   1.625  -4.291  0.00  0.00    +0.167 C 
ATOM      7  C   UNL     1       3.380   1.836  -2.963  0.00  0.00    +0.078 A 
ATOM      8  N   UNL     1       3.043   3.131  -2.691  0.00  0.00    -0.242 NA
ATOM      9  CA  UNL     1       2.383   3.364  -1.524  0.00  0.00    +0.148 A 
ATOM     10  C   UNL     1       2.046   2.378  -0.619  0.00  0.00    +0.041 A 
ENDROOT
BRANCH   1  11
ATOM     11  C   UNL     1       2.005  -0.016   0.122  0.00  0.00    +0.142 C 
ATOM     12  C   UNL     1       0.605  -0.551  -0.166  0.00  0.00    +0.043 C 
BRANCH  11  13
ATOM     13  O   UNL     1       2.023   0.546   1.436  0.00  0.00    -0.387 OA
ATOM     14  H   UNL     1       1.736  -0.145   2.056  0.00  0.00    +0.210 HD
ENDBRANCH  11  13
ENDBRANCH   1  11
BRANCH   6  15
ATOM     15  O   UNL     1       5.309   2.394  -4.327  0.00  0.00    -0.385 OA
ATOM     16  H   UNL     1       5.709   2.338  -3.442  0.00  0.00    +0.210 HD
ENDBRANCH   6  15
BRANCH   9  17
ATOM     17  C   UNL     1       2.018   4.788  -1.264  0.00  0.00    +0.355 C 
ATOM     18  OXT UNL     1       1.407   5.194  -0.295  0.00  0.00    -0.243 OA
BRANCH  17  19
ATOM     19  O   UNL     1       2.464   5.574  -2.276  0.00  0.00    -0.476 OA
ATOM     20  H   UNL     1       2.926   5.005  -2.938  0.00  0.00    +0.295 HD
ENDBRANCH  17  19
ENDBRANCH   9  17
TORSDOF 5
