REMARK  Name = 
REMARK  5 active torsions:
REMARK  status: ('A' for Active; 'I' for Inactive)
REMARK    1  A    between atoms: O_1  and  P_2
REMARK    2  A    between atoms: P_2  and  O_3
REMARK    3  A    between atoms: P_2  and  O_5
REMARK    4  A    between atoms: O_5  and  C_6
REMARK    5  A    between atoms: C_13  and  C_16
REMARK                            x       y       z     vdW  Elec       q    Type
REMARK                         _______ _______ _______ _____ _____    ______ ____
ROOT
ATOM      1  C   UNL     1       5.160  -0.671  -0.851  0.00  0.00    +0.158 A 
ATOM      2  C   UNL     1       6.013  -0.323  -1.892  0.00  0.00    +0.114 A 
ATOM      3  C   UNL     1       6.561  -1.369  -2.676  0.00  0.00    +0.004 A 
ATOM      4  C   UNL     1       7.474  -1.033  -3.685  0.00  0.00    +0.013 A 
ATOM      5  C   UNL     1       7.833   0.297  -3.881  0.00  0.00    +0.039 A 
ATOM      6  C   UNL     1       7.245   1.251  -3.073  0.00  0.00    +0.141 A 
ATOM      7  C   UNL     1       6.216  -2.709  -2.419  0.00  0.00    +0.010 A 
ATOM      8  C   UNL     1       5.345  -3.020  -1.376  0.00  0.00    +0.004 A 
ATOM      9  N   UNL     1       6.328   0.965  -2.118  0.00  0.00    -0.233 NA
ATOM     10  C   UNL     1       4.827  -2.003  -0.583  0.00  0.00    +0.048 A 
ENDROOT
BRANCH   6  11
ATOM     11  C   UNL     1       7.577   2.642  -3.196  0.00  0.00    +0.119 C 
ATOM     12  N   UNL     1       7.835   3.768  -3.306  0.00  0.00    -0.189 NA
ENDBRANCH   6  11
BRANCH   1  13
ATOM     13  O   UNL     1       4.699   0.262   0.041  0.00  0.00    -0.402 OA
BRANCH  13  14
ATOM     14  P   UNL     1       3.784   1.505  -0.387  0.00  0.00    +0.528 P 
ATOM     15  O   UNL     1       2.664   1.238  -1.334  0.00  0.00    -0.216 OA
BRANCH  14  16
ATOM     16  O   UNL     1       4.695   2.740  -0.828  0.00  0.00    -0.293 OA
ATOM     17  H   UNL     1       4.835   2.742  -1.794  0.00  0.00    +0.223 HD
ENDBRANCH  14  16
BRANCH  14  18
ATOM     18  O   UNL     1       3.228   2.051   1.012  0.00  0.00    -0.293 OA
ATOM     19  H   UNL     1       2.402   2.545   0.871  0.00  0.00    +0.223 HD
ENDBRANCH  14  18
ENDBRANCH  13  14
ENDBRANCH   1  13
TORSDOF 5
