REMARK  Name = 
REMARK  13 active torsions:
REMARK  status: ('A' for Active; 'I' for Inactive)
REMARK    1  A    between atoms: C_1  and  C_2
REMARK    2  A    between atoms: N_4  and  C_5
REMARK    3  A    between atoms: C_5  and  C_7
REMARK    4  A    between atoms: C_5  and  B_18
REMARK    5  A    between atoms: C_7  and  C_8
REMARK    6  A    between atoms: B_18  and  O_19
REMARK    7  A    between atoms: B_18  and  O_20
REMARK    8  A    between atoms: B_18  and  O_21
REMARK    9  A    between atoms: O_21  and  C_22
REMARK   10  A    between atoms: C_22  and  C_23
REMARK   11  A    between atoms: C_23  and  N_25
REMARK   12  A    between atoms: C_23  and  C_26
REMARK   13  A    between atoms: C_26  and  O_27
REMARK                            x       y       z     vdW  Elec       q    Type
REMARK                         _______ _______ _______ _____ _____    ______ ____
ROOT
ATOM      1  C   UNK     1      12.714   0.046  -3.385  0.00  0.00    +0.000 C 
ENDROOT
BRANCH   1   4
ATOM      2  C   UNK     1      14.000  -3.570  -3.943  0.00  0.00    +0.000 C 
ATOM      3  C   UNK     1      13.490  -2.362  -3.210  0.00  0.00    +0.000 C 
ATOM      4  N   UNK     1      13.199  -1.230  -3.913  0.00  0.00    +0.000 N 
ATOM      5  H   UNK     1      13.322  -1.269  -4.937  0.00  0.00    +0.000 HD
ATOM      6  O   UNK     1      13.345  -2.419  -2.001  0.00  0.00    +0.000 OA
ENDBRANCH   1   4
BRANCH   1   7
ATOM      7  B   UNK     1      11.094   0.128  -3.578  0.00  0.00    +0.000 B 
BRANCH   7   8
ATOM      8  O   UNK     1      10.423  -0.792  -2.623  0.00  0.00    +0.000 OA
ATOM      9  H   UNK     1      10.703  -1.715  -2.851  0.00  0.00    +0.000 HD
ENDBRANCH   7   8
BRANCH   7  10
ATOM     10  O   UNK     1      10.738  -0.224  -4.976  0.00  0.00    +0.000 OA
ATOM     11  H   UNK     1      10.846  -1.204  -5.077  0.00  0.00    +0.000 HD
ENDBRANCH   7  10
BRANCH   7  12
ATOM     12  O   UNK     1      10.666   1.531  -3.302  0.00  0.00    +0.000 OA
BRANCH  12  13
ATOM     13  C   UNK     1       9.269   1.695  -3.447  0.00  0.00    +0.000 C 
BRANCH  13  14
ATOM     14  C   UNK     1       8.887   3.151  -3.141  0.00  0.00    +0.000 C 
BRANCH  14  15
ATOM     15  N   UNK     1       9.591   4.059  -4.047  0.00  0.00    +0.000 NA
ATOM     16  H   UNK     1       9.330   3.834  -5.035  0.00  0.00    +0.000 HD
ATOM     17  H   UNK     1       9.281   5.040  -3.858  0.00  0.00    +0.000 HD
ENDBRANCH  14  15
BRANCH  14  18
ATOM     18  C   UNK     1       9.213   3.504  -1.705  0.00  0.00    +0.000 C 
ATOM     19  O   UNK     1      10.368   3.465  -1.311  0.00  0.00    +0.000 OA
BRANCH  18  20
ATOM     20  O   UNK     1       8.239   3.875  -0.846  0.00  0.00    +0.000 OA
ATOM     21  H   UNK     1       7.311   3.924  -1.114  0.00  0.00    +0.000 HD
ENDBRANCH  18  20
ENDBRANCH  14  18
ENDBRANCH  13  14
ENDBRANCH  12  13
ENDBRANCH   7  12
ENDBRANCH   1   7
BRANCH   1  22
ATOM     22  C   UNK     1      13.153   0.414  -1.934  0.00  0.00    +0.000 C 
BRANCH  22  23
ATOM     23  C   UNK     1      14.649   0.399  -1.602  0.00  0.00    +0.000 A 
ATOM     24  C   UNK     1      15.100   0.738  -0.288  0.00  0.00    +0.000 A 
ATOM     25  C   UNK     1      14.214   1.152   0.734  0.00  0.00    +0.000 A 
ATOM     26  C   UNK     1      14.693   1.482   2.005  0.00  0.00    +0.000 A 
ATOM     27  C   UNK     1      16.055   1.396   2.291  0.00  0.00    +0.000 A 
ATOM     28  C   UNK     1      16.949   0.986   1.304  0.00  0.00    +0.000 A 
ATOM     29  C   UNK     1      16.489   0.664   0.018  0.00  0.00    +0.000 A 
ATOM     30  C   UNK     1      17.404   0.271  -0.962  0.00  0.00    +0.000 A 
ATOM     31  C   UNK     1      16.969  -0.029  -2.245  0.00  0.00    +0.000 A 
ATOM     32  C   UNK     1      15.616   0.039  -2.566  0.00  0.00    +0.000 A 
ENDBRANCH  22  23
ENDBRANCH   1  22
TORSDOF 12
