REMARK  Name = 
REMARK  14 active torsions:
REMARK  status: ('A' for Active; 'I' for Inactive)
REMARK    1  A    between atoms: N_10  and  C_11
REMARK    2  A    between atoms: C_13  and  C_14
REMARK    3  A    between atoms: C_14  and  O_15
REMARK    4  A    between atoms: O_15  and  P_16
REMARK    5  A    between atoms: P_16  and  O_17
REMARK    6  A    between atoms: P_16  and  O_19
REMARK    7  A    between atoms: O_19  and  P_20
REMARK    8  A    between atoms: P_20  and  O_21
REMARK    9  A    between atoms: P_20  and  O_23
REMARK   10  A    between atoms: O_23  and  P_24
REMARK   11  A    between atoms: P_24  and  O_25
REMARK   12  A    between atoms: P_24  and  O_26
REMARK   13  A    between atoms: C_33  and  N_44
REMARK   14  A    between atoms: C_37  and  N_38
REMARK                            x       y       z     vdW  Elec       q    Type
REMARK                         _______ _______ _______ _____ _____    ______ ____
ROOT
ATOM      1  C   UNL     1       6.743  -2.034  -0.781  0.00  0.00    +0.254 C 
ATOM      2  C   UNL     1       7.695  -0.841  -1.062  0.00  0.00    +0.204 C 
ATOM      3  C   UNL     1       8.918  -1.100  -0.205  0.00  0.00    +0.187 C 
ATOM      4  O   UNL     1       8.864  -0.161   0.889  0.00  0.00    -0.323 OA
ATOM      5  C   UNL     1       7.785   0.725   0.649  0.00  0.00    +0.358 C 
ATOM      6  C   UNL     1       6.625   0.601   1.607  0.00  0.00    +0.322 C 
ATOM      7  C   UNL     1       5.661   1.525   1.745  0.00  0.00    +0.114 C 
ATOM      8  C   UNL     1       5.901   2.824   1.070  0.00  0.00    +0.088 C 
ATOM      9  N   UNL     1       4.809   3.769   0.852  0.00  0.00    -0.186 N 
ATOM     10  O   UNL     1       5.106   4.834   0.305  0.00  0.00    -0.173 OA
ATOM     11  O   UNL     1       3.689   3.416   1.230  0.00  0.00    -0.777 OA
ATOM     12  C   UNL     1       7.303   3.198   0.742  0.00  0.00    +0.114 C 
ATOM     13  C   UNL     1       8.169   2.178   0.596  0.00  0.00    +0.322 C 
ATOM     14  C   UNL     1       8.716  -2.517   0.308  0.00  0.00    +0.178 C 
ATOM     15  O   UNL     1       7.244   0.440  -0.653  0.00  0.00    -0.322 OA
ATOM     16  O   UNL     1       7.292  -2.669   0.397  0.00  0.00    -0.346 OA
ENDROOT
BRANCH   1  24
ATOM     17  N   UNL     1       0.964  -0.351  -0.317  0.00  0.00    -0.341 N 
ATOM     18  H   UNL     1       0.700  -1.266   0.029  0.00  0.00    +0.144 HD
ATOM     19  H   UNL     1       0.282   0.184  -0.835  0.00  0.00    +0.144 HD
ATOM     20  C   UNL     1       2.235  -0.283  -0.870  0.00  0.00    +0.147 A 
ATOM     21  C   UNL     1       3.260  -1.193  -0.553  0.00  0.00    +0.147 A 
ATOM     22  N   UNL     1       3.292  -2.321   0.220  0.00  0.00    -0.231 NA
ATOM     23  C   UNL     1       4.549  -2.720   0.176  0.00  0.00    +0.203 A 
ATOM     24  N   UNL     1       5.333  -1.865  -0.561  0.00  0.00    -0.286 N 
ATOM     25  C   UNL     1       4.504  -0.937  -1.118  0.00  0.00    +0.167 A 
ATOM     26  N   UNL     1       4.818   0.027  -1.993  0.00  0.00    -0.216 NA
ATOM     27  C   UNL     1       3.747   0.798  -2.264  0.00  0.00    +0.225 A 
ATOM     28  N   UNL     1       2.502   0.711  -1.744  0.00  0.00    -0.219 NA
ENDBRANCH   1  24
BRANCH   6  29
ATOM     29  N   UNL     1       6.540  -0.551   2.469  0.00  0.00    +0.081 N 
ATOM     30  O   UNL     1       7.580  -0.953   2.999  0.00  0.00    +0.041 OA
ATOM     31  O   UNL     1       5.416  -1.015   2.685  0.00  0.00    -0.576 OA
ENDBRANCH   6  29
BRANCH  13  32
ATOM     32  N   UNL     1       9.542   2.520   0.350  0.00  0.00    +0.081 N 
ATOM     33  O   UNL     1      10.175   1.841  -0.465  0.00  0.00    +0.041 OA
ATOM     34  O   UNL     1       9.996   3.505   0.954  0.00  0.00    -0.576 OA
ENDBRANCH  13  32
BRANCH  14  35
ATOM     35  C   UNL     1       9.219  -3.577  -0.654  0.00  0.00    +0.206 C 
BRANCH  35  36
ATOM     36  O   UNL     1      10.603  -3.414  -0.866  0.00  0.00    -0.284 OA
BRANCH  36  37
ATOM     37  P   UNL     1      11.284  -4.437  -2.084  0.00  0.00    +0.483 P 
ATOM     38  O   UNL     1      10.347  -3.846  -3.138  0.00  0.00    -0.227 OA
BRANCH  37  39
ATOM     39  O   UNL     1      10.593  -5.754  -1.413  0.00  0.00    -0.302 OA
ATOM     40  H   UNL     1      11.191  -6.293  -0.860  0.00  0.00    +0.222 HD
ENDBRANCH  37  39
BRANCH  37  41
ATOM     41  O   UNL     1      11.965  -5.460  -3.301  0.00  0.00    -0.186 OA
BRANCH  41  42
ATOM     42  P   UNL     1      13.315  -6.599  -3.087  0.00  0.00    +0.492 P 
ATOM     43  O   UNL     1      13.454  -7.308  -4.406  0.00  0.00    -0.226 OA
BRANCH  42  44
ATOM     44  O   UNL     1      12.620  -7.641  -2.067  0.00  0.00    -0.302 OA
ATOM     45  H   UNL     1      12.515  -8.496  -2.543  0.00  0.00    +0.222 HD
ENDBRANCH  42  44
BRANCH  42  46
ATOM     46  O   UNL     1      15.082  -6.558  -2.275  0.00  0.00    -0.186 OA
BRANCH  46  47
ATOM     47  P   UNL     1      15.959  -7.161  -3.639  0.00  0.00    +0.481 P 
ATOM     48  O   UNL     1      16.744  -7.701  -4.860  0.00  0.00    -0.227 OA
BRANCH  47  49
ATOM     49  O   UNL     1      15.954  -8.598  -2.851  0.00  0.00    -0.302 OA
ATOM     50  H   UNL     1      16.891  -8.871  -2.796  0.00  0.00    +0.222 HD
ENDBRANCH  47  49
BRANCH  47  51
ATOM     51  O   UNL     1      17.282  -6.611  -2.836  0.00  0.00    -0.302 OA
ATOM     52  H   UNL     1      17.431  -5.658  -2.957  0.00  0.00    +0.222 HD
ENDBRANCH  47  51
ENDBRANCH  46  47
ENDBRANCH  42  46
ENDBRANCH  41  42
ENDBRANCH  37  41
ENDBRANCH  36  37
ENDBRANCH  35  36
ENDBRANCH  14  35
TORSDOF 14
