REMARK  Name = 
REMARK  3 active torsions:
REMARK  status: ('A' for Active; 'I' for Inactive)
REMARK    1  A    between atoms: O_1  and  C_2
REMARK    2  A    between atoms: C_10  and  O_12
REMARK    3  A    between atoms: C_13  and  O_15
REMARK                            x       y       z     vdW  Elec       q    Type
REMARK                         _______ _______ _______ _____ _____    ______ ____
ROOT
ATOM      1  C   UNL     1       2.402   0.007  -0.044  0.00  0.00    +0.166 C 
ATOM      2  C   UNL     1       2.885   1.221  -0.860  0.00  0.00    +0.180 C 
ATOM      3  C   UNL     1       4.413   1.368  -0.787  0.00  0.00    +0.211 C 
ATOM      4  C   UNL     1       5.124   0.068  -0.941  0.00  0.00    +0.141 A 
ATOM      5  N   UNL     1       4.492  -1.131  -0.765  0.00  0.00    -0.330 N 
ATOM      6  C   UNL     1       5.407  -2.126  -0.935  0.00  0.00    +0.107 A 
ATOM      7  C   UNL     1       6.583  -1.471  -1.222  0.00  0.00    +0.130 A 
ATOM      8  N   UNL     1       6.397  -0.111  -1.232  0.00  0.00    -0.238 NA
ATOM      9  C   UNL     1       3.074  -1.281  -0.527  0.00  0.00    +0.157 C 
ENDROOT
BRANCH   1  10
ATOM     10  O   UNL     1       0.986  -0.161  -0.204  0.00  0.00    -0.387 OA
ATOM     11  H   UNL     1       0.608  -0.342   0.674  0.00  0.00    +0.210 HD
ENDBRANCH   1  10
BRANCH   2  12
ATOM     12  O   UNL     1       2.285   2.423  -0.341  0.00  0.00    -0.386 OA
ATOM     13  H   UNL     1       2.637   3.150  -0.892  0.00  0.00    +0.210 HD
ENDBRANCH   2  12
BRANCH   3  14
ATOM     14  O   UNL     1       4.846   2.230  -1.845  0.00  0.00    -0.381 OA
ATOM     15  H   UNL     1       5.750   1.928  -2.073  0.00  0.00    +0.210 HD
ENDBRANCH   3  14
TORSDOF 3
