REMARK  Name = 
REMARK  5 active torsions:
REMARK  status: ('A' for Active; 'I' for Inactive)
REMARK    1  A    between atoms: C_1  and  C_2
REMARK    2  A    between atoms: C_5  and  O_7
REMARK    3  A    between atoms: C_8  and  O_10
REMARK    4  A    between atoms: C_11  and  O_13
REMARK    5  A    between atoms: C_14  and  N_16
REMARK                            x       y       z     vdW  Elec       q    Type
REMARK                         _______ _______ _______ _____ _____    ______ ____
ROOT
ATOM      1  C   UNL     1       3.142   0.234   1.393  0.00  0.00    +0.039 C 
ATOM      2  C   UNL     1       2.623   0.014  -0.023  0.00  0.00    +0.138 C 
ATOM      3  C   UNL     1       3.105   1.108  -1.006  0.00  0.00    +0.111 C 
ATOM      4  C   UNL     1       2.641   0.761  -2.432  0.00  0.00    +0.167 C 
ATOM      5  C   UNL     1       3.031  -0.668  -2.810  0.00  0.00    +0.200 C 
ATOM      6  C   UNL     1       2.567  -1.637  -1.716  0.00  0.00    +0.279 C 
ATOM      7  O   UNL     1       3.080  -1.281  -0.447  0.00  0.00    -0.344 OA
ENDROOT
BRANCH   3   8
ATOM      8  N   UNL     1       2.639   2.461  -0.638  0.00  0.00    -0.323 NA
ATOM      9  H   UNL     1       2.992   3.094  -1.366  0.00  0.00    +0.119 HD
ATOM     10  H   UNL     1       1.626   2.514  -0.736  0.00  0.00    +0.119 HD
ENDBRANCH   3   8
BRANCH   4  11
ATOM     11  O   UNL     1       3.199   1.690  -3.374  0.00  0.00    -0.387 OA
ATOM     12  H   UNL     1       3.060   1.281  -4.252  0.00  0.00    +0.210 HD
ENDBRANCH   4  11
BRANCH   5  13
ATOM     13  O   UNL     1       2.414  -0.980  -4.075  0.00  0.00    -0.384 OA
ATOM     14  H   UNL     1       2.440  -1.956  -4.140  0.00  0.00    +0.210 HD
ENDBRANCH   5  13
BRANCH   6  15
ATOM     15  O   UNL     1       3.045  -2.932  -2.046  0.00  0.00    -0.365 OA
ATOM     16  H   UNL     1       2.905  -3.450  -1.234  0.00  0.00    +0.213 HD
ENDBRANCH   6  15
TORSDOF 4
