REMARK  Name = 
REMARK  7 active torsions:
REMARK  status: ('A' for Active; 'I' for Inactive)
REMARK    1  A    between atoms: C_1  and  S_2
REMARK    2  A    between atoms: S_2  and  C_3
REMARK    3  A    between atoms: C_3  and  C_4
REMARK    4  A    between atoms: C_7  and  C_15
REMARK    5  A    between atoms: C_9  and  O_11
REMARK    6  A    between atoms: C_12  and  O_14
REMARK    7  A    between atoms: C_23  and  N_25
REMARK                            x       y       z     vdW  Elec       q    Type
REMARK                         _______ _______ _______ _____ _____    ______ ____
ROOT
ATOM      1  C   UNL     1       7.311   0.733   4.005  0.00  0.00    +0.015 A 
ATOM      2  C   UNL     1       8.569   0.554   4.623  0.00  0.00    +0.094 A 
ATOM      3  N   UNL     1       9.563  -0.340   4.235  0.00  0.00    -0.238 NA
ATOM      4  C   UNL     1      10.653  -0.210   4.921  0.00  0.00    +0.183 C 
ATOM      5  N   UNL     1      10.887   0.663   6.026  0.00  0.00    -0.315 N 
ATOM      6  H   UNL     1      11.810   0.739   6.417  0.00  0.00    +0.149 HD
ATOM      7  C   UNL     1       9.854   1.513   6.557  0.00  0.00    +0.187 C 
ATOM      8  C   UNL     1       8.698   1.416   5.672  0.00  0.00    +0.077 A 
ATOM      9  N   UNL     1       7.536   2.133   5.754  0.00  0.00    -0.360 N 
ATOM     10  H   UNL     1       7.322   2.864   6.424  0.00  0.00    +0.165 HD
ATOM     11  C   UNL     1       6.695   1.735   4.744  0.00  0.00    +0.090 A 
ENDROOT
BRANCH   1  15
ATOM     12  C   UNL     1       4.921  -0.604   1.568  0.00  0.00    +0.095 C 
ATOM     13  C   UNL     1       5.355  -1.893   2.282  0.00  0.00    +0.162 C 
ATOM     14  C   UNL     1       6.659  -1.516   3.007  0.00  0.00    +0.166 C 
ATOM     15  C   UNL     1       6.801   0.005   2.792  0.00  0.00    +0.119 C 
ATOM     16  N   UNL     1       5.466   0.485   2.406  0.00  0.00    -0.301 NA
ATOM     17  H   UNL     1       4.879   0.576   3.235  0.00  0.00    +0.123 HD
BRANCH  13  18
ATOM     18  O   UNL     1       5.543  -2.963   1.361  0.00  0.00    -0.388 OA
ATOM     19  H   UNL     1       6.495  -3.194   1.425  0.00  0.00    +0.210 HD
ENDBRANCH  13  18
BRANCH  14  20
ATOM     20  O   UNL     1       7.763  -2.247   2.456  0.00  0.00    -0.387 OA
ATOM     21  H   UNL     1       8.566  -1.840   2.843  0.00  0.00    +0.210 HD
ENDBRANCH  14  20
BRANCH  12  22
ATOM     22  C   UNL     1       3.393  -0.543   1.388  0.00  0.00    +0.090 C 
BRANCH  22  24
ATOM     23  C   UNL     1       3.573   1.020  -0.909  0.00  0.00    +0.084 C 
ATOM     24  S   UNL     1       2.768   1.042   0.712  0.00  0.00    -0.163 S 
ENDBRANCH  22  24
ENDBRANCH  12  22
ENDBRANCH   1  15
BRANCH   7  25
ATOM     25  N   UNL     1      10.451   2.817   6.549  0.00  0.00    -0.308 NA
ATOM     26  H   UNL     1       9.749   3.520   6.764  0.00  0.00    +0.120 HD
ATOM     27  H   UNL     1      11.141   2.890   7.292  0.00  0.00    +0.120 HD
ENDBRANCH   7  25
TORSDOF 6
