REMARK  Name = 
REMARK  11 active torsions:
REMARK  status: ('A' for Active; 'I' for Inactive)
REMARK    1  A    between atoms: O_1  and  C_2
REMARK    2  A    between atoms: C_2  and  C_3
REMARK    3  A    between atoms: C_3  and  C_4
REMARK    4  A    between atoms: C_3  and  C_6
REMARK    5  A    between atoms: C_3  and  N_8
REMARK    6  A    between atoms: C_4  and  O_5
REMARK    7  A    between atoms: C_6  and  O_7
REMARK    8  A    between atoms: N_8  and  C_9
REMARK    9  A    between atoms: C_9  and  C_10
REMARK   10  A    between atoms: C_10  and  S_11
REMARK   11  A    between atoms: S_11  and  O_12
REMARK                            x       y       z     vdW  Elec       q    Type
REMARK                         _______ _______ _______ _____ _____    ______ ____
ROOT
ATOM      1  C   UNL     1       2.919  -1.064  -0.978  0.00  0.00    +0.089 C 
ENDROOT
BRANCH   1   2
ATOM      2  N   UNL     1       4.429  -1.061  -1.058  0.00  0.00    -0.303 NA
ATOM      3  H   UNL     1       4.693  -0.085  -1.238  0.00  0.00    +0.123 HD
BRANCH   2   4
ATOM      4  C   UNL     1       5.068  -1.472   0.208  0.00  0.00    +0.107 C 
BRANCH   4   5
ATOM      5  C   UNL     1       6.589  -1.423   0.147  0.00  0.00    +0.213 C 
BRANCH   5   6
ATOM      6  S   UNL     1       7.236  -1.865   1.760  0.00  0.00    +0.081 S 
ATOM      7  O   UNL     1       6.980  -3.257   2.041  0.00  0.00    -0.147 OA
ATOM      8  O   UNL     1       6.930  -0.817   2.711  0.00  0.00    -0.147 OA
BRANCH   6   9
ATOM      9  O   UNL     1       8.807  -1.704   1.436  0.00  0.00    -0.254 OA
ATOM     10  H   UNL     1       9.200  -1.124   2.123  0.00  0.00    +0.244 HD
ENDBRANCH   6   9
ENDBRANCH   5   6
ENDBRANCH   4   5
ENDBRANCH   2   4
ENDBRANCH   1   2
BRANCH   1  11
ATOM     11  C   UNL     1       2.399  -0.036   0.064  0.00  0.00    +0.182 C 
BRANCH  11  12
ATOM     12  O   UNL     1       2.996   1.242  -0.164  0.00  0.00    -0.393 OA
ATOM     13  H   UNL     1       2.678   1.834   0.541  0.00  0.00    +0.209 HD
ENDBRANCH  11  12
ENDBRANCH   1  11
BRANCH   1  14
ATOM     14  C   UNL     1       2.410  -0.616  -2.380  0.00  0.00    +0.182 C 
BRANCH  14  15
ATOM     15  O   UNL     1       2.829  -1.536  -3.390  0.00  0.00    -0.393 OA
ATOM     16  H   UNL     1       3.793  -1.629  -3.241  0.00  0.00    +0.209 HD
ENDBRANCH  14  15
ENDBRANCH   1  14
BRANCH   1  17
ATOM     17  C   UNL     1       2.320  -2.464  -0.645  0.00  0.00    +0.182 C 
BRANCH  17  18
ATOM     18  O   UNL     1       2.719  -3.488  -1.553  0.00  0.00    -0.393 OA
ATOM     19  H   UNL     1       2.562  -3.139  -2.456  0.00  0.00    +0.209 HD
ENDBRANCH  17  18
ENDBRANCH   1  17
TORSDOF 11
