REMARK  Name = 
REMARK  5 active torsions:
REMARK  status: ('A' for Active; 'I' for Inactive)
REMARK    1  A    between atoms: O_1  and  C_2
REMARK    2  A    between atoms: C_5  and  O_6
REMARK    3  A    between atoms: C_5  and  C_12
REMARK    4  A    between atoms: C_9  and  O_11
REMARK    5  A    between atoms: C_12  and  O_13
REMARK                            x       y       z     vdW  Elec       q    Type
REMARK                         _______ _______ _______ _____ _____    ______ ____
ROOT
ATOM      1  C   UNL     1       2.541   0.012   0.201  0.00  0.00    +0.150 C 
ATOM      2  C   UNL     1       2.795  -1.304  -0.578  0.00  0.00    +0.166 C 
ATOM      3  C   UNL     1       3.667  -1.172  -1.787  0.00  0.00    +0.005 C 
ATOM      4  C   UNL     1       4.032  -0.002  -2.320  0.00  0.00    +0.017 C 
ATOM      5  C   UNL     1       3.628   1.329  -1.771  0.00  0.00    +0.183 C 
ATOM      6  C   UNL     1       2.632   1.319  -0.601  0.00  0.00    +0.085 C 
ENDROOT
BRANCH   1   7
ATOM      7  O   UNL     1       3.405   0.100   1.339  0.00  0.00    -0.389 OA
ATOM      8  H   UNL     1       4.308   0.290   1.038  0.00  0.00    +0.210 HD
ENDBRANCH   1   7
BRANCH   2   9
ATOM      9  O   UNL     1       1.564  -1.829  -1.052  0.00  0.00    -0.385 OA
ATOM     10  H   UNL     1       1.716  -2.775  -1.222  0.00  0.00    +0.210 HD
ENDBRANCH   2   9
BRANCH   5  11
ATOM     11  C   UNL     1       4.920   2.083  -1.366  0.00  0.00    +0.341 C 
ATOM     12  O   UNL     1       5.672   1.745  -0.461  0.00  0.00    -0.247 OA
BRANCH  11  13
ATOM     13  O   UNL     1       5.125   3.166  -2.150  0.00  0.00    -0.478 OA
ATOM     14  H   UNL     1       4.381   3.206  -2.801  0.00  0.00    +0.295 HD
ENDBRANCH  11  13
ENDBRANCH   5  11
BRANCH   5  15
ATOM     15  O   UNL     1       3.045   2.069  -2.863  0.00  0.00    -0.374 OA
ATOM     16  H   UNL     1       2.227   1.589  -3.105  0.00  0.00    +0.211 HD
ENDBRANCH   5  15
TORSDOF 5
