REMARK  Name = 
REMARK  8 active torsions:
REMARK  status: ('A' for Active; 'I' for Inactive)
REMARK    1  A    between atoms: C_2  and  C_21
REMARK    2  A    between atoms: C_12  and  C_16
REMARK    3  A    between atoms: C_16  and  C_17
REMARK    4  A    between atoms: C_16  and  C_18
REMARK    5  A    between atoms: C_16  and  C_19
REMARK    6  A    between atoms: C_21  and  C_22
REMARK    7  A    between atoms: C_21  and  C_23
REMARK    8  A    between atoms: C_21  and  O_24
REMARK                            x       y       z     vdW  Elec       q    Type
REMARK                         _______ _______ _______ _____ _____    ______ ____
ROOT
ATOM      1  C   UNL     1       2.138  -0.083  -0.352  0.00  0.00    +0.209 C 
ATOM      2  O   UNL     1       2.539  -1.379  -0.917  0.00  0.00    -0.485 OA
ATOM      3  C   UNL     1       2.346  -1.177  -2.270  0.00  0.00    +0.128 A 
ATOM      4  C   UNL     1       2.026  -2.171  -3.160  0.00  0.00    +0.093 A 
ATOM      5  C   UNL     1       1.401  -1.755  -4.332  0.00  0.00    +0.143 A 
ATOM      6  C   UNL     1       1.156  -0.406  -4.618  0.00  0.00    +0.018 A 
ATOM      7  C   UNL     1       1.653   0.587  -3.772  0.00  0.00    +0.019 A 
ATOM      8  C   UNL     1       0.193  -0.097  -5.662  0.00  0.00    +0.023 A 
ATOM      9  C   UNL     1      -0.395  -1.054  -6.413  0.00  0.00    +0.047 A 
ATOM     10  C   UNL     1       0.088  -2.463  -6.270  0.00  0.00    +0.341 A 
ATOM     11  O   UNL     1      -0.219  -3.362  -7.042  0.00  0.00    -0.245 OA
ATOM     12  O   UNL     1       0.916  -2.753  -5.189  0.00  0.00    -0.422 OA
ATOM     13  C   UNL     1       2.246   0.176  -2.594  0.00  0.00    -0.001 A 
ATOM     14  C   UNL     1       2.595   0.959  -1.386  0.00  0.00    +0.086 C 
ENDROOT
BRANCH   1  15
ATOM     15  C   UNL     1       0.589  -0.043  -0.024  0.00  0.00    +0.097 C 
ATOM     16  C   UNL     1       0.179   1.316   0.554  0.00  0.00    +0.045 C 
ATOM     17  C   UNL     1       0.205  -1.162   0.948  0.00  0.00    +0.045 C 
BRANCH  15  18
ATOM     18  O   UNL     1      -0.215  -0.215  -1.203  0.00  0.00    -0.385 OA
ATOM     19  H   UNL     1      -1.135  -0.383  -0.937  0.00  0.00    +0.210 HD
ENDBRANCH  15  18
ENDBRANCH   1  15
BRANCH   9  20
ATOM     20  C   UNL     1      -1.572  -0.703  -7.355  0.00  0.00    +0.015 C 
ATOM     21  C   UNL     1      -2.752  -0.196  -6.479  0.00  0.00    +0.020 C 
ATOM     22  C   UNL     1      -2.144  -1.864  -8.197  0.00  0.00    +0.020 C 
BRANCH  20  23
ATOM     23  C   UNL     1      -1.219   0.406  -8.357  0.00  0.00    -0.023 C 
ATOM     24  C   UNL     1      -0.022   0.669  -8.895  0.00  0.00    +0.005 C 
ENDBRANCH  20  23
ENDBRANCH   9  20
TORSDOF 4
