REMARK  Name = 
REMARK  4 active torsions:
REMARK  status: ('A' for Active; 'I' for Inactive)
REMARK    1  A    between atoms: C_1  and  C_2
REMARK    2  A    between atoms: C_1  and  N_24
REMARK    3  A    between atoms: C_5  and  C_6
REMARK    4  A    between atoms: C_6  and  N_7
REMARK                            x       y       z     vdW  Elec       q    Type
REMARK                         _______ _______ _______ _____ _____    ______ ____
ROOT
ATOM      1  C   UNL     1      -0.000  -0.000  -0.000  0.00  0.00    +0.000 A 
ATOM      2  C   UNL     1      -0.000  -0.000   0.000  0.00  0.00    +0.000 A 
ATOM      3  C   UNL     1      -0.000  -0.000   0.000  0.00  0.00    +0.000 A 
ATOM      4  C   UNL     1      -0.000  -0.000   0.000  0.00  0.00    +0.000 A 
ATOM      5  C   UNL     1      -0.000  -0.000  -0.000  0.00  0.00    +0.000 A 
ATOM      6  C   UNL     1      -0.000  -0.000  -0.000  0.00  0.00    +0.000 A 
ENDROOT
BRANCH   1   7
ATOM      7  C   UNL     1       0.000   0.000  -0.000  0.00  0.00    +0.000 C 
BRANCH   7   8
ATOM      8  N   UNL     1      -0.000  -0.000   0.000  0.00  0.00    +1.000 N 
ATOM      9 CU   UNL     1       0.000   0.000  -0.000  0.00  0.00    +0.000 Cu
ATOM     10  N   UNL     1       0.000   0.000  -0.000  0.00  0.00    +0.000 NA
ATOM     11  C   UNL     1       0.000   0.000  -0.000  0.00  0.00    +0.000 C 
ATOM     12  C   UNL     1       0.000   0.000  -0.000  0.00  0.00    +0.000 C 
ATOM     13  C   UNL     1       0.000   0.000  -0.000  0.00  0.00    +0.000 C 
ATOM     14  C   UNL     1       0.000   0.000  -0.000  0.00  0.00    +0.000 C 
ATOM     15  C   UNL     1       0.000   0.000  -0.000  0.00  0.00    +0.000 C 
ATOM     16  N   UNL     1       0.000   0.000  -0.000  0.00  0.00    +0.000 NA
ATOM     17  C   UNL     1       0.000   0.000  -0.000  0.00  0.00    +0.000 C 
ATOM     18  N   UNL     1       0.000   0.000  -0.000  0.00  0.00    +0.000 NA
ATOM     19  C   UNL     1       0.000   0.000  -0.000  0.00  0.00    +0.000 C 
ATOM     20  C   UNL     1       0.000   0.000  -0.000  0.00  0.00    +0.000 C 
ATOM     21  C   UNL     1       0.000   0.000  -0.000  0.00  0.00    +0.000 C 
ATOM     22  C   UNL     1       0.000   0.000  -0.000  0.00  0.00    +0.000 C 
ENDBRANCH   7   8
ENDBRANCH   1   7
BRANCH   4  23
ATOM     23  C   UNL     1      -0.000  -0.000   0.000  0.00  0.00    +0.000 C 
BRANCH  23  24
ATOM     24  N   UNL     1      -0.000  -0.000  -0.000  0.00  0.00    +1.000 N 
ATOM     25 CU   UNL     1      -0.000  -0.000   0.000  0.00  0.00    +0.000 Cu
ATOM     26  N   UNL     1      -0.000  -0.000   0.000  0.00  0.00    +0.000 NA
ATOM     27  C   UNL     1      -0.000  -0.000   0.000  0.00  0.00    +0.000 C 
ATOM     28  C   UNL     1      -0.000  -0.000   0.000  0.00  0.00    +0.000 C 
ATOM     29  C   UNL     1      -0.000  -0.000   0.000  0.00  0.00    +0.000 C 
ATOM     30  C   UNL     1      -0.000  -0.000   0.000  0.00  0.00    +0.000 C 
ATOM     31  C   UNL     1      -0.000  -0.000   0.000  0.00  0.00    +0.000 C 
ATOM     32  N   UNL     1      -0.000  -0.000   0.000  0.00  0.00    +0.000 NA
ATOM     33  C   UNL     1      -0.000  -0.000   0.000  0.00  0.00    +0.000 C 
ATOM     34  N   UNL     1      -0.000  -0.000   0.000  0.00  0.00    +0.000 NA
ATOM     35  C   UNL     1      -0.000  -0.000   0.000  0.00  0.00    +0.000 C 
ATOM     36  C   UNL     1      -0.000  -0.000   0.000  0.00  0.00    +0.000 C 
ATOM     37  C   UNL     1      -0.000  -0.000   0.000  0.00  0.00    +0.000 C 
ATOM     38  C   UNL     1      -0.000  -0.000   0.000  0.00  0.00    +0.000 C 
ENDBRANCH  23  24
ENDBRANCH   4  23
TORSDOF 4
