REMARK  Name = 
REMARK  9 active torsions:
REMARK  status: ('A' for Active; 'I' for Inactive)
REMARK    1  A    between atoms: O_1  and  C_2
REMARK    2  A    between atoms: C_2  and  C_3
REMARK    3  A    between atoms: C_6  and  O_8
REMARK    4  A    between atoms: O_8  and  P_9
REMARK    5  A    between atoms: P_9  and  O_10
REMARK    6  A    between atoms: P_9  and  O_11
REMARK    7  A    between atoms: C_13  and  O_15
REMARK    8  A    between atoms: C_16  and  O_18
REMARK    9  A    between atoms: C_19  and  O_21
REMARK                            x       y       z     vdW  Elec       q    Type
REMARK                         _______ _______ _______ _____ _____    ______ ____
ROOT
ATOM      1  C   UNL     1       3.115  -1.064   0.913  0.00  0.00    +0.178 C 
ATOM      2  C   UNL     1       4.517  -1.119   0.275  0.00  0.00    +0.177 C 
ATOM      3  C   UNL     1       4.518  -1.747  -1.136  0.00  0.00    +0.179 C 
ATOM      4  C   UNL     1       3.675  -3.026  -1.180  0.00  0.00    +0.202 C 
ATOM      5  C   UNL     1       2.288  -2.829  -0.518  0.00  0.00    +0.293 C 
ATOM      6  O   UNL     1       2.421  -2.318   0.801  0.00  0.00    -0.340 OA
ENDROOT
BRANCH   2   7
ATOM      7  O   UNL     1       5.374  -1.857   1.169  0.00  0.00    -0.386 OA
ATOM      8  H   UNL     1       5.758  -2.614   0.683  0.00  0.00    +0.210 HD
ENDBRANCH   2   7
BRANCH   3   9
ATOM      9  O   UNL     1       4.114  -0.827  -2.147  0.00  0.00    -0.386 OA
ATOM     10  H   UNL     1       3.272  -0.407  -1.869  0.00  0.00    +0.210 HD
ENDBRANCH   3   9
BRANCH   4  11
ATOM     11  O   UNL     1       4.408  -4.062  -0.493  0.00  0.00    -0.384 OA
ATOM     12  H   UNL     1       3.748  -4.543   0.049  0.00  0.00    +0.210 HD
ENDBRANCH   4  11
BRANCH   1  13
ATOM     13  C   UNL     1       2.252   0.126   0.455  0.00  0.00    +0.190 C 
BRANCH  13  14
ATOM     14  O   UNL     1       2.064   0.160  -0.959  0.00  0.00    -0.392 OA
ATOM     15  H   UNL     1       1.418   0.871  -1.129  0.00  0.00    +0.210 HD
ENDBRANCH  13  14
ENDBRANCH   1  13
BRANCH   5  16
ATOM     16  O   UNL     1       1.696  -4.116  -0.409  0.00  0.00    -0.254 OA
BRANCH  16  17
ATOM     17  P   UNL     1       0.105  -4.167  -0.387  0.00  0.00    +0.475 P 
ATOM     18  O   UNL     1      -0.640  -3.141   0.393  0.00  0.00    -0.227 OA
BRANCH  17  19
ATOM     19  O   UNL     1      -0.233  -5.640   0.138  0.00  0.00    -0.303 OA
ATOM     20  H   UNL     1      -0.752  -5.576   0.964  0.00  0.00    +0.222 HD
ENDBRANCH  17  19
BRANCH  17  21
ATOM     21  O   UNL     1      -0.343  -4.327  -1.905  0.00  0.00    -0.303 OA
ATOM     22  H   UNL     1      -0.164  -5.226  -2.219  0.00  0.00    +0.222 HD
ENDBRANCH  17  21
ENDBRANCH  16  17
ENDBRANCH   5  16
TORSDOF 9
