REMARK  Name = 
REMARK  15 active torsions:
REMARK  status: ('A' for Active; 'I' for Inactive)
REMARK    1  A    between atoms: C_1  and  O_2
REMARK    2  A    between atoms: O_2  and  C_3
REMARK    3  A    between atoms: C_5  and  C_6
REMARK    4  A    between atoms: C_6  and  N_7
REMARK    5  A    between atoms: C_8  and  C_10
REMARK    6  A    between atoms: C_10  and  C_11
REMARK    7  A    between atoms: C_17  and  O_19
REMARK    8  A    between atoms: N_21  and  C_22
REMARK    9  A    between atoms: C_22  and  C_23
REMARK   10  A    between atoms: N_29  and  C_30
REMARK   11  A    between atoms: C_30  and  C_31
REMARK   12  A    between atoms: C_34  and  O_35
REMARK   13  A    between atoms: C_36  and  O_37
REMARK   14  A    between atoms: O_37  and  C_38
REMARK   15  A    between atoms: C_44  and  O_45
REMARK                            x       y       z     vdW  Elec       q    Type
REMARK                         _______ _______ _______ _____ _____    ______ ____
ROOT
ATOM      1  N   UNL     1       7.224  -0.924   0.313  0.00  0.00    -0.274 N 
ATOM      2  C   UNL     1       7.315  -0.194  -0.870  0.00  0.00    +0.320 C 
ATOM      3  O   UNL     1       7.600  -0.742  -1.933  0.00  0.00    -0.251 OA
ATOM      4  N   UNL     1       6.576   1.008  -0.778  0.00  0.00    -0.213 N 
ATOM      5  N   UNL     1       7.130   2.193  -0.121  0.00  0.00    -0.216 NA
ATOM      6  C   UNL     1       8.142   1.901   0.918  0.00  0.00    +0.139 C 
ATOM      7  C   UNL     1       7.796   0.813   1.970  0.00  0.00    +0.151 C 
ATOM      8  C   UNL     1       8.157  -0.589   1.409  0.00  0.00    +0.112 C 
ENDROOT
BRANCH   7   9
ATOM      9  O   UNL     1       8.478   1.093   3.199  0.00  0.00    -0.389 OA
ATOM     10  H   UNL     1       9.424   1.211   3.010  0.00  0.00    +0.210 HD
ENDBRANCH   7   9
BRANCH   1  11
ATOM     11  C   UNL     1       6.437  -2.159   0.218  0.00  0.00    +0.145 C 
BRANCH  11  16
ATOM     12  C   UNL     1       4.093  -3.530   2.912  0.00  0.00    +0.162 A 
ATOM     13  C   UNL     1       3.433  -2.364   3.307  0.00  0.00    +0.158 A 
ATOM     14  C   UNL     1       3.677  -1.162   2.642  0.00  0.00    +0.049 A 
ATOM     15  C   UNL     1       4.614  -1.102   1.618  0.00  0.00    +0.009 A 
ATOM     16  C   UNL     1       5.341  -2.235   1.251  0.00  0.00    -0.026 A 
ATOM     17  C   UNL     1       5.014  -3.458   1.857  0.00  0.00    +0.054 A 
BRANCH  12  19
ATOM     18  C   UNL     1       3.258  -4.937   4.651  0.00  0.00    +0.277 C 
ATOM     19  O   UNL     1       3.975  -4.790   3.428  0.00  0.00    -0.491 OA
ENDBRANCH  12  19
BRANCH  13  20
ATOM     20  O   UNL     1       2.543  -2.354   4.343  0.00  0.00    -0.503 OA
ATOM     21  H   UNL     1       2.383  -1.431   4.601  0.00  0.00    +0.292 HD
ENDBRANCH  13  20
ENDBRANCH  11  16
ENDBRANCH   1  11
BRANCH   4  22
ATOM     22  C   UNL     1       5.544   1.137  -1.810  0.00  0.00    +0.164 C 
BRANCH  22  23
ATOM     23  C   UNL     1       5.853   1.942  -3.046  0.00  0.00    -0.025 A 
ATOM     24  C   UNL     1       4.773   2.476  -3.776  0.00  0.00    +0.054 A 
ATOM     25  C   UNL     1       4.983   3.197  -4.954  0.00  0.00    +0.162 A 
ATOM     26  C   UNL     1       6.291   3.346  -5.426  0.00  0.00    +0.158 A 
ATOM     27  C   UNL     1       7.368   2.784  -4.744  0.00  0.00    +0.049 A 
ATOM     28  C   UNL     1       7.148   2.081  -3.559  0.00  0.00    +0.009 A 
BRANCH  25  29
ATOM     29  O   UNL     1       3.983   3.746  -5.712  0.00  0.00    -0.491 OA
ATOM     30  C   UNL     1       2.766   4.038  -5.038  0.00  0.00    +0.277 C 
ENDBRANCH  25  29
BRANCH  26  31
ATOM     31  O   UNL     1       6.512   4.065  -6.570  0.00  0.00    -0.503 OA
ATOM     32  H   UNL     1       7.468   4.155  -6.701  0.00  0.00    +0.292 HD
ENDBRANCH  26  31
ENDBRANCH  22  23
ENDBRANCH   4  22
BRANCH   5  33
ATOM     33  C   UNL     1       6.101   3.144   0.375  0.00  0.00    +0.141 C 
BRANCH  33  34
ATOM     34  C   UNL     1       6.670   4.478   0.844  0.00  0.00    -0.032 A 
ATOM     35  C   UNL     1       6.484   4.905   2.168  0.00  0.00    +0.005 A 
ATOM     36  C   UNL     1       7.095   6.073   2.632  0.00  0.00    +0.000 A 
ATOM     37  C   UNL     1       7.889   6.835   1.777  0.00  0.00    +0.000 A 
ATOM     38  C   UNL     1       8.044   6.448   0.447  0.00  0.00    +0.000 A 
ATOM     39  C   UNL     1       7.431   5.282  -0.020  0.00  0.00    +0.005 A 
ENDBRANCH  33  34
ENDBRANCH   5  33
BRANCH   8  40
ATOM     40  C   UNL     1       8.387  -1.657   2.522  0.00  0.00    +0.060 C 
BRANCH  40  41
ATOM     41  C   UNL     1       8.835  -3.016   2.006  0.00  0.00    -0.046 A 
ATOM     42  C   UNL     1       8.238  -4.175   2.523  0.00  0.00    +0.004 A 
ATOM     43  C   UNL     1       8.365  -5.392   1.851  0.00  0.00    +0.000 A 
ATOM     44  C   UNL     1       9.131  -5.473   0.690  0.00  0.00    +0.000 A 
ATOM     45  C   UNL     1       9.833  -4.356   0.244  0.00  0.00    +0.000 A 
ATOM     46  C   UNL     1       9.711  -3.140   0.916  0.00  0.00    +0.004 A 
ENDBRANCH  40  41
ENDBRANCH   8  40
TORSDOF 13
