REMARK  Name = 
REMARK  6 active torsions:
REMARK  status: ('A' for Active; 'I' for Inactive)
REMARK    1  A    between atoms: N_1  and  CA_2
REMARK    2  A    between atoms: CA_2  and  C_4
REMARK    3  A    between atoms: CA_2  and  C_12
REMARK    4  A    between atoms: C_4  and  C_5
REMARK    5  A    between atoms: C_9  and  O_10
REMARK    6  A    between atoms: C_12  and  O_13
REMARK                            x       y       z     vdW  Elec       q    Type
REMARK                         _______ _______ _______ _____ _____    ______ ____
ROOT
ATOM      1  C   UNL     1       2.900   1.360   0.319  0.00  0.00    +0.065 C 
ENDROOT
BRANCH   1   2
ATOM      2  C   UNL     1       2.560   2.287  -0.826  0.00  0.00    -0.042 A 
ATOM      3  C   UNL     1       3.367   2.335  -1.972  0.00  0.00    +0.049 A 
ATOM      4  C   UNL     1       2.983   3.103  -3.066  0.00  0.00    +0.117 A 
ATOM      5  C   UNL     1       1.827   3.875  -3.027  0.00  0.00    +0.045 A 
ATOM      6  C   UNL     1       1.040   3.866  -1.876  0.00  0.00    +0.004 A 
ATOM      7  C   UNL     1       1.398   3.071  -0.786  0.00  0.00    +0.004 A 
BRANCH   4   8
ATOM      8  O   UNL     1       3.765   3.047  -4.179  0.00  0.00    -0.507 OA
ATOM      9  H   UNL     1       3.327   3.548  -4.888  0.00  0.00    +0.292 HD
ENDBRANCH   4   8
ENDBRANCH   1   2
BRANCH   1  10
ATOM     10  CA  UNL     1       2.340  -0.069   0.171  0.00  0.00    +0.165 C 
BRANCH  10  11
ATOM     11  N   UNL     1       2.824  -0.798  -1.047  0.00  0.00    -0.318 NA
ATOM     12  H1  UNL     1       2.827  -0.140  -1.835  0.00  0.00    +0.119 HD
ATOM     13  H2  UNL     1       3.817  -1.007  -0.903  0.00  0.00    +0.119 HD
ENDBRANCH  10  11
BRANCH  10  14
ATOM     14  C   UNL     1       0.803  -0.072   0.176  0.00  0.00    +0.322 C 
ATOM     15  OXT UNL     1       0.098   0.491   1.000  0.00  0.00    -0.249 OA
BRANCH  14  16
ATOM     16  O   UNL     1       0.304  -0.812  -0.851  0.00  0.00    -0.480 OA
ATOM     17  H   UNL     1       1.094  -1.179  -1.320  0.00  0.00    +0.295 HD
ENDBRANCH  14  16
ENDBRANCH  10  14
ENDBRANCH   1  10
TORSDOF 6
