REMARK  Name = 
REMARK  5 active torsions:
REMARK  status: ('A' for Active; 'I' for Inactive)
REMARK    1  A    between atoms: C_5  and  C_12
REMARK    2  A    between atoms: CA_15  and  C_17
REMARK    3  A    between atoms: C_17  and  O_18
REMARK    4  A    between atoms: C_19  and  O_21
REMARK    5  A    between atoms: C_22  and  O_24
REMARK                            x       y       z     vdW  Elec       q    Type
REMARK                         _______ _______ _______ _____ _____    ______ ____
ROOT
ATOM      1  N   UNL     1       3.882   1.716  -4.900  0.00  0.00    -0.329 N 
ATOM      2  H   UNL     1       3.501   0.929  -5.409  0.00  0.00    +0.145 HD
ATOM      3  H   UNL     1       4.896   1.719  -4.860  0.00  0.00    +0.145 HD
ATOM      4  C   UNL     1       3.315   2.023  -3.704  0.00  0.00    +0.194 A 
ATOM      5  N   UNL     1       1.968   1.767  -3.609  0.00  0.00    -0.294 N 
ATOM      6  H   UNL     1       1.459   1.413  -4.403  0.00  0.00    +0.172 HD
ATOM      7  C   UNL     1       1.221   2.043  -2.492  0.00  0.00    +0.277 A 
ATOM      8  O   UNL     1       0.017   1.821  -2.426  0.00  0.00    -0.266 OA
ATOM      9  C   UNL     1       2.011   2.603  -1.459  0.00  0.00    +0.131 A 
ATOM     10  C   UNL     1       3.354   2.824  -1.579  0.00  0.00    +0.102 A 
ATOM     11  C   UNL     1       3.853   3.396  -0.378  0.00  0.00    +0.016 A 
ATOM     12  C   UNL     1       2.734   3.492   0.449  0.00  0.00    +0.090 A 
ATOM     13  N   UNL     1       1.629   3.022  -0.218  0.00  0.00    -0.355 N 
ATOM     14  H   UNL     1       0.683   2.987   0.144  0.00  0.00    +0.166 HD
ATOM     15  N   UNL     1       4.054   2.519  -2.749  0.00  0.00    -0.214 NA
ENDROOT
BRANCH  11  16
ATOM     16  C   UNL     1       5.283   3.766  -0.059  0.00  0.00    +0.119 C 
ATOM     17  C   UNL     1       5.932   4.780  -1.032  0.00  0.00    +0.166 C 
ATOM     18  C   UNL     1       5.858   6.143  -0.318  0.00  0.00    +0.164 C 
ATOM     19  CA  UNL     1       5.093   5.856   0.976  0.00  0.00    +0.111 C 
ATOM     20  N   UNL     1       5.357   4.429   1.280  0.00  0.00    -0.300 NA
ATOM     21  H   UNL     1       6.313   4.327   1.617  0.00  0.00    +0.123 HD
BRANCH  17  22
ATOM     22  O   UNL     1       7.316   4.445  -1.268  0.00  0.00    -0.387 OA
ATOM     23  H   UNL     1       7.762   4.367  -0.408  0.00  0.00    +0.210 HD
ENDBRANCH  17  22
BRANCH  18  24
ATOM     24  O   UNL     1       5.189   7.105  -1.128  0.00  0.00    -0.388 OA
ATOM     25  H   UNL     1       4.924   7.855  -0.569  0.00  0.00    +0.210 HD
ENDBRANCH  18  24
BRANCH  19  26
ATOM     26  C   UNL     1       5.510   6.792   2.119  0.00  0.00    +0.177 C 
BRANCH  26  27
ATOM     27  O   UNL     1       4.783   6.488   3.306  0.00  0.00    -0.393 OA
ATOM     28  H   UNL     1       4.771   5.514   3.377  0.00  0.00    +0.209 HD
ENDBRANCH  26  27
ENDBRANCH  19  26
ENDBRANCH  11  16
TORSDOF 5
