REMARK  Name = 
REMARK  7 active torsions:
REMARK  status: ('A' for Active; 'I' for Inactive)
REMARK    1  A    between atoms: N_1  and  CA_2
REMARK    2  A    between atoms: CA_2  and  C_4
REMARK    3  A    between atoms: CA_2  and  C_15
REMARK    4  A    between atoms: C_4  and  C_5
REMARK    5  A    between atoms: C_5  and  C_6
REMARK    6  A    between atoms: C_10  and  N_12
REMARK    7  A    between atoms: C_15  and  O_16
REMARK                            x       y       z     vdW  Elec       q    Type
REMARK                         _______ _______ _______ _____ _____    ______ ____
ROOT
ATOM      1  C   UNL     1       3.599   3.748   1.017  0.00  0.00    +0.014 C 
ENDROOT
BRANCH   1   2
ATOM      2  C   UNL     1       2.765   3.890  -0.282  0.00  0.00    +0.034 C 
ATOM      3  C   UNL     1       1.776   5.029  -0.178  0.00  0.00    -0.022 C 
ATOM      4  C   UNL     1       1.791   6.107  -0.979  0.00  0.00    -0.008 C 
ATOM      5  C   UNL     1       2.736   6.278  -2.128  0.00  0.00    +0.097 C 
ATOM      6  C   UNL     1       3.672   5.112  -2.298  0.00  0.00    -0.008 C 
ATOM      7  C   UNL     1       3.689   4.045  -1.479  0.00  0.00    -0.022 C 
BRANCH   5   8
ATOM      8  N   UNL     1       3.491   7.507  -1.947  0.00  0.00    -0.321 NA
ATOM      9  H   UNL     1       4.266   7.320  -1.314  0.00  0.00    +0.119 HD
ATOM     10  H   UNL     1       3.905   7.773  -2.836  0.00  0.00    +0.119 HD
ENDBRANCH   5   8
ENDBRANCH   1   2
BRANCH   1  11
ATOM     11  C   UNL     1       2.726   3.538   2.272  0.00  0.00    +0.031 C 
BRANCH  11  12
ATOM     12  CA  UNL     1       3.479   3.385   3.597  0.00  0.00    +0.161 C 
BRANCH  12  13
ATOM     13  N   UNL     1       4.250   4.609   3.972  0.00  0.00    -0.318 NA
ATOM     14  H1  UNL     1       4.638   5.033   3.125  0.00  0.00    +0.119 HD
ATOM     15  H2  UNL     1       3.572   5.307   4.298  0.00  0.00    +0.119 HD
ENDBRANCH  12  13
BRANCH  12  16
ATOM     16  C   UNL     1       4.421   2.172   3.594  0.00  0.00    +0.322 C 
ATOM     17  OXT UNL     1       4.123   1.048   3.224  0.00  0.00    -0.249 OA
BRANCH  16  18
ATOM     18  O   UNL     1       5.644   2.505   4.081  0.00  0.00    -0.480 OA
ATOM     19  H   UNL     1       5.576   3.462   4.328  0.00  0.00    +0.295 HD
ENDBRANCH  16  18
ENDBRANCH  12  16
ENDBRANCH  11  12
ENDBRANCH   1  11
TORSDOF 7
