REMARK  Name = 
REMARK  15 active torsions:
REMARK  status: ('A' for Active; 'I' for Inactive)
REMARK    1  A    between atoms: C_1  and  C_2
REMARK    2  A    between atoms: C_6  and  C_8
REMARK    3  A    between atoms: C_8  and  O_9
REMARK    4  A    between atoms: C_11  and  C_12
REMARK    5  A    between atoms: C_20  and  C_21
REMARK    6  A    between atoms: C_21  and  C_22
REMARK    7  A    between atoms: C_22  and  C_23
REMARK    8  A    between atoms: C_23  and  O_24
REMARK    9  A    between atoms: C_26  and  C_27
REMARK   10  A    between atoms: C_31  and  C_33
REMARK   11  A    between atoms: C_39  and  C_40
REMARK   12  A    between atoms: C_40  and  C_41
REMARK   13  A    between atoms: C_41  and  C_42
REMARK   14  A    between atoms: C_42  and  O_43
REMARK   15  A    between atoms: C_45  and  C_46
REMARK                            x       y       z     vdW  Elec       q    Type
REMARK                         _______ _______ _______ _____ _____    ______ ____
ROOT
ATOM      1  C   UNL     1      -1.232  -7.424   0.174  0.00  0.00    +0.000 C 
ATOM      2  C   UNL     1       0.707  -7.191   0.576  0.00  0.00    +0.000 C 
ATOM      3  C   UNL     1       1.865  -7.958  -0.157  0.00  0.00    +0.000 C 
ATOM      4  C   UNL     1       3.721  -5.965  -0.067  0.00  0.00    +0.000 C 
ATOM      5  N   UNL     1       3.135  -5.330   1.172  0.00  0.00    +0.000 N 
ATOM      6 FE   UNL     1       4.343  -3.086   1.032  0.00  0.00    +0.000 Fe
ATOM      7  N   UNL     1       6.957  -0.622   1.027  0.00  0.00    +0.000 N 
ATOM      8  C   UNL     1       7.267  -0.870  -0.508  0.00  0.00    +0.000 A 
ATOM      9  C   UNL     1       8.395   0.722  -0.597  0.00  0.00    +0.000 A 
ATOM     10  C   UNL     1       8.814   3.047  -0.612  0.00  0.00    +0.000 C 
ATOM     11  C   UNL     1       9.087   0.426   0.560  0.00  0.00    +0.000 A 
ATOM     12  C   UNL     1       8.005  -0.925   1.353  0.00  0.00    +0.000 A 
ATOM     13  C   UNL     1       7.738  -2.363   1.021  0.00  0.00    +0.000 C 
ATOM     14  C   UNL     1       5.776  -2.194   0.196  0.00  0.00    +0.000 A 
ATOM     15  C   UNL     1       4.987  -0.504   0.125  0.00  0.00    +0.000 A 
ATOM     16  C   UNL     1       4.333  -0.558  -0.896  0.00  0.00    +0.000 A 
ATOM     17  C   UNL     1       3.093   0.540  -0.720  0.00  0.00    +0.000 C 
ATOM     18  C   UNL     1       4.376  -1.937  -1.183  0.00  0.00    +0.000 A 
ATOM     19  C   UNL     1       3.324  -2.129  -1.012  0.00  0.00    +0.000 C 
ATOM     20  C   UNL     1       2.399  -2.729  -1.224  0.00  0.00    +0.000 C 
ATOM     21  C   UNL     1       1.336  -2.318  -0.449  0.00  0.00    +0.000 C 
ATOM     22  C   UNL     1       1.351  -1.190   0.413  0.00  0.00    +0.000 C 
ATOM     23  C   UNL     1       0.400  -3.183  -0.188  0.00  0.00    +0.000 C 
ATOM     24  C   UNL     1       1.277  -4.215  -0.679  0.00  0.00    +0.000 C 
ATOM     25  C   UNL     1       0.730  -5.196  -0.180  0.00  0.00    +0.000 C 
ATOM     26  N   UNL     1       2.698  -3.736  -0.807  0.00  0.00    +0.000 N 
ATOM     27  N   UNL     1       5.053  -2.734  -0.283  0.00  0.00    +0.000 N 
ATOM     28  C   UNL     1       5.702  -4.573  -0.621  0.00  0.00    +0.000 C 
ATOM     29  C   UNL     1       1.444  -5.922   0.785  0.00  0.00    +0.000 C 
ENDROOT
BRANCH   3  30
ATOM     30  C   UNL     1       0.274  -9.457  -0.216  0.00  0.00    +0.000 C 
ATOM     31  C   UNL     1      -0.573 -10.514  -0.996  0.00  0.00    +0.000 C 
ENDBRANCH   3  30
BRANCH  23  32
ATOM     32  C   UNL     1      -0.229  -3.314   1.296  0.00  0.00    +0.000 C 
ATOM     33  C   UNL     1      -1.540  -3.106   1.405  0.00  0.00    +0.000 C 
BRANCH  32  34
ATOM     34  O   UNL     1       0.449  -3.691   2.426  0.00  0.00    +0.000 OA
ATOM     35  H   UNL     1      -0.027  -3.812   3.276  0.00  0.00    +0.000 HD
ENDBRANCH  32  34
ENDBRANCH  23  32
BRANCH  11  36
ATOM     36  C   UNL     1      10.644   1.356   0.264  0.00  0.00    +0.000 C 
BRANCH  36  37
ATOM     37  C   UNL     1      11.438   2.514   1.095  0.00  0.00    +0.000 C 
BRANCH  37  38
ATOM     38  C   UNL     1      11.527   2.125   2.495  0.00  0.00    +0.000 C 
ATOM     39  O   UNL     1      10.990   2.811   3.349  0.00  0.00    +0.000 OA
BRANCH  38  40
ATOM     40  O   UNL     1      12.200   1.013   2.826  0.00  0.00    +0.000 OA
ATOM     41  H   UNL     1      12.671   0.512   2.142  0.00  0.00    +0.000 HD
ENDBRANCH  38  40
ENDBRANCH  37  38
ENDBRANCH  36  37
ENDBRANCH  11  36
BRANCH  15  42
ATOM     42  C   UNL     1       5.353   1.100   0.392  0.00  0.00    +0.000 C 
BRANCH  42  43
ATOM     43  C   UNL     1       4.827   2.431   1.110  0.00  0.00    +0.000 C 
BRANCH  43  44
ATOM     44  C   UNL     1       4.882   2.468   2.613  0.00  0.00    +0.000 C 
ATOM     45  O   UNL     1       5.555   1.646   3.211  0.00  0.00    +0.000 OA
BRANCH  44  46
ATOM     46  O   UNL     1       4.266   3.455   3.298  0.00  0.00    +0.000 OA
ATOM     47  H   UNL     1       3.702   4.113   2.867  0.00  0.00    +0.000 HD
ENDBRANCH  44  46
ENDBRANCH  43  44
ENDBRANCH  42  43
ENDBRANCH  15  42
TORSDOF 11
