REMARK  Name = 
REMARK  5 active torsions:
REMARK  status: ('A' for Active; 'I' for Inactive)
REMARK    1  A    between atoms: O_1  and  C_2
REMARK    2  A    between atoms: C_2  and  C_3
REMARK    3  A    between atoms: C_13  and  O_15
REMARK    4  A    between atoms: C_16  and  O_18
REMARK    5  A    between atoms: C_19  and  O_21
REMARK                            x       y       z     vdW  Elec       q    Type
REMARK                         _______ _______ _______ _____ _____    ______ ____
ROOT
ATOM      1  C   UNL     1       2.918   1.377   0.408  0.00  0.00    +0.178 C 
ATOM      2  C   UNL     1       3.075   1.296   1.932  0.00  0.00    +0.177 C 
ATOM      3  C   UNL     1       3.333   2.681   2.528  0.00  0.00    +0.179 C 
ATOM      4  C   UNL     1       2.264   3.681   2.080  0.00  0.00    +0.205 C 
ATOM      5  C   UNL     1       2.191   3.676   0.534  0.00  0.00    +0.242 C 
ATOM      6  C   UNL     1       1.065   4.663   0.110  0.00  0.00    +0.272 C 
ATOM      7  O   UNL     1      -0.123   4.580   0.402  0.00  0.00    -0.270 OA
ATOM      8  N   UNL     1       1.631   5.698  -0.567  0.00  0.00    -0.264 N 
ATOM      9  H   UNL     1       1.120   6.500  -0.902  0.00  0.00    +0.157 HD
ATOM     10  C   UNL     1       2.969   5.528  -0.657  0.00  0.00    +0.139 C 
ATOM     11  S   UNL     1       4.032   6.606  -1.304  0.00  0.00    -0.018 S 
ATOM     12  N   UNL     1       3.313   4.315  -0.118  0.00  0.00    -0.289 N 
ATOM     13  H   UNL     1       4.280   4.039  -0.024  0.00  0.00    +0.151 HD
ATOM     14  O   UNL     1       1.997   2.390  -0.018  0.00  0.00    -0.338 OA
ENDROOT
BRANCH   2  15
ATOM     15  O   UNL     1       4.183   0.439   2.246  0.00  0.00    -0.386 OA
ATOM     16  H   UNL     1       4.615   0.811   3.041  0.00  0.00    +0.210 HD
ENDBRANCH   2  15
BRANCH   3  17
ATOM     17  O   UNL     1       3.400   2.550   3.959  0.00  0.00    -0.386 OA
ATOM     18  H   UNL     1       2.498   2.416   4.300  0.00  0.00    +0.210 HD
ENDBRANCH   3  17
BRANCH   4  19
ATOM     19  O   UNL     1       2.588   4.973   2.617  0.00  0.00    -0.384 OA
ATOM     20  H   UNL     1       1.775   5.511   2.629  0.00  0.00    +0.210 HD
ENDBRANCH   4  19
BRANCH   1  21
ATOM     21  C   UNL     1       2.440   0.026  -0.154  0.00  0.00    +0.190 C 
BRANCH  21  22
ATOM     22  O   UNL     1       1.139  -0.294   0.345  0.00  0.00    -0.392 OA
ATOM     23  H   UNL     1       0.829  -1.068  -0.156  0.00  0.00    +0.210 HD
ENDBRANCH  21  22
ENDBRANCH   1  21
TORSDOF 5
