REMARK  Name = 
REMARK  17 active torsions:
REMARK  status: ('A' for Active; 'I' for Inactive)
REMARK    1  A    between atoms: N_1  and  CA_2
REMARK    2  A    between atoms: CA_2  and  C_4
REMARK    3  A    between atoms: CA_2  and  C_7
REMARK    4  A    between atoms: C_4  and  O_5
REMARK    5  A    between atoms: C_10  and  O_11
REMARK    6  A    between atoms: O_11  and  C_12
REMARK    7  A    between atoms: C_15  and  C_17
REMARK    8  A    between atoms: C_17  and  O_18
REMARK    9  A    between atoms: C_19  and  O_21
REMARK   10  A    between atoms: C_22  and  O_24
REMARK   11  A    between atoms: C_25  and  O_27
REMARK   12  A    between atoms: O_27  and  C_28
REMARK   13  A    between atoms: C_31  and  C_33
REMARK   14  A    between atoms: C_33  and  O_34
REMARK   15  A    between atoms: C_35  and  O_37
REMARK   16  A    between atoms: C_38  and  O_40
REMARK   17  A    between atoms: C_41  and  O_43
REMARK                            x       y       z     vdW  Elec       q    Type
REMARK                         _______ _______ _______ _____ _____    ______ ____
ROOT
ATOM      1  C   UNL     1       3.202  -6.424  -0.435  0.00  0.00    +0.340 C 
ATOM      2  C   UNL     1       3.127  -6.769   1.081  0.00  0.00    +0.221 C 
ATOM      3  C   UNL     1       3.761  -8.129   1.428  0.00  0.00    +0.180 C 
ATOM      4  C   UNL     1       3.386  -9.173   0.369  0.00  0.00    +0.177 C 
ATOM      5  C   UNL     1       3.805  -8.703  -1.033  0.00  0.00    +0.179 C 
ATOM      6  O   UNL     1       3.091  -7.507  -1.361  0.00  0.00    -0.331 OA
ENDROOT
BRANCH   4   7
ATOM      7  O   UNL     1       1.960  -9.357   0.410  0.00  0.00    -0.386 OA
ATOM      8  H   UNL     1       1.680  -9.782  -0.421  0.00  0.00    +0.210 HD
ENDBRANCH   4   7
BRANCH   3   9
ATOM      9  O   UNL     1       5.179  -8.067   1.580  0.00  0.00    -0.386 OA
ATOM     10  H   UNL     1       5.428  -7.131   1.662  0.00  0.00    +0.210 HD
ENDBRANCH   3   9
BRANCH   5  11
ATOM     11  C   UNL     1       5.331  -8.615  -1.238  0.00  0.00    +0.190 C 
BRANCH  11  12
ATOM     12  O   UNL     1       5.698  -8.375  -2.596  0.00  0.00    -0.392 OA
ATOM     13  H   UNL     1       4.972  -8.662  -3.178  0.00  0.00    +0.210 HD
ENDBRANCH  11  12
ENDBRANCH   5  11
BRANCH   2  14
ATOM     14  O   UNL     1       3.590  -5.721   1.977  0.00  0.00    -0.337 OA
BRANCH  14  15
ATOM     15  C   UNL     1       2.918  -4.462   1.759  0.00  0.00    +0.282 C 
ATOM     16  C   UNL     1       3.576  -3.270   2.516  0.00  0.00    +0.201 C 
ATOM     17  C   UNL     1       2.866  -2.844   3.805  0.00  0.00    +0.179 C 
ATOM     18  C   UNL     1       1.346  -3.005   3.682  0.00  0.00    +0.177 C 
ATOM     19  C   UNL     1       1.000  -4.433   3.244  0.00  0.00    +0.178 C 
ATOM     20  O   UNL     1       1.506  -4.614   1.914  0.00  0.00    -0.341 OA
BRANCH  18  21
ATOM     21  O   UNL     1       0.885  -2.063   2.694  0.00  0.00    -0.386 OA
ATOM     22  H   UNL     1       0.218  -2.520   2.141  0.00  0.00    +0.210 HD
ENDBRANCH  18  21
BRANCH  17  23
ATOM     23  O   UNL     1       3.338  -3.550   4.947  0.00  0.00    -0.386 OA
ATOM     24  H   UNL     1       4.308  -3.619   4.888  0.00  0.00    +0.210 HD
ENDBRANCH  17  23
BRANCH  16  25
ATOM     25  O   UNL     1       3.640  -2.117   1.641  0.00  0.00    -0.384 OA
ATOM     26  H   UNL     1       2.794  -1.634   1.731  0.00  0.00    +0.210 HD
ENDBRANCH  16  25
BRANCH  19  27
ATOM     27  C   UNL     1       1.430  -5.527   4.236  0.00  0.00    +0.190 C 
BRANCH  27  28
ATOM     28  O   UNL     1       0.912  -6.803   3.831  0.00  0.00    -0.392 OA
ATOM     29  H   UNL     1       1.642  -7.271   3.399  0.00  0.00    +0.210 HD
ENDBRANCH  27  28
ENDBRANCH  19  27
ENDBRANCH  14  15
ENDBRANCH   2  14
BRANCH   1  30
ATOM     30  O   UNL     1       4.313  -5.576  -0.745  0.00  0.00    -0.461 OA
BRANCH  30  34
ATOM     31  C   UNL     1       4.034  -3.107  -4.129  0.00  0.00    -0.020 A 
ATOM     32  C   UNL     1       5.241  -3.313  -3.444  0.00  0.00    +0.009 A 
ATOM     33  C   UNL     1       5.290  -4.124  -2.302  0.00  0.00    +0.046 A 
ATOM     34  C   UNL     1       4.134  -4.733  -1.819  0.00  0.00    +0.124 A 
ATOM     35  C   UNL     1       2.917  -4.447  -2.443  0.00  0.00    +0.046 A 
ATOM     36  C   UNL     1       2.867  -3.656  -3.589  0.00  0.00    +0.009 A 
BRANCH  31  37
ATOM     37  CA  UNL     1       3.936  -2.300  -5.412  0.00  0.00    +0.191 C 
BRANCH  37  38
ATOM     38  N   UNL     1       5.024  -2.651  -6.354  0.00  0.00    -0.315 NA
ATOM     39  H1  UNL     1       4.908  -2.057  -7.181  0.00  0.00    +0.119 HD
ATOM     40  H2  UNL     1       5.909  -2.333  -5.958  0.00  0.00    +0.119 HD
ENDBRANCH  37  38
BRANCH  37  41
ATOM     41  C   UNL     1       3.867  -0.775  -5.207  0.00  0.00    +0.326 C 
ATOM     42  OXT UNL     1       4.302   0.027  -6.026  0.00  0.00    -0.249 OA
BRANCH  41  43
ATOM     43  O   UNL     1       3.214  -0.356  -4.097  0.00  0.00    -0.479 OA
ATOM     44  H   UNL     1       2.942  -1.068  -3.487  0.00  0.00    +0.295 HD
ENDBRANCH  41  43
ENDBRANCH  37  41
ENDBRANCH  31  37
ENDBRANCH  30  34
ENDBRANCH   1  30
TORSDOF 17
