REMARK  Name = 
REMARK  10 active torsions:
REMARK  status: ('A' for Active; 'I' for Inactive)
REMARK    1  A    between atoms: C_1  and  C_2
REMARK    2  A    between atoms: N_4  and  C_5
REMARK    3  A    between atoms: C_8  and  C_10
REMARK    4  A    between atoms: C_10  and  O_11
REMARK    5  A    between atoms: O_11  and  P_12
REMARK    6  A    between atoms: P_12  and  O_13
REMARK    7  A    between atoms: P_12  and  O_15
REMARK    8  A    between atoms: O_15  and  P_16
REMARK    9  A    between atoms: P_16  and  O_17
REMARK   10  A    between atoms: P_16  and  O_18
REMARK                            x       y       z     vdW  Elec       q    Type
REMARK                         _______ _______ _______ _____ _____    ______ ____
ROOT
ATOM      1  C   UNL     1       5.662   2.222  -0.049  0.00  0.00    +0.248 C 
ATOM      2  C   UNL     1       5.121   3.596   0.111  0.00  0.00    +0.025 C 
ATOM      3  C   UNL     1       5.428   4.056   1.328  0.00  0.00    +0.007 C 
ATOM      4  C   UNL     1       6.090   2.984   2.151  0.00  0.00    +0.170 C 
ATOM      5  O   UNL     1       6.361   1.948   1.187  0.00  0.00    -0.343 OA
ENDROOT
BRANCH   1  14
ATOM      6  C   UNL     1       1.053   0.233   0.275  0.00  0.00    +0.051 C 
ATOM      7  C   UNL     1       2.528   0.195   0.047  0.00  0.00    +0.030 A 
ATOM      8  C   UNL     1       3.127  -1.144  -0.164  0.00  0.00    +0.257 A 
ATOM      9  O   UNL     1       2.459  -2.171  -0.126  0.00  0.00    -0.267 OA
ATOM     10  N   UNL     1       4.467  -1.168  -0.385  0.00  0.00    -0.275 N 
ATOM     11  H   UNL     1       4.894  -2.065  -0.551  0.00  0.00    +0.173 HD
ATOM     12  C   UNL     1       5.281  -0.076  -0.512  0.00  0.00    +0.332 A 
ATOM     13  O   UNL     1       6.445  -0.237  -0.851  0.00  0.00    -0.246 OA
ATOM     14  N   UNL     1       4.699   1.149  -0.211  0.00  0.00    -0.270 N 
ATOM     15  C   UNL     1       3.343   1.264   0.039  0.00  0.00    +0.102 A 
ENDBRANCH   1  14
BRANCH   4  16
ATOM     16  C   UNL     1       5.119   2.500   3.284  0.00  0.00    +0.208 C 
BRANCH  16  17
ATOM     17  O   UNL     1       5.599   1.676   4.369  0.00  0.00    -0.283 OA
BRANCH  17  18
ATOM     18  P   UNL     1       5.246   0.106   4.478  0.00  0.00    +0.483 P 
ATOM     19  O   UNL     1       6.388  -0.795   4.124  0.00  0.00    -0.227 OA
BRANCH  18  20
ATOM     20  O   UNL     1       4.065  -0.112   3.407  0.00  0.00    -0.302 OA
ATOM     21  H   UNL     1       4.388  -0.573   2.604  0.00  0.00    +0.222 HD
ENDBRANCH  18  20
BRANCH  18  22
ATOM     22  O   UNL     1       4.515  -0.382   5.926  0.00  0.00    -0.186 OA
BRANCH  22  23
ATOM     23  P   UNL     1       4.194  -1.988   5.367  0.00  0.00    +0.481 P 
ATOM     24  O   UNL     1       3.906  -3.425   4.867  0.00  0.00    -0.227 OA
BRANCH  23  25
ATOM     25  O   UNL     1       2.783  -1.816   6.184  0.00  0.00    -0.302 OA
ATOM     26  H   UNL     1       2.989  -1.949   7.128  0.00  0.00    +0.222 HD
ENDBRANCH  23  25
BRANCH  23  27
ATOM     27  O   UNL     1       5.024  -2.479   6.698  0.00  0.00    -0.302 OA
ATOM     28  H   UNL     1       5.964  -2.628   6.478  0.00  0.00    +0.222 HD
ENDBRANCH  23  27
ENDBRANCH  22  23
ENDBRANCH  18  22
ENDBRANCH  17  18
ENDBRANCH  16  17
ENDBRANCH   4  16
TORSDOF 9
