REMARK  Name = 
REMARK  5 active torsions:
REMARK  status: ('A' for Active; 'I' for Inactive)
REMARK    1  A    between atoms: O_1  and  C_2
REMARK    2  A    between atoms: C_5  and  C_13
REMARK    3  A    between atoms: C_7  and  O_9
REMARK    4  A    between atoms: C_10  and  O_12
REMARK    5  A    between atoms: C_13  and  O_14
REMARK                            x       y       z     vdW  Elec       q    Type
REMARK                         _______ _______ _______ _____ _____    ______ ____
ROOT
ATOM      1  C   UNL     1       2.470  -0.142   0.149  0.00  0.00    +0.337 C 
ATOM      2  C   UNL     1       2.728   1.264  -0.450  0.00  0.00    +0.215 C 
ATOM      3  C   UNL     1       3.579   1.262  -1.730  0.00  0.00    +0.176 C 
ATOM      4  C   UNL     1       3.949  -0.077  -2.241  0.00  0.00    +0.060 C 
ATOM      5  C   UNL     1       3.430  -1.209  -1.750  0.00  0.00    +0.206 C 
ATOM      6  O   UNL     1       2.478  -1.243  -0.759  0.00  0.00    -0.454 OA
ENDROOT
BRANCH   1   7
ATOM      7  O   UNL     1       3.364  -0.412   1.230  0.00  0.00    -0.356 OA
ATOM      8  H   UNL     1       3.779   0.453   1.432  0.00  0.00    +0.214 HD
ENDBRANCH   1   7
BRANCH   2   9
ATOM      9  O   UNL     1       3.370   2.071   0.568  0.00  0.00    -0.383 OA
ATOM     10  H   UNL     1       3.514   2.956   0.180  0.00  0.00    +0.210 HD
ENDBRANCH   2   9
BRANCH   3  11
ATOM     11  O   UNL     1       2.878   1.957  -2.763  0.00  0.00    -0.385 OA
ATOM     12  H   UNL     1       2.197   1.361  -3.126  0.00  0.00    +0.210 HD
ENDBRANCH   3  11
BRANCH   5  13
ATOM     13  C   UNL     1       3.878  -2.512  -2.328  0.00  0.00    +0.372 C 
ATOM     14  O   UNL     1       4.609  -2.636  -3.297  0.00  0.00    -0.242 OA
BRANCH  13  15
ATOM     15  O   UNL     1       3.366  -3.551  -1.631  0.00  0.00    -0.475 OA
ATOM     16  H   UNL     1       2.841  -3.225  -0.868  0.00  0.00    +0.296 HD
ENDBRANCH  13  15
ENDBRANCH   5  13
TORSDOF 5
