REMARK  Name = 
REMARK  23 active torsions:
REMARK  status: ('A' for Active; 'I' for Inactive)
REMARK    1  A    between atoms: C_1  and  C_2
REMARK    2  A    between atoms: N_15  and  C_16
REMARK    3  A    between atoms: C_16  and  C_17
REMARK    4  A    between atoms: C_17  and  O_19
REMARK    5  A    between atoms: C_17  and  C_20
REMARK    6  A    between atoms: C_20  and  O_22
REMARK    7  A    between atoms: C_20  and  C_23
REMARK    8  A    between atoms: C_23  and  O_25
REMARK    9  A    between atoms: C_23  and  C_26
REMARK   10  A    between atoms: C_26  and  O_27
REMARK   11  A    between atoms: O_27  and  P_28
REMARK   12  A    between atoms: P_28  and  O_29
REMARK   13  A    between atoms: P_28  and  O_31
REMARK   14  A    between atoms: O_31  and  P_32
REMARK   15  A    between atoms: P_32  and  O_33
REMARK   16  A    between atoms: P_32  and  O_35
REMARK   17  A    between atoms: O_35  and  C_36
REMARK   18  A    between atoms: C_36  and  C_37
REMARK   19  A    between atoms: C_40  and  N_48
REMARK   20  A    between atoms: C_42  and  O_44
REMARK   21  A    between atoms: C_45  and  O_47
REMARK   22  A    between atoms: C_58  and  O_59
REMARK   23  A    between atoms: C_60  and  C_61
REMARK                            x       y       z     vdW  Elec       q    Type
REMARK                         _______ _______ _______ _____ _____    ______ ____
ROOT
ATOM      1  O   UNL     1      -0.502 -11.222   8.424  0.00  0.00    -0.284 OA
ENDROOT
BRANCH   1   2
ATOM      2  P   UNL     1       0.344  -9.821   8.497  0.00  0.00    +0.483 P 
ATOM      3  O   UNL     1       1.788 -10.067   8.064  0.00  0.00    -0.227 OA
BRANCH   2   4
ATOM      4  O   UNL     1      -0.046  -9.475   6.848  0.00  0.00    -0.302 OA
ATOM      5  H   UNL     1       0.343  -8.618   6.600  0.00  0.00    +0.222 HD
ENDBRANCH   2   4
BRANCH   2   6
ATOM      6  O   UNL     1       0.734 -10.167  10.147  0.00  0.00    -0.186 OA
BRANCH   6   7
ATOM      7  P   UNL     1       1.726  -9.561  11.238  0.00  0.00    +0.483 P 
ATOM      8  O   UNL     1       1.522 -10.374  12.473  0.00  0.00    -0.227 OA
BRANCH   7   9
ATOM      9  O   UNL     1       2.212  -8.300  10.397  0.00  0.00    -0.302 OA
ATOM     10  H   UNL     1       1.431  -7.694  10.425  0.00  0.00    +0.222 HD
ENDBRANCH   7   9
BRANCH   7  11
ATOM     11  O   UNL     1       1.141  -8.230  12.077  0.00  0.00    -0.284 OA
BRANCH  11  12
ATOM     12  C   UNL     1       1.587  -7.936  13.482  0.00  0.00    +0.206 C 
BRANCH  12  13
ATOM     13  C   UNL     1       3.096  -7.697  13.891  0.00  0.00    +0.178 C 
ATOM     14  C   UNL     1       3.373  -7.315  15.397  0.00  0.00    +0.178 C 
ATOM     15  C   UNL     1       3.626  -8.593  16.172  0.00  0.00    +0.195 C 
ATOM     16  C   UNL     1       3.867  -9.529  15.021  0.00  0.00    +0.253 C 
ATOM     17  O   UNL     1       3.886  -8.883  13.739  0.00  0.00    -0.346 OA
BRANCH  16  18
ATOM     18  N   UNL     1       5.054 -10.312  15.166  0.00  0.00    -0.286 N 
ATOM     19  C   UNL     1       6.352 -10.199  15.606  0.00  0.00    +0.167 A 
ATOM     20  N   UNL     1       7.045  -9.180  16.146  0.00  0.00    -0.216 NA
ATOM     21  C   UNL     1       8.330  -9.594  16.381  0.00  0.00    +0.225 A 
ATOM     22  N   UNL     1       9.010 -10.719  16.002  0.00  0.00    -0.219 NA
ATOM     23  C   UNL     1       8.280 -11.655  15.448  0.00  0.00    +0.147 A 
ATOM     24  N   UNL     1       8.894 -12.817  14.889  0.00  0.00    -0.341 N 
ATOM     25  H   UNL     1       8.364 -13.679  14.805  0.00  0.00    +0.144 HD
ATOM     26  H   UNL     1       9.840 -12.964  15.204  0.00  0.00    +0.144 HD
ATOM     27  C   UNL     1       6.904 -11.453  15.385  0.00  0.00    +0.147 A 
ATOM     28  N   UNL     1       5.920 -12.306  15.101  0.00  0.00    -0.231 NA
ATOM     29  C   UNL     1       4.852 -11.601  14.872  0.00  0.00    +0.203 A 
ENDBRANCH  16  18
BRANCH  15  30
ATOM     30  O   UNL     1       2.526  -9.060  16.974  0.00  0.00    -0.385 OA
ATOM     31  H   UNL     1       2.842  -9.871  17.500  0.00  0.00    +0.210 HD
ENDBRANCH  15  30
BRANCH  14  32
ATOM     32  O   UNL     1       4.620  -6.585  15.449  0.00  0.00    -0.386 OA
ATOM     33  H   UNL     1       5.349  -7.181  15.173  0.00  0.00    +0.210 HD
ENDBRANCH  14  32
ENDBRANCH  12  13
ENDBRANCH  11  12
ENDBRANCH   7  11
ENDBRANCH   6   7
ENDBRANCH   2   6
ENDBRANCH   1   2
BRANCH   1  34
ATOM     34  C   UNL     1       0.148 -12.413   7.981  0.00  0.00    +0.206 C 
BRANCH  34  35
ATOM     35  C   UNL     1       1.155 -12.951   9.012  0.00  0.00    +0.172 C 
BRANCH  35  36
ATOM     36  O   UNL     1       0.500 -13.199  10.260  0.00  0.00    -0.387 OA
ATOM     37  H   UNL     1       0.052 -12.370  10.513  0.00  0.00    +0.210 HD
ENDBRANCH  35  36
BRANCH  35  38
ATOM     38  C   UNL     1       1.839 -14.216   8.472  0.00  0.00    +0.175 C 
BRANCH  38  39
ATOM     39  O   UNL     1       0.901 -15.279   8.260  0.00  0.00    -0.387 OA
ATOM     40  H   UNL     1       1.422 -16.010   7.873  0.00  0.00    +0.210 HD
ENDBRANCH  38  39
BRANCH  38  41
ATOM     41  C   UNL     1       2.996 -14.704   9.341  0.00  0.00    +0.165 C 
BRANCH  41  42
ATOM     42  O   UNL     1       3.687 -15.719   8.578  0.00  0.00    -0.387 OA
ATOM     43  H   UNL     1       4.534 -15.864   9.043  0.00  0.00    +0.210 HD
ENDBRANCH  41  42
BRANCH  41  44
ATOM     44  C   UNL     1       2.586 -15.281  10.707  0.00  0.00    +0.158 C 
BRANCH  44  54
ATOM     45  C   UNL     1       2.585 -20.483  10.224  0.00  0.00    +0.044 C 
ATOM     46  C   UNL     1       3.317 -19.567  11.143  0.00  0.00    -0.042 A 
ATOM     47  C   UNL     1       4.288 -20.045  12.053  0.00  0.00    -0.004 A 
ATOM     48  C   UNL     1       4.715 -21.455  12.164  0.00  0.00    +0.048 C 
ATOM     49  C   UNL     1       5.022 -19.124  12.762  0.00  0.00    +0.147 A 
ATOM     50  C   UNL     1       4.890 -17.814  12.446  0.00  0.00    +0.130 A 
ATOM     51  N   UNL     1       5.909 -17.069  12.993  0.00  0.00    -0.233 NA
ATOM     52  C   UNL     1       5.816 -15.827  12.769  0.00  0.00    +0.171 A 
ATOM     53  C   UNL     1       4.570 -15.188  12.084  0.00  0.00    +0.170 A 
ATOM     54  N   UNL     1       3.784 -15.935  11.281  0.00  0.00    -0.319 N 
ATOM     55  N   UNL     1       4.243 -13.988  12.439  0.00  0.00    -0.173 NA
ATOM     56  C   UNL     1       4.933 -13.861  13.569  0.00  0.00    +0.351 A 
ATOM     57  O   UNL     1       4.450 -14.204  14.646  0.00  0.00    -0.245 OA
ATOM     58  N   UNL     1       6.257 -13.677  13.262  0.00  0.00    -0.272 N 
ATOM     59  H   UNL     1       6.694 -13.086  13.938  0.00  0.00    +0.174 HD
ATOM     60  C   UNL     1       6.778 -14.912  13.423  0.00  0.00    +0.282 A 
ATOM     61  O   UNL     1       7.676 -15.217  14.179  0.00  0.00    -0.265 OA
ATOM     62  C   UNL     1       3.875 -17.310  11.554  0.00  0.00    +0.073 A 
ATOM     63  C   UNL     1       3.076 -18.212  10.952  0.00  0.00    +0.032 A 
BRANCH  49  64
ATOM     64  O   UNL     1       5.953 -19.460  13.714  0.00  0.00    -0.504 OA
ATOM     65  H   UNL     1       6.340 -18.596  13.971  0.00  0.00    +0.292 HD
ENDBRANCH  49  64
ENDBRANCH  44  54
ENDBRANCH  41  44
ENDBRANCH  38  41
ENDBRANCH  35  38
ENDBRANCH  34  35
ENDBRANCH   1  34
TORSDOF 21
