REMARK  Name = 
REMARK  4 active torsions:
REMARK  status: ('A' for Active; 'I' for Inactive)
REMARK    1  A    between atoms: C_1  and  C_2
REMARK    2  A    between atoms: C_2  and  C_3
REMARK    3  A    between atoms: C_2  and  O_4
REMARK    4  A    between atoms: C_2  and  C_5
REMARK                            x       y       z     vdW  Elec       q    Type
REMARK                         _______ _______ _______ _____ _____    ______ ____
ROOT
ATOM      1  C   UNL     1       1.018  -0.061  -0.108  0.00  0.00    +0.057 C 
ATOM      2  C   UNL     1       2.547  -0.036  -0.099  0.00  0.00    +0.146 C 
ATOM      3  C   UNL     1       3.072   0.403   1.269  0.00  0.00    +0.057 C 
ENDROOT
BRANCH   2   4
ATOM      4  C   UNL     1       3.042   0.886  -1.148  0.00  0.00    +0.097 C 
ATOM      5  N   UNL     1       3.413   1.636  -1.955  0.00  0.00    -0.194 NA
ENDBRANCH   2   4
BRANCH   2   6
ATOM      6  O   UNL     1       3.016  -1.368  -0.349  0.00  0.00    -0.375 OA
ATOM      7  H   UNL     1       2.674  -1.944   0.355  0.00  0.00    +0.211 HD
ENDBRANCH   2   6
TORSDOF 2
