REMARK  Name = 
REMARK  7 active torsions:
REMARK  status: ('A' for Active; 'I' for Inactive)
REMARK    1  A    between atoms: N_1  and  CA_2
REMARK    2  A    between atoms: CA_2  and  C_4
REMARK    3  A    between atoms: CA_2  and  C_9
REMARK    4  A    between atoms: C_4  and  C_5
REMARK    5  A    between atoms: C_5  and  C_6
REMARK    6  A    between atoms: C_6  and  C_7
REMARK    7  A    between atoms: C_9  and  O_10
REMARK                            x       y       z     vdW  Elec       q    Type
REMARK                         _______ _______ _______ _____ _____    ______ ____
ROOT
ATOM      1  CA  UNL     1       2.472   0.027   0.022  0.00  0.00    +0.161 C 
ENDROOT
BRANCH   1   2
ATOM      2  N   UNL     1       2.922   0.342  -1.367  0.00  0.00    -0.318 NA
ATOM      3  H1  UNL     1       2.955   1.358  -1.493  0.00  0.00    +0.119 HD
ATOM      4  H2  UNL     1       3.903   0.056  -1.444  0.00  0.00    +0.119 HD
ENDBRANCH   1   2
BRANCH   1   5
ATOM      5  C   UNL     1       0.933  -0.037   0.055  0.00  0.00    +0.322 C 
ATOM      6  OXT UNL     1       0.258  -0.202   1.058  0.00  0.00    -0.249 OA
BRANCH   5   7
ATOM      7  O   UNL     1       0.408   0.112  -1.189  0.00  0.00    -0.480 OA
ATOM      8  H   UNL     1       1.184   0.193  -1.798  0.00  0.00    +0.295 HD
ENDBRANCH   5   7
ENDBRANCH   1   5
BRANCH   1   9
ATOM      9  C   UNL     1       3.015   1.015   1.065  0.00  0.00    +0.030 C 
BRANCH   9  10
ATOM     10  C   UNL     1       2.542   2.461   0.867  0.00  0.00    +0.009 C 
BRANCH  10  11
ATOM     11  C   UNL     1       3.079   3.393   1.948  0.00  0.00    +0.071 C 
BRANCH  11  12
ATOM     12  C   UNL     1       2.635   4.820   1.725  0.00  0.00    +0.223 C 
ATOM     13  O   UNL     1       2.004   5.207   0.746  0.00  0.00    -0.301 OA
ENDBRANCH  11  12
ENDBRANCH  10  11
ENDBRANCH   9  10
ENDBRANCH   1   9
TORSDOF 7
