REMARK  Name = 
REMARK  17 active torsions:
REMARK  status: ('A' for Active; 'I' for Inactive)
REMARK    1  A    between atoms: O_1  and  C_2
REMARK    2  A    between atoms: C_2  and  C_3
REMARK    3  A    between atoms: C_6  and  O_8
REMARK    4  A    between atoms: O_8  and  P_9
REMARK    5  A    between atoms: P_9  and  O_10
REMARK    6  A    between atoms: P_9  and  O_12
REMARK    7  A    between atoms: O_12  and  P_13
REMARK    8  A    between atoms: P_13  and  O_14
REMARK    9  A    between atoms: P_13  and  O_16
REMARK   10  A    between atoms: O_16  and  C_17
REMARK   11  A    between atoms: C_17  and  C_18
REMARK   12  A    between atoms: C_21  and  N_29
REMARK   13  A    between atoms: C_23  and  O_25
REMARK   14  A    between atoms: C_26  and  O_28
REMARK   15  A    between atoms: C_37  and  O_39
REMARK   16  A    between atoms: C_40  and  O_42
REMARK   17  A    between atoms: C_43  and  O_45
REMARK                            x       y       z     vdW  Elec       q    Type
REMARK                         _______ _______ _______ _____ _____    ______ ____
ROOT
ATOM      1  P   UNL     1      16.042  -1.023  -5.879  0.00  0.00    +0.483 P 
ATOM      2  O   UNL     1      17.389  -1.626  -5.460  0.00  0.00    -0.227 OA
ENDROOT
BRANCH   1   3
ATOM      3  O   UNL     1      15.249  -2.333  -6.457  0.00  0.00    -0.302 OA
ATOM      4  H   UNL     1      15.804  -3.113  -6.249  0.00  0.00    +0.222 HD
ENDBRANCH   1   3
BRANCH   1   5
ATOM      5  O   UNL     1      16.744  -0.750  -7.436  0.00  0.00    -0.186 OA
BRANCH   5   6
ATOM      6  P   UNL     1      15.489  -0.490  -8.598  0.00  0.00    +0.486 P 
ATOM      7  O   UNL     1      14.969   0.735  -7.838  0.00  0.00    -0.227 OA
BRANCH   6   8
ATOM      8  O   UNL     1      14.233  -0.231  -9.759  0.00  0.00    -0.302 OA
ATOM      9  H   UNL     1      13.814   0.602  -9.461  0.00  0.00    +0.222 HD
ENDBRANCH   6   8
BRANCH   6  10
ATOM     10  O   UNL     1      16.618   0.067  -9.684  0.00  0.00    -0.254 OA
BRANCH  10  15
ATOM     11  C   UNL     1      18.446  -2.914 -10.645  0.00  0.00    +0.178 C 
ATOM     12  C   UNL     1      19.711  -2.366 -11.320  0.00  0.00    +0.177 C 
ATOM     13  C   UNL     1      20.093  -1.025 -10.662  0.00  0.00    +0.179 C 
ATOM     14  C   UNL     1      18.898  -0.054 -10.615  0.00  0.00    +0.202 C 
ATOM     15  C   UNL     1      17.732  -0.793  -9.921  0.00  0.00    +0.293 C 
ATOM     16  O   UNL     1      17.375  -1.948 -10.672  0.00  0.00    -0.340 OA
BRANCH  12  17
ATOM     17  O   UNL     1      20.772  -3.320 -11.186  0.00  0.00    -0.386 OA
ATOM     18  H   UNL     1      21.165  -3.235 -10.298  0.00  0.00    +0.210 HD
ENDBRANCH  12  17
BRANCH  13  19
ATOM     19  O   UNL     1      21.206  -0.415 -11.323  0.00  0.00    -0.386 OA
ATOM     20  H   UNL     1      21.308   0.462 -10.901  0.00  0.00    +0.210 HD
ENDBRANCH  13  19
BRANCH  14  21
ATOM     21  O   UNL     1      19.335   1.102  -9.879  0.00  0.00    -0.384 OA
ATOM     22  H   UNL     1      18.573   1.417  -9.358  0.00  0.00    +0.210 HD
ENDBRANCH  14  21
BRANCH  11  23
ATOM     23  C   UNL     1      17.971  -4.227 -11.262  0.00  0.00    +0.190 C 
BRANCH  23  24
ATOM     24  O   UNL     1      17.029  -4.831 -10.360  0.00  0.00    -0.392 OA
ATOM     25  H   UNL     1      16.944  -5.760 -10.631  0.00  0.00    +0.210 HD
ENDBRANCH  23  24
ENDBRANCH  11  23
ENDBRANCH  10  15
ENDBRANCH   6  10
ENDBRANCH   5   6
ENDBRANCH   1   5
BRANCH   1  26
ATOM     26  O   UNL     1      15.340  -1.297  -4.322  0.00  0.00    -0.284 OA
BRANCH  26  27
ATOM     27  C   UNL     1      16.240  -1.098  -3.220  0.00  0.00    +0.206 C 
BRANCH  27  28
ATOM     28  C   UNL     1      15.624  -1.293  -1.833  0.00  0.00    +0.178 C 
ATOM     29  C   UNL     1      14.458  -0.370  -1.529  0.00  0.00    +0.178 C 
ATOM     30  C   UNL     1      13.217  -1.223  -1.744  0.00  0.00    +0.195 C 
ATOM     31  C   UNL     1      13.753  -2.627  -2.103  0.00  0.00    +0.255 C 
ATOM     32  O   UNL     1      15.126  -2.637  -1.676  0.00  0.00    -0.346 OA
BRANCH  31  33
ATOM     33  N   UNL     1      13.020  -3.755  -1.509  0.00  0.00    -0.271 N 
ATOM     34  C   UNL     1      11.631  -3.742  -1.596  0.00  0.00    +0.331 A 
ATOM     35  O   UNL     1      10.979  -2.829  -2.102  0.00  0.00    -0.246 OA
ATOM     36  N   UNL     1      10.987  -4.838  -1.089  0.00  0.00    -0.275 N 
ATOM     37  H   UNL     1       9.982  -4.842  -1.167  0.00  0.00    +0.173 HD
ATOM     38  C   UNL     1      11.578  -6.033  -0.809  0.00  0.00    +0.254 A 
ATOM     39  O   UNL     1      10.943  -7.064  -0.623  0.00  0.00    -0.268 OA
ATOM     40  C   UNL     1      13.038  -6.036  -0.803  0.00  0.00    +0.088 A 
ATOM     41  C   UNL     1      13.690  -4.915  -1.149  0.00  0.00    +0.098 A 
ENDBRANCH  31  33
BRANCH  30  42
ATOM     42  O   UNL     1      12.412  -0.682  -2.794  0.00  0.00    -0.385 OA
ATOM     43  H   UNL     1      11.614  -1.256  -2.828  0.00  0.00    +0.210 HD
ENDBRANCH  30  42
BRANCH  29  44
ATOM     44  O   UNL     1      14.535   0.034  -0.148  0.00  0.00    -0.386 OA
ATOM     45  H   UNL     1      14.615  -0.767   0.400  0.00  0.00    +0.210 HD
ENDBRANCH  29  44
ENDBRANCH  27  28
ENDBRANCH  26  27
ENDBRANCH   1  26
TORSDOF 17
