REMARK  Name = 
REMARK  4 active torsions:
REMARK  status: ('A' for Active; 'I' for Inactive)
REMARK    1  A    between atoms: C_1  and  C_2
REMARK    2  A    between atoms: C_2  and  O_4
REMARK    3  A    between atoms: C_2  and  C_5
REMARK    4  A    between atoms: C_5  and  N_6
REMARK                            x       y       z     vdW  Elec       q    Type
REMARK                         _______ _______ _______ _____ _____    ______ ____
ROOT
ATOM      1  C   UNL     1       3.119   0.221  -1.613  0.00  0.00    +0.159 C 
ENDROOT
BRANCH   1   2
ATOM      2  N   UNL     1       4.608   0.224  -1.596  0.00  0.00    +0.220 N 
ATOM      3  H   UNL     1       5.013   0.029  -2.518  0.00  0.00    +0.199 HD
ATOM      4  H   UNL     1       4.900  -0.534  -0.950  0.00  0.00    +0.199 HD
ATOM      5  H   UNL     1       4.999   1.101  -1.236  0.00  0.00    +0.199 HD
ENDBRANCH   1   2
BRANCH   1   7
ATOM      6  C   UNL     1       2.912   1.198   0.730  0.00  0.00    +0.043 C 
ATOM      7  C   UNL     1       2.616   0.012  -0.176  0.00  0.00    +0.156 C 
BRANCH   7   8
ATOM      8  O   UNL     1       3.314  -1.130   0.334  0.00  0.00    -0.387 OA
ATOM      9  H   UNL     1       2.787  -1.485   1.082  0.00  0.00    +0.210 HD
ENDBRANCH   7   8
ENDBRANCH   1   7
TORSDOF 3
