REMARK  Name = 
REMARK  45 active torsions:
REMARK  status: ('A' for Active; 'I' for Inactive)
REMARK    1  A    between atoms: C_1  and  C_2
REMARK    2  A    between atoms: C_2  and  C_3
REMARK    3  A    between atoms: C_3  and  C_4
REMARK    4  A    between atoms: C_4  and  C_5
REMARK    5  A    between atoms: C_5  and  C_6
REMARK    6  A    between atoms: C_6  and  C_7
REMARK    7  A    between atoms: C_7  and  C_8
REMARK    8  A    between atoms: C_8  and  C_9
REMARK    9  A    between atoms: C_9  and  C_10
REMARK   10  A    between atoms: C_10  and  C_11
REMARK   11  A    between atoms: C_11  and  C_12
REMARK   12  A    between atoms: C_12  and  C_13
REMARK   13  A    between atoms: C_13  and  C_14
REMARK   14  A    between atoms: C_14  and  C_15
REMARK   15  A    between atoms: C_15  and  C_16
REMARK   16  A    between atoms: C_16  and  O_18
REMARK   17  A    between atoms: O_18  and  C_19
REMARK   18  A    between atoms: C_19  and  C_20
REMARK   19  A    between atoms: C_20  and  C_22
REMARK   20  A    between atoms: C_20  and  O_34
REMARK   21  A    between atoms: C_22  and  O_23
REMARK   22  A    between atoms: O_23  and  P_24
REMARK   23  A    between atoms: P_24  and  O_27
REMARK   24  A    between atoms: O_27  and  C_28
REMARK   25  A    between atoms: C_28  and  C_29
REMARK   26  A    between atoms: C_29  and  N_30
REMARK   27  A    between atoms: N_30  and  C_31
REMARK   28  A    between atoms: N_30  and  C_32
REMARK   29  A    between atoms: N_30  and  C_33
REMARK   30  A    between atoms: O_34  and  C_35
REMARK   31  A    between atoms: C_35  and  C_37
REMARK   32  A    between atoms: C_37  and  C_38
REMARK   33  A    between atoms: C_38  and  C_39
REMARK   34  A    between atoms: C_39  and  C_40
REMARK   35  A    between atoms: C_40  and  C_41
REMARK   36  A    between atoms: C_41  and  C_42
REMARK   37  A    between atoms: C_42  and  C_43
REMARK   38  A    between atoms: C_43  and  C_44
REMARK   39  A    between atoms: C_45  and  C_46
REMARK   40  A    between atoms: C_46  and  C_47
REMARK   41  A    between atoms: C_48  and  C_49
REMARK   42  A    between atoms: C_49  and  C_50
REMARK   43  A    between atoms: C_50  and  C_51
REMARK   44  A    between atoms: C_51  and  C_52
REMARK   45  A    between atoms: C_52  and  C_53
REMARK                            x       y       z     vdW  Elec       q    Type
REMARK                         _______ _______ _______ _____ _____    ______ ____
ROOT
ATOM      1  C   UNL     1      13.493  11.787   3.154  0.00  0.00    +0.240 C 
ENDROOT
BRANCH   1   2
ATOM      2  C   UNL     1      14.914  12.292   3.367  0.00  0.00    +0.216 C 
BRANCH   2   3
ATOM      3  O   UNL     1      15.805  11.598   2.503  0.00  0.00    -0.324 OA
BRANCH   3   4
ATOM      4  P   UNL     1      17.350  12.074   2.631  0.00  0.00    +0.213 P 
ATOM      5  O   UNL     1      18.109  11.124   3.510  0.00  0.00    -0.517 OA
ATOM      6  O   UNL     1      17.362  13.568   2.821  0.00  0.00    -0.437 OA
BRANCH   4   7
ATOM      7  O   UNL     1      17.775  11.796   1.093  0.00  0.00    -0.322 OA
BRANCH   7   8
ATOM      8  C   UNL     1      18.767  12.640   0.564  0.00  0.00    +0.218 C 
BRANCH   8   9
ATOM      9  C   UNL     1      18.439  12.945  -0.896  0.00  0.00    +0.161 C 
BRANCH   9  10
ATOM     10  N   UNL     1      17.186  13.832  -1.157  0.00  0.00    +0.239 N 
ATOM     11  C   UNL     1      15.905  13.128  -0.717  0.00  0.00    +0.192 C 
ATOM     12  C   UNL     1      17.108  14.093  -2.651  0.00  0.00    +0.192 C 
ATOM     13  C   UNL     1      17.281  15.158  -0.412  0.00  0.00    +0.192 C 
ENDBRANCH   9  10
ENDBRANCH   8   9
ENDBRANCH   7   8
ENDBRANCH   4   7
ENDBRANCH   3   4
ENDBRANCH   2   3
ENDBRANCH   1   2
BRANCH   1  14
ATOM     14  C   UNL     1      12.489  12.705   3.863  0.00  0.00    +0.279 C 
BRANCH  14  15
ATOM     15  O   UNL     1      12.774  12.789   5.272  0.00  0.00    -0.461 OA
BRANCH  15  16
ATOM     16  C   UNL     1      13.128  14.013   5.748  0.00  0.00    +0.307 C 
ATOM     17  O   UNL     1      13.224  15.033   5.078  0.00  0.00    -0.251 OA
BRANCH  16  18
ATOM     18  C   UNL     1      13.313  13.972   7.244  0.00  0.00    +0.120 C 
BRANCH  18  19
ATOM     19  C   UNL     1      14.436  13.052   7.709  0.00  0.00    +0.011 C 
BRANCH  19  20
ATOM     20  C   UNL     1      15.828  13.506   7.259  0.00  0.00    +0.001 C 
BRANCH  20  21
ATOM     21  C   UNL     1      16.898  12.557   7.805  0.00  0.00    +0.000 C 
BRANCH  21  22
ATOM     22  C   UNL     1      18.305  12.943   7.351  0.00  0.00    +0.000 C 
BRANCH  22  23
ATOM     23  C   UNL     1      19.340  11.972   7.922  0.00  0.00    +0.000 C 
BRANCH  23  24
ATOM     24  C   UNL     1      20.756  12.335   7.479  0.00  0.00    -0.000 C 
BRANCH  24  25
ATOM     25  C   UNL     1      21.778  11.354   8.052  0.00  0.00    -0.000 C 
BRANCH  25  26
ATOM     26  C   UNL     1      23.195  11.714   7.610  0.00  0.00    -0.000 C 
BRANCH  26  27
ATOM     27  C   UNL     1      24.218  10.737   8.185  0.00  0.00    -0.000 C 
BRANCH  27  28
ATOM     28  C   UNL     1      25.632  11.102   7.742  0.00  0.00    -0.000 C 
BRANCH  28  29
ATOM     29  C   UNL     1      26.658  10.126   8.315  0.00  0.00    -0.000 C 
BRANCH  29  30
ATOM     30  C   UNL     1      28.072  10.494   7.869  0.00  0.00    -0.000 C 
BRANCH  30  32
ATOM     31  C   UNL     1      30.509   9.886   7.996  0.00  0.00    +0.004 C 
ATOM     32  C   UNL     1      29.102   9.521   8.439  0.00  0.00    -0.003 C 
ENDBRANCH  30  32
ENDBRANCH  29  30
ENDBRANCH  28  29
ENDBRANCH  27  28
ENDBRANCH  26  27
ENDBRANCH  25  26
ENDBRANCH  24  25
ENDBRANCH  23  24
ENDBRANCH  22  23
ENDBRANCH  21  22
ENDBRANCH  20  21
ENDBRANCH  19  20
ENDBRANCH  18  19
ENDBRANCH  16  18
ENDBRANCH  15  16
ENDBRANCH  14  15
ENDBRANCH   1  14
BRANCH   1  33
ATOM     33  O   UNL     1      13.436  10.424   3.629  0.00  0.00    -0.456 OA
BRANCH  33  34
ATOM     34  C   UNL     1      12.394   9.702   3.152  0.00  0.00    +0.308 C 
ATOM     35  O   UNL     1      11.389  10.185   2.642  0.00  0.00    -0.251 OA
BRANCH  34  36
ATOM     36  C   UNL     1      12.667   8.226   3.258  0.00  0.00    +0.120 C 
BRANCH  36  37
ATOM     37  C   UNL     1      11.941   7.444   2.158  0.00  0.00    +0.011 C 
BRANCH  37  38
ATOM     38  C   UNL     1      12.381   7.861   0.749  0.00  0.00    +0.001 C 
BRANCH  38  39
ATOM     39  C   UNL     1      11.606   7.098  -0.325  0.00  0.00    +0.000 C 
BRANCH  39  40
ATOM     40  C   UNL     1      12.017   7.553  -1.726  0.00  0.00    +0.000 C 
BRANCH  40  41
ATOM     41  C   UNL     1      11.245   6.791  -2.803  0.00  0.00    +0.004 C 
BRANCH  41  42
ATOM     42  C   UNL     1      11.663   7.243  -4.203  0.00  0.00    +0.027 C 
BRANCH  42  43
ATOM     43  C   UNL     1      10.912   6.488  -5.260  0.00  0.00    -0.031 C 
ATOM     44  C   UNL     1      10.103   7.068  -6.161  0.00  0.00    -0.027 C 
BRANCH  44  45
ATOM     45  C   UNL     1       9.343   6.313  -7.213  0.00  0.00    +0.053 C 
BRANCH  45  46
ATOM     46  C   UNL     1       9.746   6.755  -8.590  0.00  0.00    -0.027 C 
ATOM     47  C   UNL     1       8.895   7.279  -9.486  0.00  0.00    -0.031 C 
BRANCH  47  48
ATOM     48  C   UNL     1       9.294   7.711 -10.867  0.00  0.00    +0.027 C 
BRANCH  48  49
ATOM     49  C   UNL     1       9.010   9.199 -11.084  0.00  0.00    +0.004 C 
BRANCH  49  50
ATOM     50  C   UNL     1       9.407   9.633 -12.495  0.00  0.00    +0.000 C 
BRANCH  50  51
ATOM     51  C   UNL     1       9.132  11.119 -12.721  0.00  0.00    -0.003 C 
ATOM     52  C   UNL     1       9.534  11.546 -14.124  0.00  0.00    +0.004 C 
ENDBRANCH  50  51
ENDBRANCH  49  50
ENDBRANCH  48  49
ENDBRANCH  47  48
ENDBRANCH  45  46
ENDBRANCH  44  45
ENDBRANCH  42  43
ENDBRANCH  41  42
ENDBRANCH  40  41
ENDBRANCH  39  40
ENDBRANCH  38  39
ENDBRANCH  37  38
ENDBRANCH  36  37
ENDBRANCH  34  36
ENDBRANCH  33  34
ENDBRANCH   1  33
TORSDOF 40
