REMARK  Name = 
REMARK  14 active torsions:
REMARK  status: ('A' for Active; 'I' for Inactive)
REMARK    1  A    between atoms: O_1  and  C_2
REMARK    2  A    between atoms: C_2  and  C_3
REMARK    3  A    between atoms: C_3  and  O_5
REMARK    4  A    between atoms: C_3  and  C_6
REMARK    5  A    between atoms: C_6  and  O_8
REMARK    6  A    between atoms: C_6  and  C_9
REMARK    7  A    between atoms: C_9  and  O_11
REMARK    8  A    between atoms: C_9  and  C_12
REMARK    9  A    between atoms: C_12  and  O_14
REMARK   10  A    between atoms: C_12  and  C_15
REMARK   11  A    between atoms: C_15  and  O_16
REMARK   12  A    between atoms: O_16  and  P_17
REMARK   13  A    between atoms: P_17  and  O_18
REMARK   14  A    between atoms: P_17  and  O_19
REMARK                            x       y       z     vdW  Elec       q    Type
REMARK                         _______ _______ _______ _____ _____    ______ ____
ROOT
ATOM      1  C   UNL     1       6.786  -0.667  -1.789  0.00  0.00    +0.176 C 
ENDROOT
BRANCH   1   2
ATOM      2  O   UNL     1       5.614  -0.163  -2.463  0.00  0.00    -0.386 OA
ATOM      3  H   UNL     1       5.882   0.454  -3.161  0.00  0.00    +0.210 HD
ENDBRANCH   1   2
BRANCH   1   4
ATOM      4  C   UNL     1       8.057  -0.411  -2.650  0.00  0.00    +0.176 C 
BRANCH   4   5
ATOM      5  O   UNL     1       8.315   1.003  -2.770  0.00  0.00    -0.386 OA
ATOM      6  H   UNL     1       7.503   1.498  -2.580  0.00  0.00    +0.210 HD
ENDBRANCH   4   5
BRANCH   4   7
ATOM      7  C   UNL     1       9.309  -1.119  -2.092  0.00  0.00    +0.171 C 
BRANCH   7   8
ATOM      8  O   UNL     1       9.486  -0.806  -0.699  0.00  0.00    -0.387 OA
ATOM      9  H   UNL     1      10.393  -1.110  -0.490  0.00  0.00    +0.210 HD
ENDBRANCH   7   8
BRANCH   7  10
ATOM     10  C   UNL     1      10.590  -0.764  -2.848  0.00  0.00    +0.189 C 
BRANCH  10  11
ATOM     11  O   UNL     1      11.646  -1.586  -2.332  0.00  0.00    -0.392 OA
ATOM     12  H   UNL     1      12.402  -1.476  -2.934  0.00  0.00    +0.210 HD
ENDBRANCH  10  11
ENDBRANCH   7  10
ENDBRANCH   4   7
ENDBRANCH   1   4
BRANCH   1  13
ATOM     13  C   UNL     1       6.595  -2.164  -1.470  0.00  0.00    +0.172 C 
BRANCH  13  14
ATOM     14  O   UNL     1       6.701  -2.937  -2.682  0.00  0.00    -0.387 OA
ATOM     15  H   UNL     1       6.408  -3.837  -2.437  0.00  0.00    +0.210 HD
ENDBRANCH  13  14
BRANCH  13  16
ATOM     16  C   UNL     1       5.276  -2.518  -0.779  0.00  0.00    +0.206 C 
BRANCH  16  17
ATOM     17  O   UNL     1       5.326  -3.931  -0.563  0.00  0.00    -0.284 OA
BRANCH  17  18
ATOM     18  P   UNL     1       4.499  -4.535   0.655  0.00  0.00    +0.472 P 
ATOM     19  O   UNL     1       3.013  -4.448   0.608  0.00  0.00    -0.228 OA
BRANCH  18  20
ATOM     20  O   UNL     1       5.210  -3.986   1.969  0.00  0.00    -0.303 OA
ATOM     21  H   UNL     1       6.041  -4.469   2.130  0.00  0.00    +0.222 HD
ENDBRANCH  18  20
BRANCH  18  22
ATOM     22  O   UNL     1       4.999  -6.053   0.700  0.00  0.00    -0.303 OA
ATOM     23  H   UNL     1       4.400  -6.623   0.182  0.00  0.00    +0.222 HD
ENDBRANCH  18  22
ENDBRANCH  17  18
ENDBRANCH  16  17
ENDBRANCH  13  16
ENDBRANCH   1  13
TORSDOF 14
