REMARK  Name = 
REMARK  15 active torsions:
REMARK  status: ('A' for Active; 'I' for Inactive)
REMARK    1  A    between atoms: C_1  and  O_2
REMARK    2  A    between atoms: O_2  and  C_3
REMARK    3  A    between atoms: C_6  and  C_7
REMARK    4  A    between atoms: C_7  and  S_8
REMARK    5  A    between atoms: S_8  and  C_9
REMARK    6  A    between atoms: C_9  and  C_10
REMARK    7  A    between atoms: C_10  and  N_12
REMARK    8  A    between atoms: C_10  and  C_19
REMARK    9  A    between atoms: C_13  and  C_15
REMARK   10  A    between atoms: C_15  and  C_16
REMARK   11  A    between atoms: C_16  and  C_17
REMARK   12  A    between atoms: C_17  and  N_18
REMARK   13  A    between atoms: N_21  and  CA_22
REMARK   14  A    between atoms: CA_22  and  C_23
REMARK   15  A    between atoms: C_23  and  O_24
REMARK                            x       y       z     vdW  Elec       q    Type
REMARK                         _______ _______ _______ _____ _____    ______ ____
ROOT
ATOM      1  C   UNK A   1       9.224   5.800   1.275  0.00  0.00    +0.169 C 
ENDROOT
BRANCH   1   2
ATOM      2  C   UNK A   1      10.028   7.107   1.141  0.00  0.00    +0.235 C 
ATOM      3  N   UNK A   1      11.392   6.970   1.344  0.00  0.00    -0.303 N 
ATOM      4  H   UNK A   1      11.709   6.081   1.742  0.00  0.00    +0.149 HD
ATOM      5  O   UNK A   1       9.515   8.195   0.900  0.00  0.00    -0.274 OA
BRANCH   3   6
ATOM      6  C   UNK A   1      12.260   8.138   1.502  0.00  0.00    +0.224 C 
BRANCH   6   7
ATOM      7  C   UNK A   1      12.892   8.600   0.191  0.00  0.00    +0.322 C 
ATOM      8  O   UNK A   1      13.643   9.558   0.092  0.00  0.00    -0.249 OA
BRANCH   7   9
ATOM      9  O   UNK A   1      12.579   7.807  -0.864  0.00  0.00    -0.480 OA
ATOM     10  H   UNK A   1      11.957   7.117  -0.558  0.00  0.00    +0.295 HD
ENDBRANCH   7   9
ENDBRANCH   6   7
ENDBRANCH   3   6
ENDBRANCH   1   2
BRANCH   1  11
ATOM     11  N   UNK A   1       9.729   4.828   0.297  0.00  0.00    -0.303 N 
ATOM     12  H   UNK A   1       9.258   4.762  -0.599  0.00  0.00    +0.149 HD
ATOM     13  C   UNK A   0      10.802   4.017   0.573  0.00  0.00    +0.214 C 
ATOM     14  O   UNK A   0      11.435   4.121   1.620  0.00  0.00    -0.276 OA
BRANCH  13  15
ATOM     15  C   UNK A   0      11.194   3.092  -0.560  0.00  0.00    +0.097 C 
BRANCH  15  16
ATOM     16  C   UNK A   0      11.765   1.765  -0.067  0.00  0.00    +0.024 C 
BRANCH  16  17
ATOM     17  C   UNK A   0      10.713   0.925   0.658  0.00  0.00    +0.078 C 
BRANCH  17  18
ATOM     18  N   UNK A   0      11.284  -0.348   1.075  0.00  0.00    -0.330 NA
ATOM     19  H   UNK A   0      10.565  -0.918   1.521  0.00  0.00    +0.118 HD
ATOM     20  H   UNK A   0      11.610  -0.873   0.265  0.00  0.00    +0.118 HD
ENDBRANCH  17  18
ENDBRANCH  16  17
ENDBRANCH  15  16
ENDBRANCH  13  15
ENDBRANCH   1  11
BRANCH   1  21
ATOM     21  C   UNK A   1       7.723   6.079   1.109  0.00  0.00    +0.101 C 
BRANCH  21  22
ATOM     22  S   UNK A   1       6.665   4.581   1.178  0.00  0.00    -0.154 S 
BRANCH  22  23
ATOM     23  C   UNK A   1       7.010   4.032   2.884  0.00  0.00    +0.104 C 
BRANCH  23  27
ATOM     24  C   UNK A   1       4.981   0.384   4.041  0.00  0.00    +0.120 A 
ATOM     25  C   UNK A   1       4.787   1.565   4.761  0.00  0.00    +0.046 A 
ATOM     26  C   UNK A   1       5.420   2.751   4.376  0.00  0.00    +0.008 A 
ATOM     27  C   UNK A   1       6.264   2.774   3.258  0.00  0.00    -0.037 A 
ATOM     28  C   UNK A   1       6.454   1.584   2.541  0.00  0.00    +0.008 A 
ATOM     29  C   UNK A   1       5.812   0.401   2.923  0.00  0.00    +0.046 A 
BRANCH  24  31
ATOM     30  C   UNK A   1       4.502  -1.935   3.842  0.00  0.00    +0.277 C 
ATOM     31  O   UNK A   1       4.316  -0.705   4.533  0.00  0.00    -0.495 OA
ENDBRANCH  24  31
ENDBRANCH  23  27
ENDBRANCH  22  23
ENDBRANCH  21  22
ENDBRANCH   1  21
TORSDOF 14
