REMARK  Name = 
REMARK  13 active torsions:
REMARK  status: ('A' for Active; 'I' for Inactive)
REMARK    1  A    between atoms: C_1  and  O_2
REMARK    2  A    between atoms: O_2  and  C_3
REMARK    3  A    between atoms: C_4  and  O_5
REMARK    4  A    between atoms: O_5  and  C_6
REMARK    5  A    between atoms: C_7  and  O_8
REMARK    6  A    between atoms: O_8  and  C_9
REMARK    7  A    between atoms: C_12  and  C_13
REMARK    8  A    between atoms: C_13  and  C_14
REMARK    9  A    between atoms: C_17  and  N_18
REMARK   10  A    between atoms: N_24  and  C_25
REMARK   11  A    between atoms: C_25  and  C_26
REMARK   12  A    between atoms: C_26  and  C_27
REMARK   13  A    between atoms: C_27  and  C_28
REMARK                            x       y       z     vdW  Elec       q    Type
REMARK                         _______ _______ _______ _____ _____    ______ ____
ROOT
ATOM      1  C   UNL     1       1.311  -4.632  -0.737  0.00  0.00    +0.116 A 
ATOM      2  N   UNL     1      -0.023  -4.787  -0.401  0.00  0.00    -0.312 N 
ATOM      3  C   UNL     1      -0.759  -4.738  -1.558  0.00  0.00    +0.168 A 
ATOM      4  C   UNL     1       0.166  -4.637  -2.577  0.00  0.00    +0.148 A 
ATOM      5  C   UNL     1      -0.353  -4.713  -3.886  0.00  0.00    +0.150 A 
ATOM      6  N   UNL     1      -1.685  -4.844  -4.061  0.00  0.00    -0.185 NA
ATOM      7  C   UNL     1      -2.473  -4.905  -2.973  0.00  0.00    +0.313 A 
ATOM      8  F   UNL     1      -3.785  -5.080  -3.192  0.00  0.00    -0.161 F 
ATOM      9  N   UNL     1      -2.091  -4.841  -1.689  0.00  0.00    -0.182 NA
ATOM     10  N   UNL     1       1.441  -4.517  -2.054  0.00  0.00    -0.227 NA
ENDROOT
BRANCH   5  11
ATOM     11  N   UNL     1       0.421  -4.681  -5.043  0.00  0.00    -0.341 N 
ATOM     12  H   UNL     1      -0.113  -4.446  -5.858  0.00  0.00    +0.144 HD
ATOM     13  H   UNL     1       1.331  -4.245  -4.924  0.00  0.00    +0.144 HD
ENDBRANCH   5  11
BRANCH   1  14
ATOM     14  C   UNL     1       2.447  -4.797   0.248  0.00  0.00    +0.111 C 
BRANCH  14  17
ATOM     15  C   UNL     1       4.411  -1.579   0.608  0.00  0.00    +0.166 A 
ATOM     16  C   UNL     1       3.567  -2.575   0.099  0.00  0.00    +0.055 A 
ATOM     17  C   UNL     1       2.974  -3.540   0.929  0.00  0.00    -0.015 A 
ATOM     18  C   UNL     1       3.104  -3.394   2.328  0.00  0.00    +0.090 A 
ATOM     19 CL   UNL     1       2.336  -4.550   3.374  0.00  0.00    -0.079 Cl
ATOM     20  C   UNL     1       3.912  -2.365   2.866  0.00  0.00    +0.184 A 
ATOM     21  C   UNL     1       4.642  -1.520   1.996  0.00  0.00    +0.205 A 
BRANCH  15  23
ATOM     22  C   UNL     1       4.666  -0.545  -1.544  0.00  0.00    +0.277 C 
ATOM     23  O   UNL     1       5.073  -0.687  -0.191  0.00  0.00    -0.491 OA
ENDBRANCH  15  23
BRANCH  20  24
ATOM     24  O   UNL     1       4.175  -2.225   4.213  0.00  0.00    -0.490 OA
ATOM     25  C   UNL     1       3.035  -2.051   5.054  0.00  0.00    +0.277 C 
ENDBRANCH  20  24
BRANCH  21  26
ATOM     26  O   UNL     1       5.523  -0.648   2.604  0.00  0.00    -0.488 OA
ATOM     27  C   UNL     1       6.731  -0.363   1.898  0.00  0.00    +0.277 C 
ENDBRANCH  21  26
ENDBRANCH  14  17
ENDBRANCH   1  14
BRANCH   2  28
ATOM     28  C   UNL     1      -0.543  -5.093   0.915  0.00  0.00    +0.126 C 
BRANCH  28  29
ATOM     29  C   UNL     1      -1.639  -6.135   0.905  0.00  0.00    +0.034 C 
BRANCH  29  30
ATOM     30  C   UNL     1      -2.078  -6.483   2.308  0.00  0.00    +0.090 C 
BRANCH  30  31
ATOM     31  C   UNL     1      -3.167  -7.529   2.133  0.00  0.00    -0.106 C 
ATOM     32  C   UNL     1      -4.101  -8.426   1.983  0.00  0.00    +0.004 C 
ENDBRANCH  30  31
ENDBRANCH  29  30
ENDBRANCH  28  29
ENDBRANCH   2  28
TORSDOF 10
