REMARK  Name = 
REMARK  14 active torsions:
REMARK  status: ('A' for Active; 'I' for Inactive)
REMARK    1  A    between atoms: N_8  and  C_9
REMARK    2  A    between atoms: C_12  and  C_14
REMARK    3  A    between atoms: C_14  and  O_15
REMARK    4  A    between atoms: O_15  and  P_16
REMARK    5  A    between atoms: P_16  and  O_17
REMARK    6  A    between atoms: P_16  and  O_19
REMARK    7  A    between atoms: O_19  and  P_20
REMARK    8  A    between atoms: P_20  and  O_21
REMARK    9  A    between atoms: P_20  and  N_23
REMARK   10  A    between atoms: N_23  and  P_24
REMARK   11  A    between atoms: P_24  and  O_25
REMARK   12  A    between atoms: P_24  and  O_26
REMARK   13  A    between atoms: C_28  and  O_30
REMARK   14  A    between atoms: C_31  and  O_33
REMARK                            x       y       z     vdW  Elec       q    Type
REMARK                         _______ _______ _______ _____ _____    ______ ____
ROOT
ATOM      1  C   UNL     1      12.473  -4.985  -1.593  0.00  0.00    +0.253 C 
ATOM      2  C   UNL     1      12.518  -4.906  -0.058  0.00  0.00    +0.195 C 
ATOM      3  C   UNL     1      11.081  -5.186   0.397  0.00  0.00    +0.178 C 
ATOM      4  C   UNL     1      10.317  -5.469  -0.896  0.00  0.00    +0.178 C 
ATOM      5  O   UNL     1      11.313  -5.817  -1.878  0.00  0.00    -0.346 OA
ENDROOT
BRANCH   1  17
ATOM      6  N   UNL     1      15.883  -1.035  -0.651  0.00  0.00    -0.329 N 
ATOM      7  H   UNL     1      16.500  -0.310  -0.989  0.00  0.00    +0.145 HD
ATOM      8  H   UNL     1      16.371  -1.875  -0.357  0.00  0.00    +0.145 HD
ATOM      9  C   UNL     1      14.772  -1.304  -1.382  0.00  0.00    +0.195 A 
ATOM     10  N   UNL     1      14.249  -0.244  -2.096  0.00  0.00    -0.293 N 
ATOM     11  H   UNL     1      14.647   0.675  -2.004  0.00  0.00    +0.172 HD
ATOM     12  C   UNL     1      13.143  -0.325  -2.919  0.00  0.00    +0.280 A 
ATOM     13  O   UNL     1      12.713   0.661  -3.538  0.00  0.00    -0.265 OA
ATOM     14  C   UNL     1      12.570  -1.650  -2.945  0.00  0.00    +0.172 A 
ATOM     15  N   UNL     1      11.494  -2.140  -3.635  0.00  0.00    -0.229 NA
ATOM     16  C   UNL     1      11.410  -3.396  -3.249  0.00  0.00    +0.203 A 
ATOM     17  N   UNL     1      12.347  -3.716  -2.294  0.00  0.00    -0.285 N 
ATOM     18  C   UNL     1      13.157  -2.620  -2.163  0.00  0.00    +0.171 A 
ATOM     19  N   UNL     1      14.264  -2.509  -1.389  0.00  0.00    -0.196 NA
ENDBRANCH   1  17
BRANCH   2  20
ATOM     20  O   UNL     1      13.386  -5.935   0.470  0.00  0.00    -0.385 OA
ATOM     21  H   UNL     1      13.068  -6.799   0.157  0.00  0.00    +0.210 HD
ENDBRANCH   2  20
BRANCH   3  22
ATOM     22  O   UNL     1      10.542  -4.053   1.072  0.00  0.00    -0.386 OA
ATOM     23  H   UNL     1       9.627  -4.270   1.331  0.00  0.00    +0.210 HD
ENDBRANCH   3  22
BRANCH   4  24
ATOM     24  C   UNL     1       9.267  -6.580  -0.789  0.00  0.00    +0.206 C 
BRANCH  24  25
ATOM     25  O   UNL     1       8.326  -6.299   0.237  0.00  0.00    -0.284 OA
BRANCH  25  26
ATOM     26  P   UNL     1       7.033  -7.252   0.375  0.00  0.00    +0.483 P 
ATOM     27  O   UNL     1       6.177  -7.415  -0.831  0.00  0.00    -0.227 OA
BRANCH  26  28
ATOM     28  O   UNL     1       7.708  -8.657   0.761  0.00  0.00    -0.302 OA
ATOM     29  H   UNL     1       7.657  -9.271   0.004  0.00  0.00    +0.222 HD
ENDBRANCH  26  28
BRANCH  26  30
ATOM     30  O   UNL     1       6.366  -6.888   1.754  0.00  0.00    -0.196 OA
BRANCH  30  31
ATOM     31  P   UNL     1       4.846  -6.847   2.230  0.00  0.00    +0.423 P 
ATOM     32  O   UNL     1       4.423  -5.791   1.234  0.00  0.00    -0.239 OA
BRANCH  31  33
ATOM     33  N   UNL     1       3.844  -6.284   3.352  0.00  0.00    -0.125 NA
ATOM     34  H   UNL     1       3.483  -5.379   3.099  0.00  0.00    +0.146 HD
BRANCH  33  35
ATOM     35  P   UNL     1       2.543  -7.391   3.851  0.00  0.00    +0.412 P 
ATOM     36  O   UNL     1       1.411  -8.354   4.285  0.00  0.00    -0.240 OA
BRANCH  35  37
ATOM     37  O   UNL     1       2.314  -6.446   5.162  0.00  0.00    -0.312 OA
ATOM     38  H   UNL     1       1.594  -6.865   5.679  0.00  0.00    +0.221 HD
ENDBRANCH  35  37
BRANCH  35  39
ATOM     39  O   UNL     1       3.722  -8.307   4.523  0.00  0.00    -0.312 OA
ATOM     40  H   UNL     1       3.959  -7.889   5.372  0.00  0.00    +0.221 HD
ENDBRANCH  35  39
ENDBRANCH  33  35
ENDBRANCH  31  33
BRANCH  31  41
ATOM     41  O   UNL     1       5.781  -6.375   3.517  0.00  0.00    -0.312 OA
ATOM     42  H   UNL     1       6.569  -6.947   3.550  0.00  0.00    +0.221 HD
ENDBRANCH  31  41
ENDBRANCH  30  31
ENDBRANCH  26  30
ENDBRANCH  25  26
ENDBRANCH  24  25
ENDBRANCH   4  24
TORSDOF 14
