REMARK  Name = 
REMARK  4 active torsions:
REMARK  status: ('A' for Active; 'I' for Inactive)
REMARK    1  A    between atoms: N_11  and  C1*_12
REMARK    2  A    between atoms: C3*_15  and  O3*_17
REMARK    3  A    between atoms: C4*_18  and  C5*_20
REMARK    4  A    between atoms: C5*_20  and  O5*_21
REMARK                            x       y       z     vdW  Elec       q    Type
REMARK                         _______ _______ _______ _____ _____    ______ ____
ROOT
ATOM      1  N   UNL     1       0.691   1.895  -0.593  0.00  0.00    -0.341 N 
ATOM      2  H   UNL     1       0.743   1.135   0.077  0.00  0.00    +0.144 HD
ATOM      3  H   UNL     1       0.033   1.814  -1.356  0.00  0.00    +0.144 HD
ATOM      4  C   UNL     1       1.924   2.396  -0.985  0.00  0.00    +0.150 A 
ATOM      5  C   UNL     1       3.101   2.210  -0.240  0.00  0.00    +0.147 A 
ATOM      6  N   UNL     1       3.367   1.542   0.937  0.00  0.00    -0.231 NA
ATOM      7  C   UNL     1       4.655   1.730   1.148  0.00  0.00    +0.203 A 
ATOM      8  N   UNL     1       5.230   2.488   0.163  0.00  0.00    -0.288 N 
ATOM      9  C   UNL     1       4.251   2.795  -0.742  0.00  0.00    +0.170 A 
ATOM     10  N   UNL     1       4.370   3.518  -1.866  0.00  0.00    -0.182 NA
ATOM     11  C   UNL     1       3.186   3.612  -2.510  0.00  0.00    +0.313 A 
ATOM     12  F   UNL     1       3.196   4.306  -3.659  0.00  0.00    -0.161 F 
ATOM     13  N   UNL     1       1.994   3.093  -2.139  0.00  0.00    -0.185 NA
ENDROOT
BRANCH   8  14
ATOM     14  C1* UNL     1       6.602   2.944   0.096  0.00  0.00    +0.225 C 
ATOM     15  O4* UNL     1       7.462   2.009   0.785  0.00  0.00    -0.348 OA
ATOM     16  C4* UNL     1       8.468   2.766   1.496  0.00  0.00    +0.175 C 
ATOM     17  C3* UNL     1       8.287   4.231   1.099  0.00  0.00    +0.150 C 
ATOM     18  C2* UNL     1       6.819   4.294   0.752  0.00  0.00    +0.088 C 
BRANCH  17  19
ATOM     19  O3* UNL     1       8.626   5.134   2.140  0.00  0.00    -0.389 OA
ATOM     20  H3* UNL     1       8.049   4.976   2.907  0.00  0.00    +0.210 HD
ENDBRANCH  17  19
BRANCH  16  21
ATOM     21  C5* UNL     1       9.852   2.217   1.150  0.00  0.00    +0.190 C 
BRANCH  21  22
ATOM     22  O5* UNL     1      10.071   2.264  -0.260  0.00  0.00    -0.392 OA
ATOM     23  H5* UNL     1       9.401   1.678  -0.659  0.00  0.00    +0.210 HD
ENDBRANCH  21  22
ENDBRANCH  16  21
ENDBRANCH   8  14
TORSDOF 4
