REMARK  Name = 
REMARK  13 active torsions:
REMARK  status: ('A' for Active; 'I' for Inactive)
REMARK    1  A    between atoms: C_1  and  C_2
REMARK    2  A    between atoms: C_5  and  C_6
REMARK    3  A    between atoms: C_6  and  O_7
REMARK    4  A    between atoms: O_7  and  P_8
REMARK    5  A    between atoms: P_8  and  O_9
REMARK    6  A    between atoms: P_8  and  O_10
REMARK    7  A    between atoms: C_12  and  C_13
REMARK    8  A    between atoms: C_13  and  N_14
REMARK    9  A    between atoms: N_14  and  O_15
REMARK   10  A    between atoms: O_15  and  C_16
REMARK   11  A    between atoms: C_16  and  C_17
REMARK   12  A    between atoms: C_17  and  O_18
REMARK   13  A    between atoms: C_20  and  O_21
REMARK                            x       y       z     vdW  Elec       q    Type
REMARK                         _______ _______ _______ _____ _____    ______ ____
ROOT
ATOM      1  C   UNL     1       0.958   0.137   0.107  0.00  0.00    +0.069 C 
ATOM      2  C   UNL     1       2.456   0.099   0.081  0.00  0.00    +0.080 A 
ATOM      3  C   UNL     1       3.142  -1.116   0.097  0.00  0.00    +0.143 A 
ATOM      4  C   UNL     1       4.547  -1.128   0.055  0.00  0.00    +0.019 A 
ATOM      5  C   UNL     1       5.213   0.110   0.022  0.00  0.00    +0.005 A 
ATOM      6  C   UNL     1       4.442   1.272   0.010  0.00  0.00    +0.117 A 
ATOM      7  N   UNL     1       3.094   1.292   0.029  0.00  0.00    -0.256 NA
ENDROOT
BRANCH   3   8
ATOM      8  O   UNL     1       2.424  -2.281   0.172  0.00  0.00    -0.505 OA
ATOM      9  H   UNL     1       3.016  -3.014  -0.091  0.00  0.00    +0.292 HD
ENDBRANCH   3   8
BRANCH   4  10
ATOM     10  C   UNL     1       5.313  -2.422   0.150  0.00  0.00    +0.150 C 
BRANCH  10  11
ATOM     11  N   UNL     1       4.848  -3.426  -0.822  0.00  0.00    -0.196 NA
ATOM     12  H   UNL     1       5.093  -3.088  -1.766  0.00  0.00    +0.154 HD
BRANCH  11  13
ATOM     13  O   UNL     1       5.778  -4.558  -0.682  0.00  0.00    -0.288 OA
BRANCH  13  14
ATOM     14  C   UNL     1       5.304  -5.424   0.353  0.00  0.00    +0.305 C 
BRANCH  14  15
ATOM     15  C   UNL     1       6.125  -6.694   0.454  0.00  0.00    +0.333 C 
ATOM     16  O   UNL     1       6.022  -7.480   1.383  0.00  0.00    -0.248 OA
BRANCH  15  17
ATOM     17  O   UNL     1       6.985  -6.885  -0.568  0.00  0.00    -0.479 OA
ATOM     18  H   UNL     1       6.953  -6.148  -1.217  0.00  0.00    +0.295 HD
ENDBRANCH  15  17
ENDBRANCH  14  15
ENDBRANCH  13  14
ENDBRANCH  11  13
ENDBRANCH  10  11
ENDBRANCH   4  10
BRANCH   5  19
ATOM     19  C   UNL     1       6.711   0.245   0.022  0.00  0.00    +0.209 C 
BRANCH  19  20
ATOM     20  O   UNL     1       7.184  -0.341  -1.170  0.00  0.00    -0.282 OA
BRANCH  20  21
ATOM     21  P   UNL     1       8.763  -0.426  -1.366  0.00  0.00    +0.473 P 
ATOM     22  O   UNL     1       9.531   0.789  -0.999  0.00  0.00    -0.228 OA
BRANCH  21  23
ATOM     23  O   UNL     1       8.885  -0.896  -2.884  0.00  0.00    -0.303 OA
ATOM     24  H   UNL     1       8.455  -0.263  -3.486  0.00  0.00    +0.222 HD
ENDBRANCH  21  23
BRANCH  21  25
ATOM     25  O   UNL     1       9.154  -1.737  -0.546  0.00  0.00    -0.303 OA
ATOM     26  H   UNL     1       9.508  -1.532   0.337  0.00  0.00    +0.222 HD
ENDBRANCH  21  25
ENDBRANCH  20  21
ENDBRANCH  19  20
ENDBRANCH   5  19
TORSDOF 12
