REMARK  Name = 
REMARK  33 active torsions:
REMARK  status: ('A' for Active; 'I' for Inactive)
REMARK    1  A    between atoms: C_1  and  C_2
REMARK    2  A    between atoms: C_2  and  C_3
REMARK    3  A    between atoms: C_4  and  C_5
REMARK    4  A    between atoms: C_9  and  C_10
REMARK    5  A    between atoms: C_12  and  C_13
REMARK    6  A    between atoms: C_17  and  C_19
REMARK    7  A    between atoms: C_20  and  C_22
REMARK    8  A    between atoms: C_22  and  C_23
REMARK    9  A    between atoms: C_23  and  C_24
REMARK   10  A    between atoms: C_24  and  O_26
REMARK   11  A    between atoms: O_26  and  C_27
REMARK   12  A    between atoms: C_27  and  C_28
REMARK   13  A    between atoms: C_29  and  C_30
REMARK   14  A    between atoms: C_29  and  C_31
REMARK   15  A    between atoms: C_31  and  C_32
REMARK   16  A    between atoms: C_32  and  C_33
REMARK   17  A    between atoms: C_33  and  C_34
REMARK   18  A    between atoms: C_34  and  C_36
REMARK   19  A    between atoms: C_34  and  C_37
REMARK   20  A    between atoms: C_37  and  C_38
REMARK   21  A    between atoms: C_38  and  C_39
REMARK   22  A    between atoms: C_39  and  C_40
REMARK   23  A    between atoms: C_40  and  C_42
REMARK   24  A    between atoms: C_40  and  C_43
REMARK   25  A    between atoms: C_43  and  C_44
REMARK   26  A    between atoms: C_44  and  C_45
REMARK   27  A    between atoms: C_45  and  C_46
REMARK   28  A    between atoms: C_46  and  C_47
REMARK   29  A    between atoms: C_46  and  C_48
REMARK   30  A    between atoms: C_58  and  C_59
REMARK   31  A    between atoms: C_63  and  C_65
REMARK   32  A    between atoms: C_65  and  O_67
REMARK   33  A    between atoms: O_67  and  C_68
REMARK                            x       y       z     vdW  Elec       q    Type
REMARK                         _______ _______ _______ _____ _____    ______ ____
ROOT
ATOM      1  C   UNL     1      -0.320  20.984  22.205  0.00  0.00    +0.000 C 
ATOM      2  C   UNL     1       0.392  19.065  20.451  0.00  0.00    +0.000 C 
ATOM      3  N   UNL     1       1.659  18.937  20.968  0.00  0.00    +1.000 N 
ATOM      4 MG   UNL     1       3.897  18.765  18.165  0.00  0.00    +0.000 Mg
ATOM      5  N   UNL     1       3.450  17.526  14.627  0.00  0.00    +0.000 N 
ATOM      6  C   UNL     1       4.228  18.258  13.148  0.00  0.00    +0.000 A 
ATOM      7  C   UNL     1       4.243  18.312  11.262  0.00  0.00    +0.000 A 
ATOM      8  C   UNL     1       3.240  19.105  10.780  0.00  0.00    +0.000 C 
ATOM      9  C   UNL     1       2.402  19.312  12.023  0.00  0.00    +0.000 C 
ATOM     10  O   UNL     1       2.677  18.819   9.552  0.00  0.00    +0.000 OA
ATOM     11  C   UNL     1       3.681  17.312  11.191  0.00  0.00    +0.000 A 
ATOM     12  C   UNL     1       5.033  16.865   8.955  0.00  0.00    +0.000 C 
ATOM     13  C   UNL     1       3.801  19.352  13.326  0.00  0.00    +0.000 C 
ATOM     14  C   UNL     1       4.044  19.450  15.248  0.00  0.00    +0.000 C 
ATOM     15  C   UNL     1       3.147  19.289  15.933  0.00  0.00    +0.000 C 
ATOM     16  C   UNL     1       4.540  20.726  15.473  0.00  0.00    +0.000 C 
ATOM     17  C   UNL     1       6.450  20.695  15.713  0.00  0.00    +0.000 C 
ATOM     18  C   UNL     1       4.785  20.407  16.470  0.00  0.00    +0.000 C 
ATOM     19  C   UNL     1       4.674  21.318  17.450  0.00  0.00    +0.000 C 
ATOM     20  C   UNL     1       4.086  21.584  18.609  0.00  0.00    +0.000 A 
ATOM     21  C   UNL     1       3.892  22.780  19.386  0.00  0.00    +0.000 A 
ATOM     22  C   UNL     1       4.539  23.925  19.165  0.00  0.00    +0.000 C 
ATOM     23  C   UNL     1       3.133  22.555  20.387  0.00  0.00    +0.000 A 
ATOM     24  C   UNL     1       2.699  21.370  19.947  0.00  0.00    +0.000 A 
ATOM     25  C   UNL     1       2.066  20.663  20.204  0.00  0.00    +0.000 C 
ATOM     26  C   UNL     1       2.404  17.466  14.092  0.00  0.00    +0.000 A 
ATOM     27  N   UNL     1       3.493  20.730  19.031  0.00  0.00    +0.000 N 
ATOM     28  N   UNL     1       4.858  19.210  16.163  0.00  0.00    +1.000 N 
ATOM     29  C   UNL     1       1.662  20.384  21.243  0.00  0.00    +0.000 C 
ATOM     30  C   UNL     1       0.508  18.321  17.232  0.00  0.00    +0.000 C 
ATOM     31  C   UNL     1       0.653  21.643  21.967  0.00  0.00    +0.000 C 
ATOM     32  C   UNL     1       0.548  23.196  21.996  0.00  0.00    +0.000 C 
ENDROOT
BRANCH  23  33
ATOM     33  C   UNL     1       3.190  23.580  21.778  0.00  0.00    +0.000 C 
ATOM     34  C   UNL     1       3.229  24.981  21.893  0.00  0.00    +0.000 C 
ENDBRANCH  23  33
BRANCH   1  36
ATOM     35  C   UNL     1      -2.110  22.892  25.448  0.00  0.00    +0.000 C 
ATOM     36  C   UNL     1      -1.123  22.509  23.976  0.00  0.00    +0.000 C 
ENDBRANCH   1  36
BRANCH   9  37
ATOM     37  C   UNL     1       1.406  17.814  11.841  0.00  0.00    +0.000 C 
ATOM     38  O   UNL     1       0.316  17.968  12.293  0.00  0.00    +0.000 OA
BRANCH  37  39
ATOM     39  O   UNL     1       1.667  16.401  11.593  0.00  0.00    +0.000 OA
ATOM     40  C   UNL     1       0.640  15.444  11.618  0.00  0.00    +0.000 C 
ENDBRANCH  37  39
ENDBRANCH   9  37
BRANCH  15  41
ATOM     41  C   UNL     1       3.829  17.254  16.729  0.00  0.00    +0.000 C 
BRANCH  41  42
ATOM     42  C   UNL     1       3.532  15.859  16.157  0.00  0.00    +0.000 C 
BRANCH  42  43
ATOM     43  C   UNL     1       4.100  14.852  16.908  0.00  0.00    +0.000 C 
ATOM     44  O   UNL     1       5.316  14.666  16.977  0.00  0.00    +0.000 OA
BRANCH  43  45
ATOM     45  O   UNL     1       3.195  14.281  17.650  0.00  0.00    +0.000 OA
BRANCH  45  46
ATOM     46  C   UNL     1       3.516  13.721  18.806  0.00  0.00    +0.000 C 
BRANCH  46  47
ATOM     47  C   UNL     1       2.641  14.264  19.883  0.00  0.00    +0.000 C 
ATOM     48  C   UNL     1       2.755  13.790  21.129  0.00  0.00    +0.000 C 
ATOM     49  C   UNL     1       3.766  12.701  21.456  0.00  0.00    +0.000 C 
BRANCH  48  50
ATOM     50  C   UNL     1       1.856  14.333  22.212  0.00  0.00    +0.000 C 
BRANCH  50  51
ATOM     51  C   UNL     1       2.529  14.281  23.556  0.00  0.00    +0.000 C 
BRANCH  51  52
ATOM     52  C   UNL     1       3.784  15.153  23.595  0.00  0.00    +0.000 C 
BRANCH  52  53
ATOM     53  C   UNL     1       4.418  15.024  24.957  0.00  0.00    +0.000 C 
ATOM     54  C   UNL     1       3.470  15.550  26.038  0.00  0.00    +0.000 C 
BRANCH  53  55
ATOM     55  C   UNL     1       5.731  15.793  24.983  0.00  0.00    +0.000 C 
BRANCH  55  56
ATOM     56  C   UNL     1       6.395  15.666  26.328  0.00  0.00    +0.000 C 
BRANCH  56  57
ATOM     57  C   UNL     1       6.720  14.219  26.669  0.00  0.00    +0.000 C 
BRANCH  57  58
ATOM     58  C   UNL     1       7.367  14.166  28.037  0.00  0.00    +0.000 C 
ATOM     59  C   UNL     1       8.667  14.975  28.032  0.00  0.00    +0.000 C 
BRANCH  58  60
ATOM     60  C   UNL     1       7.639  12.713  28.399  0.00  0.00    +0.000 C 
BRANCH  60  61
ATOM     61  C   UNL     1       8.233  12.646  29.785  0.00  0.00    +0.000 C 
BRANCH  61  62
ATOM     62  C   UNL     1       8.521  11.226  30.190  0.00  0.00    +0.000 C 
BRANCH  62  63
ATOM     63  C   UNL     1       9.142  11.196  31.585  0.00  0.00    +0.000 C 
ATOM     64  C   UNL     1       9.445   9.756  31.963  0.00  0.00    +0.000 C 
ATOM     65  C   UNL     1       8.189  11.802  32.617  0.00  0.00    +0.000 C 
ENDBRANCH  62  63
ENDBRANCH  61  62
ENDBRANCH  60  61
ENDBRANCH  58  60
ENDBRANCH  57  58
ENDBRANCH  56  57
ENDBRANCH  55  56
ENDBRANCH  53  55
ENDBRANCH  52  53
ENDBRANCH  51  52
ENDBRANCH  50  51
ENDBRANCH  48  50
ENDBRANCH  46  47
ENDBRANCH  45  46
ENDBRANCH  43  45
ENDBRANCH  42  43
ENDBRANCH  41  42
ENDBRANCH  15  41
TORSDOF 22
