REMARK  Name = 
REMARK  13 active torsions:
REMARK  status: ('A' for Active; 'I' for Inactive)
REMARK    1  A    between atoms: C_2  and  O_3
REMARK    2  A    between atoms: C_2  and  C_4
REMARK    3  A    between atoms: C_2  and  N_22
REMARK    4  A    between atoms: C_4  and  C_5
REMARK    5  A    between atoms: C_5  and  C_6
REMARK    6  A    between atoms: C_6  and  C_7
REMARK    7  A    between atoms: C_7  and  C_8
REMARK    8  A    between atoms: C_8  and  C_9
REMARK    9  A    between atoms: C_9  and  N_10
REMARK   10  A    between atoms: C_11  and  C_13
REMARK   11  A    between atoms: C_16  and  N_19
REMARK   12  A    between atoms: N_19  and  C_20
REMARK   13  A    between atoms: N_19  and  C_21
REMARK                            x       y       z     vdW  Elec       q    Type
REMARK                         _______ _______ _______ _____ _____    ______ ____
ROOT
ATOM      1  N   UNL     1       2.510   7.626   4.189  0.00  0.00    -0.311 N 
ATOM      2  H   UNL     1       2.023   7.591   5.074  0.00  0.00    +0.149 HD
ATOM      3  C   UNL     1       3.728   8.269   4.106  0.00  0.00    +0.244 C 
ATOM      4  O   UNL     1       4.469   8.176   3.134  0.00  0.00    -0.270 OA
ENDROOT
BRANCH   3   5
ATOM      5  C   UNL     1       4.154   9.077   5.283  0.00  0.00    +0.037 A 
ATOM      6  C   UNL     1       3.255   9.680   6.163  0.00  0.00    +0.015 A 
ATOM      7  C   UNL     1       3.732  10.425   7.257  0.00  0.00    +0.024 A 
ATOM      8  C   UNL     1       5.105  10.610   7.511  0.00  0.00    +0.029 A 
ATOM      9  C   UNL     1       5.979  10.010   6.591  0.00  0.00    +0.024 A 
ATOM     10  C   UNL     1       5.520   9.259   5.499  0.00  0.00    +0.015 A 
BRANCH   8  11
ATOM     11  N   UNL     1       5.553  11.287   8.639  0.00  0.00    -0.336 N 
ATOM     12  C   UNL     1       6.951  11.225   9.063  0.00  0.00    +0.129 C 
ATOM     13  C   UNL     1       4.821  12.438   9.166  0.00  0.00    +0.129 C 
ENDBRANCH   8  11
ENDBRANCH   3   5
BRANCH   1  14
ATOM     14  C   UNL     1       2.037   6.783   3.107  0.00  0.00    +0.104 C 
BRANCH  14  15
ATOM     15  C   UNL     1       2.561   5.349   3.219  0.00  0.00    +0.019 C 
BRANCH  15  16
ATOM     16  C   UNL     1       2.091   4.495   2.039  0.00  0.00    +0.002 C 
BRANCH  16  17
ATOM     17  C   UNL     1       2.590   3.051   2.139  0.00  0.00    +0.000 C 
BRANCH  17  18
ATOM     18  C   UNL     1       2.113   2.219   0.944  0.00  0.00    +0.005 C 
BRANCH  18  19
ATOM     19  C   UNL     1       2.618   0.770   1.026  0.00  0.00    +0.059 C 
BRANCH  19  20
ATOM     20  C   UNL     1       2.161  -0.112  -0.148  0.00  0.00    +0.276 C 
BRANCH  20  21
ATOM     21  N   UNL     1       2.832   0.339  -1.409  0.00  0.00    -0.037 NA
ATOM     22  O   UNL     1       3.616  -0.507  -1.856  0.00  0.00    -0.146 OA
ENDBRANCH  20  21
BRANCH  20  23
ATOM     23  O   UNL     1       0.735  -0.148  -0.189  0.00  0.00    -0.368 OA
ATOM     24  H   UNL     1       0.445  -0.626   0.605  0.00  0.00    +0.212 HD
ENDBRANCH  20  23
ENDBRANCH  19  20
ENDBRANCH  18  19
ENDBRANCH  17  18
ENDBRANCH  16  17
ENDBRANCH  15  16
ENDBRANCH  14  15
ENDBRANCH   1  14
TORSDOF 11
