REMARK  Name = 
REMARK  23 active torsions:
REMARK  status: ('A' for Active; 'I' for Inactive)
REMARK    1  A    between atoms: C_1  and  C_2
REMARK    2  A    between atoms: C_2  and  C_3
REMARK    3  A    between atoms: C_2  and  C_4
REMARK    4  A    between atoms: C_4  and  C_5
REMARK    5  A    between atoms: C_5  and  O_7
REMARK    6  A    between atoms: O_7  and  C_8
REMARK    7  A    between atoms: C_10  and  O_12
REMARK    8  A    between atoms: O_12  and  C_13
REMARK    9  A    between atoms: C_16  and  C_17
REMARK   10  A    between atoms: C_30  and  C_32
REMARK   11  A    between atoms: C_30  and  C_35
REMARK   12  A    between atoms: C_32  and  O_33
REMARK   13  A    between atoms: C_35  and  O_36
REMARK   14  A    between atoms: C_38  and  O_40
REMARK   15  A    between atoms: C_44  and  C_46
REMARK   16  A    between atoms: C_46  and  O_47
REMARK   17  A    between atoms: O_47  and  O_48
REMARK   18  A    between atoms: C_49  and  O_51
REMARK   19  A    between atoms: O_51  and  S_52
REMARK   20  A    between atoms: S_52  and  O_53
REMARK   21  A    between atoms: C_56  and  O_58
REMARK   22  A    between atoms: O_58  and  S_59
REMARK   23  A    between atoms: S_59  and  O_60
REMARK                            x       y       z     vdW  Elec       q    Type
REMARK                         _______ _______ _______ _____ _____    ______ ____
ROOT
ATOM      1  C   UNL     1      -0.000  -0.000  -0.000  0.00  0.00    +0.266 C 
ATOM      2  C   UNL     1      -0.000  -0.000  -0.000  0.00  0.00    +0.231 C 
ATOM      3  C   UNL     1      -0.000  -0.000  -0.000  0.00  0.00    +0.218 C 
ATOM      4  C   UNL     1      -0.000  -0.000  -0.000  0.00  0.00    +0.184 C 
ATOM      5  O   UNL     1      -0.000  -0.000  -0.000  0.00  0.00    -0.339 OA
ATOM      6  C   UNL     1      -0.000  -0.000  -0.000  0.00  0.00    +0.295 C 
ENDROOT
BRANCH   4   7
ATOM      7  C   UNL     1      -0.000  -0.000  -0.000  0.00  0.00    +0.235 C 
BRANCH   7   8
ATOM      8  O   UNL     1      -0.000  -0.000  -0.000  0.00  0.00    -0.235 OA
BRANCH   8   9
ATOM      9  O   UNL     1      -0.000  -0.000  -0.000  0.00  0.00    -0.250 OA
ATOM     10  H   UNL     1      -0.000  -0.000  -0.000  0.00  0.00    +0.253 HD
ENDBRANCH   8   9
ENDBRANCH   7   8
ENDBRANCH   4   7
BRANCH   6  11
ATOM     11  O   UNL     1      -0.000  -0.000  -0.000  0.00  0.00    -0.344 OA
BRANCH  11  12
ATOM     12  C   UNL     1      -0.000  -0.000  -0.000  0.00  0.00    +0.124 C 
ATOM     13  C   UNL     1      -0.000  -0.000  -0.000  0.00  0.00    +0.061 C 
ATOM     14  C   UNL     1      -0.000  -0.000  -0.000  0.00  0.00    +0.169 C 
ATOM     15  C   UNL     1      -0.000  -0.000  -0.000  0.00  0.00    +0.023 C 
ATOM     16  C   UNL     1      -0.000  -0.000  -0.000  0.00  0.00    -0.022 C 
ATOM     17  C   UNL     1      -0.000  -0.000  -0.000  0.00  0.00    +0.004 C 
ATOM     18  C   UNL     1      -0.000  -0.000  -0.000  0.00  0.00    +0.004 C 
ATOM     19  C   UNL     1      -0.000  -0.000  -0.000  0.00  0.00    +0.147 C 
ATOM     20  C   UNL     1      -0.000  -0.000  -0.000  0.00  0.00    -0.045 C 
ATOM     21  C   UNL     1      -0.000  -0.000  -0.000  0.00  0.00    +0.010 C 
ATOM     22  C   UNL     1      -0.000  -0.000  -0.000  0.00  0.00    +0.018 C 
ATOM     23  C   UNL     1      -0.000  -0.000  -0.000  0.00  0.00    +0.008 C 
ATOM     24  C   UNL     1      -0.000  -0.000  -0.000  0.00  0.00    +0.010 C 
ATOM     25  C   UNL     1      -0.000  -0.000  -0.000  0.00  0.00    +0.018 C 
ATOM     26  C   UNL     1      -0.000  -0.000  -0.000  0.00  0.00    +0.005 C 
ATOM     27  C   UNL     1      -0.000  -0.000  -0.000  0.00  0.00    +0.012 C 
ATOM     28  C   UNL     1      -0.000  -0.000  -0.000  0.00  0.00    +0.006 C 
ATOM     29  C   UNL     1      -0.000  -0.000  -0.000  0.00  0.00    +0.039 C 
BRANCH  19  30
ATOM     30  O   UNL     1      -0.000  -0.000  -0.000  0.00  0.00    -0.387 OA
ATOM     31  H   UNL     1       0.000   0.000   0.000  0.00  0.00    +0.210 HD
ENDBRANCH  19  30
BRANCH  14  32
ATOM     32  C   UNL     1      -0.000  -0.000  -0.000  0.00  0.00    +0.322 C 
ATOM     33  O   UNL     1      -0.000  -0.000  -0.000  0.00  0.00    -0.250 OA
BRANCH  32  34
ATOM     34  O   UNL     1      -0.000  -0.000  -0.000  0.00  0.00    -0.480 OA
ATOM     35  H   UNL     1      -0.000  -0.000  -0.000  0.00  0.00    +0.295 HD
ENDBRANCH  32  34
ENDBRANCH  14  32
BRANCH  14  36
ATOM     36  C   UNL     1      -0.000  -0.000  -0.000  0.00  0.00    +0.322 C 
ATOM     37  O   UNL     1      -0.000  -0.000  -0.000  0.00  0.00    -0.250 OA
BRANCH  36  38
ATOM     38  O   UNL     1      -0.000  -0.000  -0.000  0.00  0.00    -0.480 OA
ATOM     39  H   UNL     1      -0.000  -0.000  -0.000  0.00  0.00    +0.295 HD
ENDBRANCH  36  38
ENDBRANCH  14  36
ENDBRANCH  11  12
ENDBRANCH   6  11
BRANCH   3  40
ATOM     40  O   UNL     1      -0.000  -0.000  -0.000  0.00  0.00    -0.207 OA
BRANCH  40  41
ATOM     41  S   UNL     1      -0.000  -0.000  -0.000  0.00  0.00    +0.208 S 
ATOM     42  O   UNL     1      -0.000  -0.000  -0.000  0.00  0.00    -0.118 OA
ATOM     43  O   UNL     1      -0.000  -0.000  -0.000  0.00  0.00    -0.118 OA
BRANCH  41  44
ATOM     44  O   UNL     1      -0.000  -0.000  -0.000  0.00  0.00    -0.231 OA
ATOM     45  H   UNL     1      -0.000  -0.000  -0.000  0.00  0.00    +0.247 HD
ENDBRANCH  41  44
ENDBRANCH  40  41
ENDBRANCH   3  40
BRANCH   2  46
ATOM     46  O   UNL     1      -0.000  -0.000  -0.000  0.00  0.00    -0.206 OA
BRANCH  46  47
ATOM     47  S   UNL     1      -0.000  -0.000  -0.000  0.00  0.00    +0.208 S 
ATOM     48  O   UNL     1      -0.000  -0.000  -0.000  0.00  0.00    -0.118 OA
ATOM     49  O   UNL     1      -0.000  -0.000  -0.000  0.00  0.00    -0.118 OA
BRANCH  47  50
ATOM     50  O   UNL     1      -0.000  -0.000  -0.000  0.00  0.00    -0.231 OA
ATOM     51  H   UNL     1      -0.000  -0.000  -0.000  0.00  0.00    +0.247 HD
ENDBRANCH  47  50
ENDBRANCH  46  47
ENDBRANCH   2  46
BRANCH   1  52
ATOM     52  O   UNL     1      -0.000  -0.000  -0.000  0.00  0.00    -0.453 OA
BRANCH  52  53
ATOM     53  C   UNL     1      -0.000  -0.000  -0.000  0.00  0.00    +0.308 C 
ATOM     54  O   UNL     1      -0.000  -0.000  -0.000  0.00  0.00    -0.251 OA
BRANCH  53  55
ATOM     55  C   UNL     1      -0.000  -0.000  -0.000  0.00  0.00    +0.123 C 
BRANCH  55  57
ATOM     56  C   UNL     1      -0.000  -0.000  -0.000  0.00  0.00    +0.008 C 
ATOM     57  C   UNL     1      -0.000  -0.000  -0.000  0.00  0.00    -0.007 C 
ATOM     58  C   UNL     1      -0.000  -0.000  -0.000  0.00  0.00    +0.008 C 
ENDBRANCH  55  57
ENDBRANCH  53  55
ENDBRANCH  52  53
ENDBRANCH   1  52
TORSDOF 20
