REMARK  Name = 
REMARK  8 active torsions:
REMARK  status: ('A' for Active; 'I' for Inactive)
REMARK    1  A    between atoms: O_1  and  C_2
REMARK    2  A    between atoms: C_2  and  C_3
REMARK    3  A    between atoms: C_6  and  O_8
REMARK    4  A    between atoms: O_8  and  C_9
REMARK    5  A    between atoms: C_13  and  N_15
REMARK    6  A    between atoms: C_18  and  O_20
REMARK    7  A    between atoms: C_21  and  O_23
REMARK    8  A    between atoms: C_24  and  O_26
REMARK                            x       y       z     vdW  Elec       q    Type
REMARK                         _______ _______ _______ _____ _____    ______ ____
ROOT
ATOM      1  C   UNL     1       3.046   0.962   1.015  0.00  0.00    +0.179 C 
ATOM      2  C   UNL     1       2.650   2.357   0.520  0.00  0.00    +0.177 C 
ATOM      3  C   UNL     1       3.343   2.642  -0.823  0.00  0.00    +0.180 C 
ATOM      4  C   UNL     1       4.855   2.384  -0.762  0.00  0.00    +0.214 C 
ATOM      5  C   UNL     1       5.084   0.963  -0.210  0.00  0.00    +0.339 C 
ATOM      6  O   UNL     1       4.473   0.852   1.072  0.00  0.00    -0.331 OA
ENDROOT
BRANCH   2   7
ATOM      7  O   UNL     1       1.227   2.414   0.380  0.00  0.00    -0.386 OA
ATOM      8  H   UNL     1       1.030   2.848  -0.471  0.00  0.00    +0.210 HD
ENDBRANCH   2   7
BRANCH   3   9
ATOM      9  O   UNL     1       3.082   3.992  -1.233  0.00  0.00    -0.386 OA
ATOM     10  H   UNL     1       3.764   4.209  -1.894  0.00  0.00    +0.210 HD
ENDBRANCH   3   9
BRANCH   4  11
ATOM     11  O   UNL     1       5.379   2.588  -2.087  0.00  0.00    -0.383 OA
ATOM     12  H   UNL     1       5.337   1.746  -2.575  0.00  0.00    +0.210 HD
ENDBRANCH   4  11
BRANCH   1  13
ATOM     13  C   UNL     1       2.489   0.677   2.413  0.00  0.00    +0.190 C 
BRANCH  13  14
ATOM     14  O   UNL     1       2.777  -0.680   2.765  0.00  0.00    -0.392 OA
ATOM     15  H   UNL     1       2.720  -0.736   3.734  0.00  0.00    +0.210 HD
ENDBRANCH  13  14
ENDBRANCH   1  13
BRANCH   5  16
ATOM     16  O   UNL     1       6.490   0.688  -0.112  0.00  0.00    -0.461 OA
BRANCH  16  17
ATOM     17  C   UNL     1       6.808  -0.572   0.331  0.00  0.00    +0.130 A 
ATOM     18  C   UNL     1       6.020  -1.706   0.124  0.00  0.00    +0.130 A 
ATOM     19  C   UNL     1       6.450  -2.952   0.605  0.00  0.00    +0.277 A 
ATOM     20  C   UNL     1       7.664  -3.076   1.294  0.00  0.00    +0.084 A 
ATOM     21  C   UNL     1       8.446  -1.936   1.493  0.00  0.00    +0.010 A 
ATOM     22  C   UNL     1       8.025  -0.697   1.007  0.00  0.00    +0.046 A 
BRANCH  19  23
ATOM     23  N   UNL     1       5.611  -4.137   0.377  0.00  0.00    +0.080 N 
ATOM     24  O   UNL     1       4.571  -3.992  -0.286  0.00  0.00    +0.041 OA
ATOM     25  O   UNL     1       6.005  -5.225   0.835  0.00  0.00    -0.576 OA
ENDBRANCH  19  23
ENDBRANCH  16  17
ENDBRANCH   5  16
TORSDOF 8
