REMARK  Name = 
REMARK  4 active torsions:
REMARK  status: ('A' for Active; 'I' for Inactive)
REMARK    1  A    between atoms: C_2  and  O_3
REMARK    2  A    between atoms: C_5  and  C_6
REMARK    3  A    between atoms: C_12  and  C_13
REMARK    4  A    between atoms: C_12  and  C_14
REMARK                            x       y       z     vdW  Elec       q    Type
REMARK                         _______ _______ _______ _____ _____    ______ ____
ROOT
ATOM      1  C   UNL     1       2.206  -0.117  -0.278  0.00  0.00    +0.120 C 
ATOM      2  C   UNL     1       2.961   0.788  -1.325  0.00  0.00    +0.031 C 
ATOM      3  C   UNL     1       2.881   2.217  -0.698  0.00  0.00    -0.017 C 
ATOM      4  C   UNL     1       1.445   2.770  -0.781  0.00  0.00    +0.012 C 
ATOM      5  C   UNL     1       3.786   3.325  -1.278  0.00  0.00    +0.012 C 
ATOM      6  C   UNL     1       3.446   1.704   0.666  0.00  0.00    +0.034 C 
ATOM      7  C   UNL     1       3.775   2.704   1.752  0.00  0.00    +0.020 C 
ATOM      8  C   UNL     1       4.703   0.968   0.167  0.00  0.00    +0.140 C 
ATOM      9  O   UNL     1       5.736   0.798   0.794  0.00  0.00    -0.297 OA
ATOM     10  C   UNL     1       4.451   0.431  -1.223  0.00  0.00    +0.081 C 
ATOM     11  C   UNL     1       2.491   0.575   1.076  0.00  0.00    +0.046 C 
ENDROOT
BRANCH   1  12
ATOM     12  O   UNL     1       0.822  -0.226  -0.557  0.00  0.00    -0.391 OA
ATOM     13  H   UNL     1       0.311   0.222   0.139  0.00  0.00    +0.210 HD
ENDBRANCH   1  12
TORSDOF 1
