REMARK  Name = 
REMARK  8 active torsions:
REMARK  status: ('A' for Active; 'I' for Inactive)
REMARK    1  A    between atoms: N_1  and  CA_2
REMARK    2  A    between atoms: CA_2  and  C_4
REMARK    3  A    between atoms: CA_2  and  C_9
REMARK    4  A    between atoms: C_4  and  C_5
REMARK    5  A    between atoms: C_5  and  C_6
REMARK    6  A    between atoms: C_6  and  C_7
REMARK    7  A    between atoms: C_7  and  O_8
REMARK    8  A    between atoms: C_9  and  O_10
REMARK                            x       y       z     vdW  Elec       q    Type
REMARK                         _______ _______ _______ _____ _____    ______ ____
ROOT
ATOM      1  CA  UNL     1       2.312   0.091  -0.107  0.00  0.00    +0.161 C 
ENDROOT
BRANCH   1   2
ATOM      2  N   UNL     1       0.817   0.154  -0.143  0.00  0.00    -0.318 NA
ATOM      3  H1  UNL     1       0.485  -0.490  -0.870  0.00  0.00    +0.119 HD
ATOM      4  H2  UNL     1       0.472  -0.262   0.728  0.00  0.00    +0.119 HD
ENDBRANCH   1   2
BRANCH   1   5
ATOM      5  C   UNL     1       2.863   1.176  -1.053  0.00  0.00    +0.322 C 
ATOM      6  OXT UNL     1       4.038   1.331  -1.345  0.00  0.00    -0.249 OA
BRANCH   5   7
ATOM      7  O   UNL     1       1.863   1.964  -1.530  0.00  0.00    -0.480 OA
ATOM      8  H   UNL     1       1.037   1.621  -1.104  0.00  0.00    +0.295 HD
ENDBRANCH   5   7
ENDBRANCH   1   5
BRANCH   1   9
ATOM      9  C   UNL     1       2.840  -1.286  -0.524  0.00  0.00    +0.030 C 
BRANCH   9  10
ATOM     10  C   UNL     1       2.373  -2.418   0.392  0.00  0.00    +0.004 C 
BRANCH  10  11
ATOM     11  C   UNL     1       2.930  -3.770  -0.067  0.00  0.00    +0.028 C 
BRANCH  11  12
ATOM     12  C   UNL     1       2.455  -4.914   0.821  0.00  0.00    +0.156 C 
BRANCH  12  13
ATOM     13  O   UNL     1       2.890  -4.721   2.159  0.00  0.00    -0.395 OA
ATOM     14  H   UNL     1       3.863  -4.711   2.152  0.00  0.00    +0.209 HD
ENDBRANCH  12  13
ENDBRANCH  11  12
ENDBRANCH  10  11
ENDBRANCH   9  10
ENDBRANCH   1   9
TORSDOF 8
