REMARK  Name = 
REMARK  13 active torsions:
REMARK  status: ('A' for Active; 'I' for Inactive)
REMARK    1  A    between atoms: N_1  and  C_2
REMARK    2  A    between atoms: C_2  and  C_4
REMARK    3  A    between atoms: C_2  and  C_16
REMARK    4  A    between atoms: C_4  and  O_5
REMARK    5  A    between atoms: O_5  and  P_6
REMARK    6  A    between atoms: P_6  and  O_7
REMARK    7  A    between atoms: P_6  and  O_9
REMARK    8  A    between atoms: O_9  and  C_10
REMARK    9  A    between atoms: C_10  and  C_11
REMARK   10  A    between atoms: C_11  and  O_13
REMARK   11  A    between atoms: C_11  and  C_14
REMARK   12  A    between atoms: C_14  and  O_15
REMARK   13  A    between atoms: C_16  and  O_17
REMARK                            x       y       z     vdW  Elec       q    Type
REMARK                         _______ _______ _______ _____ _____    ______ ____
ROOT
ATOM      1  P   UNK     1       3.009  -1.109  -3.725  0.00  0.00    +0.475 P 
ATOM      2  O   UNK     1       3.290  -2.607  -3.598  0.00  0.00    -0.227 OA
ENDROOT
BRANCH   1   3
ATOM      3  O   UNK     1       2.432  -1.156  -2.094  0.00  0.00    -0.302 OA
ATOM      4  H   UNK     1       2.586  -2.093  -1.848  0.00  0.00    +0.222 HD
ENDBRANCH   1   3
BRANCH   1   5
ATOM      5  O   UNK     1       4.318  -0.278  -3.204  0.00  0.00    -0.285 OA
BRANCH   5   6
ATOM      6  C   UNK     1       5.485  -0.999  -2.819  0.00  0.00    +0.202 C 
BRANCH   6   7
ATOM      7  C   UNK     1       6.562   0.009  -2.414  0.00  0.00    +0.187 C 
BRANCH   7   8
ATOM      8  N   UNK     1       6.066   0.966  -1.362  0.00  0.00    -0.317 NA
ATOM      9  H   UNK     1       5.048   1.040  -1.498  0.00  0.00    +0.119 HD
ATOM     10  H   UNK     1       6.148   0.494  -0.456  0.00  0.00    +0.119 HD
ENDBRANCH   7   8
BRANCH   7  11
ATOM     11  C   UNK     1       6.986   0.820  -3.647  0.00  0.00    +0.324 C 
ATOM     12  O   UNK     1       7.366   0.351  -4.707  0.00  0.00    -0.249 OA
BRANCH  11  13
ATOM     13  O   UNK     1       6.909   2.157  -3.410  0.00  0.00    -0.479 OA
ATOM     14  H   UNK     1       6.596   2.237  -2.472  0.00  0.00    +0.295 HD
ENDBRANCH  11  13
ENDBRANCH   7  11
ENDBRANCH   6   7
ENDBRANCH   5   6
ENDBRANCH   1   5
BRANCH   1  15
ATOM     15  O   UNK     1       3.586  -1.062  -5.355  0.00  0.00    -0.284 OA
BRANCH  15  16
ATOM     16  C   UNK     1       2.582  -0.583  -6.249  0.00  0.00    +0.206 C 
BRANCH  16  17
ATOM     17  C   UNK     1       3.139  -0.566  -7.673  0.00  0.00    +0.166 C 
BRANCH  17  18
ATOM     18  O   UNK     1       3.495  -1.906  -8.048  0.00  0.00    -0.387 OA
ATOM     19  H   UNK     1       4.129  -2.207  -7.366  0.00  0.00    +0.210 HD
ENDBRANCH  17  18
BRANCH  17  20
ATOM     20  C   UNK     1       2.100  -0.056  -8.672  0.00  0.00    +0.189 C 
BRANCH  20  21
ATOM     21  O   UNK     1       0.944  -0.894  -8.645  0.00  0.00    -0.392 OA
ATOM     22  H   UNK     1       1.288  -1.799  -8.790  0.00  0.00    +0.210 HD
ENDBRANCH  20  21
ENDBRANCH  17  20
ENDBRANCH  16  17
ENDBRANCH  15  16
ENDBRANCH   1  15
TORSDOF 13
