REMARK  Name = 
REMARK  7 active torsions:
REMARK  status: ('A' for Active; 'I' for Inactive)
REMARK    1  A    between atoms: O_1  and  N_2
REMARK    2  A    between atoms: C_3  and  C_5
REMARK    3  A    between atoms: C_5  and  C_6
REMARK    4  A    between atoms: C_6  and  S_12
REMARK    5  A    between atoms: S_12  and  C_15
REMARK    6  A    between atoms: C_18  and  O_19
REMARK    7  A    between atoms: O_19  and  C_20
REMARK                            x       y       z     vdW  Elec       q    Type
REMARK                         _______ _______ _______ _____ _____    ______ ____
ROOT
ATOM      1  S   UNL     1       6.729   0.457  -2.728  0.00  0.00    +0.003 S 
ATOM      2  O   UNL     1       7.444  -0.546  -1.959  0.00  0.00    -0.169 OA
ATOM      3  O   UNL     1       6.829   1.849  -2.333  0.00  0.00    -0.169 OA
ENDROOT
BRANCH   1   4
ATOM      4  C   UNL     1       4.962  -0.029  -2.793  0.00  0.00    +0.105 C 
ATOM      5  C   UNL     1       4.203   0.882  -3.783  0.00  0.00    +0.058 C 
ATOM      6  C   UNL     1       2.812   0.359  -4.106  0.00  0.00    +0.162 C 
ATOM      7  O   UNL     1       2.896  -0.974  -4.605  0.00  0.00    -0.380 OA
ATOM      8  C   UNL     1       3.425  -1.887  -3.649  0.00  0.00    +0.162 C 
ATOM      9  C   UNL     1       4.850  -1.498  -3.283  0.00  0.00    +0.058 C 
BRANCH   4  10
ATOM     10  C   UNL     1       4.389   0.032  -1.349  0.00  0.00    +0.128 C 
BRANCH  10  13
ATOM     11  N   UNL     1       5.423   1.561   0.299  0.00  0.00    -0.197 N 
ATOM     12  H   UNL     1       5.374   2.416   0.846  0.00  0.00    +0.182 HD
ATOM     13  C   UNL     1       4.487   1.390  -0.677  0.00  0.00    +0.238 C 
ATOM     14  O   UNL     1       3.763   2.322  -1.025  0.00  0.00    -0.274 OA
BRANCH  11  15
ATOM     15  O   UNL     1       6.004   0.440   0.918  0.00  0.00    -0.295 OA
ATOM     16  H   UNL     1       6.888   0.403   0.492  0.00  0.00    +0.241 HD
ENDBRANCH  11  15
ENDBRANCH  10  13
ENDBRANCH   4  10
ENDBRANCH   1   4
BRANCH   1  17
ATOM     17  C   UNL     1       7.334   0.376  -4.402  0.00  0.00    +0.089 A 
ATOM     18  C   UNL     1       7.801  -0.834  -4.917  0.00  0.00    +0.030 A 
ATOM     19  C   UNL     1       8.177  -0.908  -6.259  0.00  0.00    +0.048 A 
ATOM     20  C   UNL     1       8.188   0.244  -7.056  0.00  0.00    +0.129 A 
ATOM     21  C   UNL     1       7.750   1.459  -6.520  0.00  0.00    +0.048 A 
ATOM     22  C   UNL     1       7.331   1.531  -5.191  0.00  0.00    +0.030 A 
BRANCH  20  23
ATOM     23  O   UNL     1       8.557   0.280  -8.383  0.00  0.00    -0.456 OA
BRANCH  23  24
ATOM     24  C   UNL     1       9.468  -0.631  -8.864  0.00  0.00    +0.129 A 
ATOM     25  C   UNL     1      10.581  -1.072  -8.142  0.00  0.00    +0.048 A 
ATOM     26  C   UNL     1      11.418  -2.051  -8.679  0.00  0.00    +0.023 A 
ATOM     27  C   UNL     1      11.181  -2.536  -9.963  0.00  0.00    +0.041 A 
ATOM     28 CL   UNL     1      12.196  -3.763 -10.611  0.00  0.00    -0.084 Cl
ATOM     29  C   UNL     1      10.124  -2.036 -10.723  0.00  0.00    +0.023 A 
ATOM     30  C   UNL     1       9.267  -1.080 -10.172  0.00  0.00    +0.048 A 
ENDBRANCH  23  24
ENDBRANCH  20  23
ENDBRANCH   1  17
TORSDOF 7
