REMARK  Name = 
REMARK  13 active torsions:
REMARK  status: ('A' for Active; 'I' for Inactive)
REMARK    1  A    between atoms: CA_2  and  N_3
REMARK    2  A    between atoms: CA_2  and  C_4
REMARK    3  A    between atoms: CA_2  and  C_30
REMARK    4  A    between atoms: C_4  and  C_5
REMARK    5  A    between atoms: C_6  and  O_7
REMARK    6  A    between atoms: C_9  and  O_10
REMARK    7  A    between atoms: C_11  and  N_12
REMARK    8  A    between atoms: N_12  and  C_13
REMARK    9  A    between atoms: C_13  and  C_14
REMARK   10  A    between atoms: C_14  and  O_15
REMARK   11  A    between atoms: O_15  and  C_16
REMARK   12  A    between atoms: C_26  and  C_27
REMARK   13  A    between atoms: C_30  and  O_31
REMARK                            x       y       z     vdW  Elec       q    Type
REMARK                         _______ _______ _______ _____ _____    ______ ____
ROOT
ATOM      1  C   UNL     1      -1.813  -0.454  -5.785  0.00  0.00    -0.002 A 
ATOM      2  C   UNL     1      -0.840   0.575  -5.789  0.00  0.00    +0.034 A 
ATOM      3  C   UNL     1       0.536   0.309  -5.733  0.00  0.00    +0.074 A 
ATOM      4  C   UNL     1       0.939  -1.037  -5.776  0.00  0.00    +0.141 A 
ATOM      5  C   UNL     1       0.011  -2.075  -5.810  0.00  0.00    +0.093 A 
ATOM      6  C   UNL     1      -1.351  -1.780  -5.776  0.00  0.00    +0.124 A 
ENDROOT
BRANCH   3   7
ATOM      7  N   UNL     1       1.526   1.324  -5.752  0.00  0.00    -0.312 N 
ATOM      8  H   UNL     1       2.365   0.997  -5.267  0.00  0.00    +0.152 HD
BRANCH   7   9
ATOM      9  C   UNL     1       1.335   2.704  -5.711  0.00  0.00    +0.049 C 
ATOM     10  C   UNL     1       1.239   3.379  -6.881  0.00  0.00    +0.064 C 
BRANCH  10  11
ATOM     11  C   UNL     1       1.147   4.842  -7.018  0.00  0.00    +0.252 C 
ATOM     12  O   UNL     1       0.786   5.369  -8.064  0.00  0.00    -0.296 OA
ENDBRANCH  10  11
BRANCH   9  13
ATOM     13  C   UNL     1       1.163   3.389  -4.347  0.00  0.00    +0.279 C 
BRANCH  13  14
ATOM     14  O   UNL     1       2.425   3.655  -3.725  0.00  0.00    -0.486 OA
BRANCH  14  15
ATOM     15  C   UNL     1       2.539   4.818  -2.999  0.00  0.00    +0.122 A 
ATOM     16  C   UNL     1       1.488   5.597  -2.501  0.00  0.00    +0.054 A 
ATOM     17  C   UNL     1       1.725   6.873  -1.937  0.00  0.00    -0.014 A 
ATOM     18  C   UNL     1       3.049   7.360  -1.867  0.00  0.00    -0.018 A 
ATOM     19  C   UNL     1       3.285   8.681  -1.445  0.00  0.00    +0.008 A 
ATOM     20  C   UNL     1       2.230   9.506  -1.052  0.00  0.00    +0.001 A 
ATOM     21  C   UNL     1       0.934   9.003  -1.033  0.00  0.00    +0.001 A 
ATOM     22  C   UNL     1       4.102   6.511  -2.233  0.00  0.00    +0.012 A 
ATOM     23  C   UNL     1       0.683   7.699  -1.472  0.00  0.00    +0.008 A 
ATOM     24  C   UNL     1       3.848   5.249  -2.778  0.00  0.00    +0.046 A 
ENDBRANCH  14  15
ENDBRANCH  13  14
ENDBRANCH   9  13
ENDBRANCH   7   9
ENDBRANCH   3   7
BRANCH   4  25
ATOM     25  O   UNL     1       2.282  -1.320  -5.762  0.00  0.00    -0.505 OA
ATOM     26  H   UNL     1       2.392  -2.271  -5.933  0.00  0.00    +0.292 HD
ENDBRANCH   4  25
BRANCH   6  27
ATOM     27  O   UNL     1      -2.182  -2.865  -5.721  0.00  0.00    -0.506 OA
ATOM     28  H   UNL     1      -3.054  -2.593  -5.399  0.00  0.00    +0.292 HD
ENDBRANCH   6  27
BRANCH   1  29
ATOM     29  C   UNL     1      -3.299  -0.138  -5.710  0.00  0.00    +0.068 C 
BRANCH  29  30
ATOM     30  CA  UNL     1      -3.789   1.228  -6.236  0.00  0.00    +0.165 C 
BRANCH  30  31
ATOM     31  N   UNL     1      -5.167   1.494  -5.753  0.00  0.00    -0.318 NA
ATOM     32  H1  UNL     1      -5.496   2.425  -6.001  0.00  0.00    +0.119 HD
ATOM     33  H2  UNL     1      -5.837   0.755  -5.940  0.00  0.00    +0.119 HD
ENDBRANCH  30  31
BRANCH  30  34
ATOM     34  C   UNL     1      -3.698   1.270  -7.773  0.00  0.00    +0.322 C 
ATOM     35  OXT UNL     1      -2.655   1.221  -8.405  0.00  0.00    -0.249 OA
BRANCH  34  36
ATOM     36  O   UNL     1      -4.899   1.364  -8.393  0.00  0.00    -0.480 OA
ATOM     37  H   UNL     1      -5.622   1.423  -7.745  0.00  0.00    +0.295 HD
ENDBRANCH  34  36
ENDBRANCH  30  34
ENDBRANCH  29  30
ENDBRANCH   1  29
TORSDOF 13
