REMARK  Name = 
REMARK  3 active torsions:
REMARK  status: ('A' for Active; 'I' for Inactive)
REMARK    1  A    between atoms: O_1  and  C_2
REMARK    2  A    between atoms: C_2  and  C_4
REMARK    3  A    between atoms: C_4  and  C_5
REMARK                            x       y       z     vdW  Elec       q    Type
REMARK                         _______ _______ _______ _____ _____    ______ ____
ROOT
ATOM      1  C   UNL     1       4.604  -0.802  -0.135  0.00  0.00    +0.036 A 
ATOM      2  N   UNL     1       5.442  -1.890  -0.062  0.00  0.00    -0.311 N 
ATOM      3  H   UNL     1       5.076  -2.836  -0.042  0.00  0.00    +0.170 HD
ATOM      4  C   UNL     1       6.809  -1.810  -0.041  0.00  0.00    +0.327 A 
ATOM      5  O   UNL     1       7.512  -2.812   0.041  0.00  0.00    -0.247 OA
ATOM      6  N   UNL     1       7.331  -0.552  -0.097  0.00  0.00    -0.275 N 
ATOM      7  H   UNL     1       8.334  -0.466  -0.070  0.00  0.00    +0.173 HD
ATOM      8  C   UNL     1       6.598   0.597  -0.161  0.00  0.00    +0.254 A 
ATOM      9  O   UNL     1       7.104   1.713  -0.174  0.00  0.00    -0.268 OA
ATOM     10  C   UNL     1       5.131   0.431  -0.183  0.00  0.00    +0.092 A 
ENDROOT
BRANCH   1  11
ATOM     11  C   UNL     1       3.120  -1.050  -0.077  0.00  0.00    +0.173 C 
BRANCH  11  12
ATOM     12  C   UNL     1       2.490  -1.274  -1.440  0.00  0.00    +0.311 C 
ATOM     13  O   UNL     1       3.070  -1.225  -2.513  0.00  0.00    -0.251 OA
BRANCH  12  14
ATOM     14  O   UNL     1       1.162  -1.538  -1.354  0.00  0.00    -0.480 OA
ATOM     15  H   UNL     1       0.800  -1.545  -0.447  0.00  0.00    +0.295 HD
ENDBRANCH  12  14
ENDBRANCH  11  12
ENDBRANCH   1  11
TORSDOF 3
