REMARK  Name = 
REMARK  4 active torsions:
REMARK  status: ('A' for Active; 'I' for Inactive)
REMARK    1  A    between atoms: N_1  and  CA_2
REMARK    2  A    between atoms: CA_2  and  C_4
REMARK    3  A    between atoms: CA_2  and  C_6
REMARK    4  A    between atoms: C_6  and  O_7
REMARK                            x       y       z     vdW  Elec       q    Type
REMARK                         _______ _______ _______ _____ _____    ______ ____
ROOT
ATOM      1  CA  UNL     1       2.474  -0.028   0.002  0.00  0.00    +0.184 C 
ENDROOT
BRANCH   1   2
ATOM      2  N   UNL     1       0.989  -0.113  -0.104  0.00  0.00    -0.315 NA
ATOM      3  H1  UNL     1       0.726  -1.103  -0.128  0.00  0.00    +0.119 HD
ATOM      4  H2  UNL     1       0.612   0.218   0.789  0.00  0.00    +0.119 HD
ENDBRANCH   1   2
BRANCH   1   5
ATOM      5  C   UNL     1       3.074  -0.025  -1.431  0.00  0.00    +0.326 C 
ATOM      6  OXT UNL     1       4.260  -0.091  -1.712  0.00  0.00    -0.249 OA
BRANCH   5   7
ATOM      7  O   UNL     1       2.093   0.082  -2.369  0.00  0.00    -0.479 OA
ATOM      8  H   UNL     1       1.244   0.136  -1.863  0.00  0.00    +0.295 HD
ENDBRANCH   5   7
ENDBRANCH   1   5
BRANCH   1   9
ATOM      9  C   UNL     1       2.987  -1.191   0.796  0.00  0.00    -0.005 C 
ATOM     10  C   UNL     1       3.650  -1.090   1.955  0.00  0.00    +0.006 C 
ENDBRANCH   1   9
TORSDOF 4
