REMARK  Name = 
REMARK  5 active torsions:
REMARK  status: ('A' for Active; 'I' for Inactive)
REMARK    1  A    between atoms: O_1  and  S_2
REMARK    2  A    between atoms: S_2  and  C_5
REMARK    3  A    between atoms: C_5  and  C_6
REMARK    4  A    between atoms: C_6  and  N_7
REMARK    5  A    between atoms: N_7  and  C_8
REMARK                            x       y       z     vdW  Elec       q    Type
REMARK                         _______ _______ _______ _____ _____    ______ ____
ROOT
ATOM      1  N   UNL     1       5.352  -0.924   2.941  0.00  0.00    -0.312 NA
ATOM      2  H   UNL     1       5.066  -0.082   2.440  0.00  0.00    +0.122 HD
ENDROOT
BRANCH   1   3
ATOM      3  C   UNL     1       6.822  -1.011   2.969  0.00  0.00    +0.054 C 
ATOM      4  C   UNL     1       7.385  -0.861   1.540  0.00  0.00    +0.019 C 
ATOM      5  C   UNL     1       7.140  -2.079   0.650  0.00  0.00    +0.002 C 
ATOM      6  C   UNL     1       7.596  -3.376   1.313  0.00  0.00    +0.000 C 
ATOM      7  C   UNL     1       7.012  -3.537   2.712  0.00  0.00    +0.002 C 
ATOM      8  C   UNL     1       7.341  -2.324   3.581  0.00  0.00    +0.019 C 
ENDBRANCH   1   3
BRANCH   1   9
ATOM      9  C   UNL     1       4.695  -0.970   4.258  0.00  0.00    +0.106 C 
BRANCH   9  10
ATOM     10  C   UNL     1       5.081   0.153   5.212  0.00  0.00    +0.213 C 
BRANCH  10  11
ATOM     11  S   UNL     1       4.268  -0.075   6.784  0.00  0.00    +0.081 S 
ATOM     12  O   UNL     1       2.846   0.144   6.653  0.00  0.00    -0.147 OA
ATOM     13  O   UNL     1       4.810  -1.227   7.465  0.00  0.00    -0.147 OA
BRANCH  11  14
ATOM     14  O   UNL     1       4.862   1.226   7.534  0.00  0.00    -0.254 OA
ATOM     15  H   UNL     1       4.446   1.289   8.420  0.00  0.00    +0.244 HD
ENDBRANCH  11  14
ENDBRANCH  10  11
ENDBRANCH   9  10
ENDBRANCH   1   9
TORSDOF 5
