REMARK  Name = 
REMARK  11 active torsions:
REMARK  status: ('A' for Active; 'I' for Inactive)
REMARK    1  A    between atoms: N9_8  and  C1*_9
REMARK    2  A    between atoms: C3*_12  and  O3*_14
REMARK    3  A    between atoms: C4*_15  and  C5*_17
REMARK    4  A    between atoms: C5*_17  and  O5*_18
REMARK    5  A    between atoms: O5*_18  and  P_19
REMARK    6  A    between atoms: P_19  and  O1P_20
REMARK    7  A    between atoms: P_19  and  O3*_22
REMARK    8  A    between atoms: O3*_22  and  C3*_23
REMARK    9  A    between atoms: C1*_26  and  N1_33
REMARK   10  A    between atoms: C4*_29  and  C5*_31
REMARK   11  A    between atoms: C5*_31  and  O5*_32
REMARK                            x       y       z     vdW  Elec       q    Type
REMARK                         _______ _______ _______ _____ _____    ______ ____
ROOT
ATOM      1  O5*   G A   2       0.811 -11.951   1.461  0.00  0.00    -0.284 OA
ENDROOT
BRANCH   1   2
ATOM      2  P     G A   2       0.854 -10.329   2.062  0.00  0.00    +0.475 P 
ATOM      3  O2P   G A   2       0.314  -9.936   0.698  0.00  0.00    -0.227 OA
BRANCH   2   4
ATOM      4  O1P   G A   2       2.476 -10.272   1.890  0.00  0.00    -0.302 OA
ATOM      5  H1P   G A   2       2.978 -10.440   2.701  0.00  0.00    +0.222 HD
ENDBRANCH   2   4
BRANCH   2   6
ATOM      6  O3*   C A   1       0.897  -8.707   2.663  0.00  0.00    -0.281 OA
BRANCH   6   7
ATOM      7  C3*   C A   1       0.659  -7.715   1.611  0.00  0.00    +0.165 C 
ATOM      8  C4*   C A   1      -0.797  -7.765   1.092  0.00  0.00    +0.175 C 
ATOM      9  O4*   C A   1      -1.529  -6.695   1.701  0.00  0.00    -0.348 OA
ATOM     10  C1*   C A   1      -0.591  -5.732   2.186  0.00  0.00    +0.226 C 
ATOM     11  C2*   C A   1       0.821  -6.262   1.986  0.00  0.00    +0.089 C 
BRANCH  10  12
ATOM     12  N1    C A   1      -0.928  -5.351   3.540  0.00  0.00    -0.273 N 
ATOM     13  C2    C A   1      -0.712  -4.012   3.872  0.00  0.00    +0.352 A 
ATOM     14  O2    C A   1      -0.039  -3.281   3.146  0.00  0.00    -0.244 OA
ATOM     15  N3    C A   1      -1.322  -3.520   4.998  0.00  0.00    -0.178 NA
ATOM     16  C4    C A   1      -1.945  -4.333   5.790  0.00  0.00    +0.123 A 
ATOM     17  N4    C A   1      -2.637  -3.766   6.825  0.00  0.00    -0.343 N 
ATOM     18  H41   C A   1      -2.734  -2.763   6.681  0.00  0.00    +0.144 HD
ATOM     19  H42   C A   1      -3.529  -4.196   7.041  0.00  0.00    +0.144 HD
ATOM     20  C5    C A   1      -1.961  -5.798   5.606  0.00  0.00    +0.061 A 
ATOM     21  C6    C A   1      -1.470  -6.235   4.446  0.00  0.00    +0.096 A 
ENDBRANCH  10  12
BRANCH   8  22
ATOM     22  C5*   C A   1      -0.854  -7.637  -0.443  0.00  0.00    +0.190 C 
BRANCH  22  23
ATOM     23  O5*   C A   1      -2.100  -8.159  -0.915  0.00  0.00    -0.392 OA
ATOM     24  H5*   C A   1      -2.782  -7.516  -0.660  0.00  0.00    +0.210 HD
ENDBRANCH  22  23
ENDBRANCH   8  22
ENDBRANCH   6   7
ENDBRANCH   2   6
ENDBRANCH   1   2
BRANCH   1  25
ATOM     25  C5*   G A   2      -0.450 -12.593   1.629  0.00  0.00    +0.206 C 
BRANCH  25  28
ATOM     26  C1*   G A   2      -3.545 -13.000   0.060  0.00  0.00    +0.225 C 
ATOM     27  O4*   G A   2      -2.848 -12.683   1.286  0.00  0.00    -0.348 OA
ATOM     28  C4*   G A   2      -1.648 -11.952   0.904  0.00  0.00    +0.175 C 
ATOM     29  C3*   G A   2      -1.613 -11.988  -0.637  0.00  0.00    +0.150 C 
ATOM     30  C2*   G A   2      -3.089 -11.976  -0.946  0.00  0.00    +0.088 C 
BRANCH  26  42
ATOM     31  N2    G A   2      -6.304 -16.035  -3.124  0.00  0.00    -0.329 N 
ATOM     32  H21   G A   2      -6.888 -16.858  -3.178  0.00  0.00    +0.145 HD
ATOM     33  H22   G A   2      -5.325 -16.239  -3.279  0.00  0.00    +0.145 HD
ATOM     34  C2    G A   2      -6.498 -15.214  -2.062  0.00  0.00    +0.195 A 
ATOM     35  N1    G A   2      -7.791 -15.085  -1.606  0.00  0.00    -0.293 N 
ATOM     36  H1    G A   2      -8.541 -15.564  -2.076  0.00  0.00    +0.172 HD
ATOM     37  C6    G A   2      -8.176 -14.273  -0.549  0.00  0.00    +0.280 A 
ATOM     38  O6    G A   2      -9.351 -14.199  -0.175  0.00  0.00    -0.265 OA
ATOM     39  C5    G A   2      -7.063 -13.568   0.044  0.00  0.00    +0.172 A 
ATOM     40  N7    G A   2      -7.002 -12.682   1.093  0.00  0.00    -0.229 NA
ATOM     41  C8    G A   2      -5.724 -12.375   1.191  0.00  0.00    +0.203 A 
ATOM     42  N9    G A   2      -4.966 -13.043   0.263  0.00  0.00    -0.288 N 
ATOM     43  C4    G A   2      -5.822 -13.799  -0.493  0.00  0.00    +0.171 A 
ATOM     44  N3    G A   2      -5.475 -14.597  -1.528  0.00  0.00    -0.196 NA
ENDBRANCH  26  42
BRANCH  29  45
ATOM     45  O3*   G A   2      -0.989 -10.941  -1.339  0.00  0.00    -0.389 OA
ATOM     46  H3*   G A   2      -1.154 -10.099  -0.868  0.00  0.00    +0.210 HD
ENDBRANCH  29  45
ENDBRANCH  25  28
ENDBRANCH   1  25
TORSDOF 11
