REMARK  Name = 
REMARK  5 active torsions:
REMARK  status: ('A' for Active; 'I' for Inactive)
REMARK    1  A    between atoms: C_1  and  C_2
REMARK    2  A    between atoms: N_10  and  C1*_11
REMARK    3  A    between atoms: C3*_14  and  O3*_16
REMARK    4  A    between atoms: C4*_17  and  C5*_19
REMARK    5  A    between atoms: C5*_19  and  O5*_20
REMARK                            x       y       z     vdW  Elec       q    Type
REMARK                         _______ _______ _______ _____ _____    ______ ____
ROOT
ATOM      1  C   UNL     1       1.076   0.012  -0.345  0.00  0.00    +0.068 C 
ATOM      2  C   UNL     1       2.567  -0.057  -0.421  0.00  0.00    +0.069 A 
ATOM      3  C   UNL     1       3.308  -1.224  -0.193  0.00  0.00    +0.129 A 
ATOM      4  N   UNL     1       2.950  -2.513   0.132  0.00  0.00    -0.232 NA
ATOM      5  C   UNL     1       4.088  -3.173   0.221  0.00  0.00    +0.203 A 
ATOM      6  N   UNL     1       5.166  -2.366  -0.017  0.00  0.00    -0.288 N 
ATOM      7  C   UNL     1       4.686  -1.115  -0.299  0.00  0.00    +0.166 A 
ATOM      8  N   UNL     1       5.403  -0.019  -0.599  0.00  0.00    -0.216 NA
ATOM      9  C   UNL     1       4.598   1.042  -0.797  0.00  0.00    +0.223 A 
ATOM     10  N   UNL     1       3.250   1.088  -0.727  0.00  0.00    -0.238 NA
ENDROOT
BRANCH   6  11
ATOM     11  C1* UNL     1       6.572  -2.713   0.008  0.00  0.00    +0.225 C 
ATOM     12  O4* UNL     1       6.740  -4.124   0.280  0.00  0.00    -0.348 OA
ATOM     13  C4* UNL     1       7.896  -4.278   1.139  0.00  0.00    +0.175 C 
ATOM     14  C3* UNL     1       8.538  -2.898   1.274  0.00  0.00    +0.150 C 
ATOM     15  C2* UNL     1       7.360  -1.978   1.078  0.00  0.00    +0.088 C 
BRANCH  14  16
ATOM     16  O3* UNL     1       9.168  -2.702   2.530  0.00  0.00    -0.389 OA
ATOM     17  H3* UNL     1       8.493  -2.690   3.231  0.00  0.00    +0.210 HD
ENDBRANCH  14  16
BRANCH  13  18
ATOM     18  C5* UNL     1       8.843  -5.317   0.540  0.00  0.00    +0.190 C 
BRANCH  18  19
ATOM     19  O5* UNL     1       9.217  -4.952  -0.789  0.00  0.00    -0.392 OA
ATOM     20  H5* UNL     1       8.399  -4.981  -1.318  0.00  0.00    +0.210 HD
ENDBRANCH  18  19
ENDBRANCH  13  18
ENDBRANCH   6  11
TORSDOF 4
