REMARK  Name = 
REMARK  15 active torsions:
REMARK  status: ('A' for Active; 'I' for Inactive)
REMARK    1  A    between atoms: O_1  and  C_2
REMARK    2  A    between atoms: C_2  and  C_4
REMARK    3  A    between atoms: C_4  and  C_5
REMARK    4  A    between atoms: C_9  and  O_10
REMARK    5  A    between atoms: O_10  and  C_11
REMARK    6  A    between atoms: C_11  and  C_12
REMARK    7  A    between atoms: C_12  and  C_13
REMARK    8  A    between atoms: C_13  and  N_14
REMARK    9  A    between atoms: N_14  and  C_15
REMARK   10  A    between atoms: N_14  and  C_30
REMARK   11  A    between atoms: C_15  and  C_16
REMARK   12  A    between atoms: C_16  and  C_18
REMARK   13  A    between atoms: C_16  and  C_24
REMARK   14  A    between atoms: C_30  and  C_31
REMARK   15  A    between atoms: C_35  and  C_38
REMARK                            x       y       z     vdW  Elec       q    Type
REMARK                         _______ _______ _______ _____ _____    ______ ____
ROOT
ATOM      1  N   UNL     1       6.713  -7.241   0.038  0.00  0.00    -0.297 NA
ENDROOT
BRANCH   1   2
ATOM      2  C   UNL     1       5.740  -6.134   0.189  0.00  0.00    +0.088 C 
BRANCH   2   3
ATOM      3  C   UNL     1       4.823  -5.789   1.417  0.00  0.00    +0.056 C 
BRANCH   3   4
ATOM      4  C   UNL     1       3.672  -6.732   1.881  0.00  0.00    +0.230 C 
BRANCH   4   5
ATOM      5  O   UNL     1       3.008  -6.138   3.036  0.00  0.00    -0.492 OA
BRANCH   5   8
ATOM      6  C   UNL     1       1.913  -7.168   6.403  0.00  0.00    -0.033 A 
ATOM      7  C   UNL     1       2.334  -6.396   5.296  0.00  0.00    +0.049 A 
ATOM      8  C   UNL     1       2.483  -6.963   4.011  0.00  0.00    +0.121 A 
ATOM      9  C   UNL     1       2.124  -8.298   3.830  0.00  0.00    +0.045 A 
ATOM     10  C   UNL     1       1.652  -9.057   4.911  0.00  0.00    +0.004 A 
ATOM     11  C   UNL     1       1.547  -8.500   6.188  0.00  0.00    +0.004 A 
BRANCH   6  12
ATOM     12  C   UNL     1       1.969  -6.630   7.822  0.00  0.00    +0.155 C 
BRANCH  12  13
ATOM     13  C   UNL     1       0.642  -6.339   8.494  0.00  0.00    +0.309 C 
ATOM     14  O   UNL     1       0.316  -6.793   9.573  0.00  0.00    -0.251 OA
BRANCH  13  15
ATOM     15  O   UNL     1      -0.125  -5.442   7.822  0.00  0.00    -0.480 OA
ATOM     16  H   UNL     1       0.259  -5.172   6.964  0.00  0.00    +0.295 HD
ENDBRANCH  13  15
ENDBRANCH  12  13
ENDBRANCH   6  12
ENDBRANCH   5   8
ENDBRANCH   4   5
ENDBRANCH   3   4
ENDBRANCH   2   3
ENDBRANCH   1   2
BRANCH   1  17
ATOM     17  C   UNL     1       6.214  -8.610  -0.151  0.00  0.00    +0.121 C 
BRANCH  17  18
ATOM     18  C   UNL     1       5.044  -8.892  -1.088  0.00  0.00    -0.015 A 
ATOM     19  C   UNL     1       3.985  -9.758  -0.706  0.00  0.00    +0.057 A 
ATOM     20 CL   UNL     1       3.935 -10.443   0.894  0.00  0.00    -0.083 Cl
ATOM     21  C   UNL     1       2.971 -10.125  -1.610  0.00  0.00    +0.073 A 
ATOM     22  C   UNL     1       3.062  -9.687  -2.939  0.00  0.00    +0.014 A 
ATOM     23  C   UNL     1       4.097  -8.841  -3.335  0.00  0.00    +0.001 A 
ATOM     24  C   UNL     1       5.069  -8.430  -2.417  0.00  0.00    +0.006 A 
BRANCH  21  25
ATOM     25  C   UNL     1       1.784 -10.948  -1.167  0.00  0.00    +0.419 C 
ATOM     26  F   UNL     1       1.065 -10.329  -0.188  0.00  0.00    -0.166 F 
ATOM     27  F   UNL     1       2.121 -12.174  -0.679  0.00  0.00    -0.166 F 
ATOM     28  F   UNL     1       0.892 -11.191  -2.168  0.00  0.00    -0.166 F 
ENDBRANCH  21  25
ENDBRANCH  17  18
ENDBRANCH   1  17
BRANCH   1  29
ATOM     29  C   UNL     1       8.104  -7.154   0.633  0.00  0.00    +0.093 C 
BRANCH  29  30
ATOM     30  C   UNL     1       8.466  -7.347   2.200  0.00  0.00    +0.036 C 
BRANCH  30  31
ATOM     31  C   UNL     1       9.935  -7.183   2.630  0.00  0.00    -0.043 A 
ATOM     32  C   UNL     1      10.992  -7.975   2.174  0.00  0.00    +0.004 A 
ATOM     33  C   UNL     1      12.288  -7.839   2.708  0.00  0.00    +0.000 A 
ATOM     34  C   UNL     1      12.542  -6.911   3.710  0.00  0.00    +0.000 A 
ATOM     35  C   UNL     1      11.508  -6.109   4.187  0.00  0.00    +0.000 A 
ATOM     36  C   UNL     1      10.223  -6.253   3.658  0.00  0.00    +0.004 A 
ENDBRANCH  30  31
BRANCH  30  37
ATOM     37  C   UNL     1       7.775  -8.607   2.849  0.00  0.00    -0.002 C 
ATOM     38  C   UNL     1       6.328  -8.229   3.094  0.00  0.00    +0.004 C 
ATOM     39  C   UNL     1       6.153  -7.231   4.223  0.00  0.00    +0.000 C 
ATOM     40  C   UNL     1       6.426  -7.931   5.519  0.00  0.00    +0.000 C 
ATOM     41  C   UNL     1       7.790  -8.604   5.495  0.00  0.00    +0.000 C 
ATOM     42  C   UNL     1       8.212  -9.277   4.172  0.00  0.00    +0.004 C 
ENDBRANCH  30  37
ENDBRANCH  29  30
ENDBRANCH   1  29
TORSDOF 15
