REMARK  Name = 
REMARK  11 active torsions:
REMARK  status: ('A' for Active; 'I' for Inactive)
REMARK    1  A    between atoms: O_1  and  C_2
REMARK    2  A    between atoms: C_2  and  C_3
REMARK    3  A    between atoms: C_6  and  O_8
REMARK    4  A    between atoms: O_8  and  C_9
REMARK    5  A    between atoms: C_11  and  O_13
REMARK    6  A    between atoms: C_15  and  O_17
REMARK    7  A    between atoms: C_19  and  C_21
REMARK    8  A    between atoms: C_21  and  O_22
REMARK    9  A    between atoms: C_23  and  O_25
REMARK   10  A    between atoms: C_26  and  O_28
REMARK   11  A    between atoms: C_29  and  O_31
REMARK                            x       y       z     vdW  Elec       q    Type
REMARK                         _______ _______ _______ _____ _____    ______ ____
ROOT
ATOM      1  C   UNL     1       8.711   3.895   0.238  0.00  0.00    +0.178 C 
ATOM      2  C   UNL     1      10.239   4.080   0.241  0.00  0.00    +0.177 C 
ATOM      3  C   UNL     1      10.858   3.426  -1.011  0.00  0.00    +0.179 C 
ATOM      4  C   UNL     1      10.335   2.013  -1.254  0.00  0.00    +0.201 C 
ATOM      5  C   UNL     1       8.802   2.057  -1.210  0.00  0.00    +0.282 C 
ATOM      6  O   UNL     1       8.374   2.509   0.068  0.00  0.00    -0.341 OA
ENDROOT
BRANCH   2   7
ATOM      7  O   UNL     1      10.532   5.483   0.274  0.00  0.00    -0.386 OA
ATOM      8  H   UNL     1      11.222   5.656  -0.394  0.00  0.00    +0.210 HD
ENDBRANCH   2   7
BRANCH   3   9
ATOM      9  O   UNL     1      12.290   3.419  -0.908  0.00  0.00    -0.386 OA
ATOM     10  H   UNL     1      12.598   2.811  -1.612  0.00  0.00    +0.210 HD
ENDBRANCH   3   9
BRANCH   4  11
ATOM     11  O   UNL     1      10.830   1.581  -2.536  0.00  0.00    -0.384 OA
ATOM     12  H   UNL     1      10.095   1.090  -2.960  0.00  0.00    +0.210 HD
ENDBRANCH   4  11
BRANCH   1  13
ATOM     13  C   UNL     1       8.070   4.431   1.516  0.00  0.00    +0.190 C 
BRANCH  13  14
ATOM     14  O   UNL     1       6.639   4.408   1.383  0.00  0.00    -0.392 OA
ATOM     15  H   UNL     1       6.274   4.655   2.243  0.00  0.00    +0.210 HD
ENDBRANCH  13  14
ENDBRANCH   1  13
BRANCH   5  16
ATOM     16  O   UNL     1       8.282   0.763  -1.537  0.00  0.00    -0.340 OA
BRANCH  16  17
ATOM     17  C   UNL     1       6.846   0.739  -1.621  0.00  0.00    +0.181 C 
ATOM     18  C   UNL     1       6.199   1.738  -2.612  0.00  0.00    +0.178 C 
ATOM     19  O   UNL     1       4.770   1.593  -2.612  0.00  0.00    -0.343 OA
ATOM     20  C   UNL     1       4.308   0.296  -2.953  0.00  0.00    +0.250 C 
ATOM     21  C   UNL     1       4.892  -0.780  -2.053  0.00  0.00    +0.095 C 
ATOM     22  C   UNL     1       6.410  -0.687  -2.004  0.00  0.00    +0.151 C 
BRANCH  20  23
ATOM     23  O   UNL     1       2.897   0.305  -2.843  0.00  0.00    -0.367 OA
ATOM     24  H   UNL     1       2.710   0.501  -1.910  0.00  0.00    +0.212 HD
ENDBRANCH  20  23
BRANCH  22  25
ATOM     25  O   UNL     1       6.897  -1.635  -1.053  0.00  0.00    -0.389 OA
ATOM     26  H   UNL     1       7.838  -1.412  -0.914  0.00  0.00    +0.210 HD
ENDBRANCH  22  25
BRANCH  18  27
ATOM     27  C   UNL     1       6.755   1.720  -4.054  0.00  0.00    +0.190 C 
BRANCH  27  28
ATOM     28  O   UNL     1       8.153   1.983  -4.110  0.00  0.00    -0.392 OA
ATOM     29  H   UNL     1       8.308   2.565  -4.876  0.00  0.00    +0.210 HD
ENDBRANCH  27  28
ENDBRANCH  18  27
ENDBRANCH  16  17
ENDBRANCH   5  16
TORSDOF 11
