REMARK  Name = 
REMARK  14 active torsions:
REMARK  status: ('A' for Active; 'I' for Inactive)
REMARK    1  A    between atoms: C_1  and  C_2
REMARK    2  A    between atoms: C_2  and  C_3
REMARK    3  A    between atoms: C_2  and  C_4
REMARK    4  A    between atoms: C_4  and  C_5
REMARK    5  A    between atoms: C_5  and  N_6
REMARK    6  A    between atoms: N_6  and  C_7
REMARK    7  A    between atoms: N_6  and  S_35
REMARK    8  A    between atoms: C_7  and  C_8
REMARK    9  A    between atoms: C_8  and  O_10
REMARK   10  A    between atoms: C_8  and  C_11
REMARK   11  A    between atoms: C_25  and  C_27
REMARK   12  A    between atoms: C_27  and  C_28
REMARK   13  A    between atoms: C_27  and  C_29
REMARK   14  A    between atoms: S_35  and  C_38
REMARK                            x       y       z     vdW  Elec       q    Type
REMARK                         _______ _______ _______ _____ _____    ______ ____
ROOT
ATOM      1  C   UNL     1       1.265  -5.761   5.870  0.00  0.00    +0.107 C 
ATOM      2  N   UNL     1       0.555  -7.385   6.724  0.00  0.00    -0.308 N 
ATOM      3  H   UNL     1       0.972  -7.099   7.609  0.00  0.00    +0.149 HD
ATOM      4  C   UNL     1      -0.657  -8.238   7.561  0.00  0.00    +0.234 C 
ATOM      5  O   UNL     1      -1.155  -7.554   8.468  0.00  0.00    -0.274 OA
ATOM      6  C   UNL     1      -1.505 -10.078   7.604  0.00  0.00    +0.161 C 
ATOM      7  N   UNL     1      -3.105  -9.878   7.365  0.00  0.00    -0.304 N 
ATOM      8  H   UNL     1      -3.551 -10.127   8.231  0.00  0.00    +0.149 HD
ATOM      9  C   UNL     1      -3.920 -10.638   6.482  0.00  0.00    +0.214 C 
ATOM     10  O   UNL     1      -4.357 -11.730   6.657  0.00  0.00    -0.276 OA
ATOM     11  C   UNL     1      -4.176  -9.790   5.297  0.00  0.00    +0.099 C 
ATOM     12  C   UNL     1      -2.871  -9.889   4.566  0.00  0.00    +0.050 C 
ATOM     13  C   UNL     1      -2.390  -8.501   4.660  0.00  0.00    +0.229 C 
ATOM     14  O   UNL     1      -1.114  -8.400   4.105  0.00  0.00    -0.492 OA
ATOM     15  C   UNL     1      -0.953  -7.095   3.766  0.00  0.00    +0.121 A 
ATOM     16  C   UNL     1      -1.831  -6.045   4.166  0.00  0.00    +0.046 A 
ATOM     17  C   UNL     1      -1.517  -4.759   3.903  0.00  0.00    +0.007 A 
ATOM     18  C   UNL     1      -0.154  -4.649   3.880  0.00  0.00    -0.045 A 
ATOM     19  C   UNL     1       0.600  -5.505   3.055  0.00  0.00    +0.007 A 
ATOM     20  C   UNL     1       0.220  -6.828   3.096  0.00  0.00    +0.046 A 
ATOM     21  C   UNL     1       0.319  -4.572   5.373  0.00  0.00    +0.060 C 
ENDROOT
BRANCH   6  22
ATOM     22  C   UNL     1      -1.904 -11.598   8.700  0.00  0.00    +0.012 C 
ATOM     23  C   UNL     1      -2.998 -11.494   9.875  0.00  0.00    +0.009 C 
ATOM     24  C   UNL     1      -1.607 -13.189   8.756  0.00  0.00    +0.009 C 
ENDBRANCH   6  22
BRANCH   1  25
ATOM     25  C   UNL     1       2.854  -4.631   5.685  0.00  0.00    +0.151 C 
BRANCH  25  26
ATOM     26  O   UNL     1       2.689  -3.549   6.646  0.00  0.00    -0.389 OA
ATOM     27  H   UNL     1       2.999  -2.718   6.232  0.00  0.00    +0.210 HD
ENDBRANCH  25  26
BRANCH  25  28
ATOM     28  C   UNL     1       3.443  -3.619   4.154  0.00  0.00    +0.142 C 
BRANCH  28  29
ATOM     29  N   UNL     1       4.764  -2.284   4.136  0.00  0.00    -0.174 NA
BRANCH  29  30
ATOM     30  S   UNL     1       6.511  -3.164   4.123  0.00  0.00    +0.061 S 
ATOM     31  O   UNL     1       6.715  -3.644   2.773  0.00  0.00    -0.153 OA
ATOM     32  O   UNL     1       6.527  -4.016   5.269  0.00  0.00    -0.153 OA
BRANCH  30  33
ATOM     33  C   UNL     1       7.764  -1.796   4.403  0.00  0.00    +0.105 A 
ATOM     34  C   UNL     1       8.737  -1.420   3.442  0.00  0.00    +0.028 A 
ATOM     35  C   UNL     1       9.748  -0.474   3.765  0.00  0.00    +0.002 A 
ATOM     36  C   UNL     1       9.792   0.098   5.041  0.00  0.00    +0.000 A 
ATOM     37  C   UNL     1       8.826  -0.270   5.980  0.00  0.00    +0.002 A 
ATOM     38  C   UNL     1       7.835  -1.203   5.656  0.00  0.00    +0.028 A 
ENDBRANCH  30  33
ENDBRANCH  29  30
BRANCH  29  39
ATOM     39  C   UNL     1       5.115  -1.232   2.729  0.00  0.00    +0.110 C 
BRANCH  39  40
ATOM     40  C   UNL     1       4.393   0.077   2.243  0.00  0.00    +0.020 C 
BRANCH  40  42
ATOM     41  C   UNL     1       4.122   2.115   0.620  0.00  0.00    +0.007 C 
ATOM     42  C   UNL     1       5.117   1.020   1.090  0.00  0.00    -0.016 C 
ATOM     43  C   UNL     1       6.430   1.790   1.395  0.00  0.00    +0.007 C 
ENDBRANCH  40  42
ENDBRANCH  39  40
ENDBRANCH  29  39
ENDBRANCH  28  29
ENDBRANCH  25  28
ENDBRANCH   1  25
TORSDOF 10
