REMARK  Name = 
REMARK  7 active torsions:
REMARK  status: ('A' for Active; 'I' for Inactive)
REMARK    1  A    between atoms: C_1  and  C_2
REMARK    2  A    between atoms: C_2  and  C_3
REMARK    3  A    between atoms: C_2  and  C_4
REMARK    4  A    between atoms: C_2  and  C_6
REMARK    5  A    between atoms: C_4  and  O_5
REMARK    6  A    between atoms: C_6  and  C_8
REMARK    7  A    between atoms: C_8  and  O_9
REMARK                            x       y       z     vdW  Elec       q    Type
REMARK                         _______ _______ _______ _____ _____    ______ ____
ROOT
ATOM      1  C   UNL     1       0.944   0.046  -0.048  0.00  0.00    +0.022 C 
ATOM      2  C   UNL     1       2.485   0.020  -0.069  0.00  0.00    +0.058 C 
ATOM      3  C   UNL     1       2.959  -0.774   1.157  0.00  0.00    +0.022 C 
ENDROOT
BRANCH   2   4
ATOM      4  C   UNL     1       3.005   1.455   0.008  0.00  0.00    +0.247 C 
ATOM      5  O   UNL     1       2.301   2.459   0.121  0.00  0.00    -0.284 OA
BRANCH   4   6
ATOM      6  C   UNL     1       4.520   1.706  -0.025  0.00  0.00    +0.373 C 
ATOM      7  O   UNL     1       5.365   0.835  -0.028  0.00  0.00    -0.242 OA
BRANCH   6   8
ATOM      8  O   UNL     1       4.769   3.031   0.004  0.00  0.00    -0.475 OA
ATOM      9  H   UNL     1       3.909   3.515   0.024  0.00  0.00    +0.295 HD
ENDBRANCH   6   8
ENDBRANCH   4   6
ENDBRANCH   2   4
BRANCH   2  10
ATOM     10  C   UNL     1       2.977  -0.643  -1.364  0.00  0.00    +0.170 C 
BRANCH  10  11
ATOM     11  O   UNL     1       2.562   0.100  -2.505  0.00  0.00    -0.394 OA
ATOM     12  H   UNL     1       1.630  -0.117  -2.687  0.00  0.00    +0.209 HD
ENDBRANCH  10  11
ENDBRANCH   2  10
TORSDOF 5
