REMARK  Name = 
REMARK  8 active torsions:
REMARK  status: ('A' for Active; 'I' for Inactive)
REMARK    1  A    between atoms: N_1  and  C_2
REMARK    2  A    between atoms: C_5  and  O_6
REMARK    3  A    between atoms: O_6  and  C_7
REMARK    4  A    between atoms: C_10  and  C_12
REMARK    5  A    between atoms: C_12  and  O_13
REMARK    6  A    between atoms: C_14  and  O_16
REMARK    7  A    between atoms: C_17  and  O_19
REMARK    8  A    between atoms: C_20  and  O_22
REMARK                            x       y       z     vdW  Elec       q    Type
REMARK                         _______ _______ _______ _____ _____    ______ ____
ROOT
ATOM      1  C   UNL     1       7.416  -1.359  -0.819  0.00  0.00    +0.339 C 
ATOM      2  C   UNL     1       7.475  -2.910  -0.720  0.00  0.00    +0.214 C 
ATOM      3  C   UNL     1       6.988  -3.429   0.634  0.00  0.00    +0.180 C 
ATOM      4  C   UNL     1       7.610  -2.640   1.785  0.00  0.00    +0.177 C 
ATOM      5  C   UNL     1       7.331  -1.147   1.582  0.00  0.00    +0.179 C 
ATOM      6  O   UNL     1       7.909  -0.700   0.349  0.00  0.00    -0.331 OA
ENDROOT
BRANCH   2   7
ATOM      7  O   UNL     1       6.693  -3.543  -1.756  0.00  0.00    -0.383 OA
ATOM      8  H   UNL     1       6.218  -2.871  -2.271  0.00  0.00    +0.210 HD
ENDBRANCH   2   7
BRANCH   3   9
ATOM      9  O   UNL     1       7.328  -4.816   0.787  0.00  0.00    -0.386 OA
ATOM     10  H   UNL     1       7.286  -5.012   1.741  0.00  0.00    +0.210 HD
ENDBRANCH   3   9
BRANCH   4  11
ATOM     11  O   UNL     1       7.090  -3.131   3.020  0.00  0.00    -0.386 OA
ATOM     12  H   UNL     1       6.130  -2.974   3.049  0.00  0.00    +0.210 HD
ENDBRANCH   4  11
BRANCH   1  13
ATOM     13  O   UNL     1       8.277  -1.038  -1.909  0.00  0.00    -0.461 OA
BRANCH  13  17
ATOM     14  C   UNL     1       8.087   2.260  -4.424  0.00  0.00    +0.025 A 
ATOM     15  C   UNL     1       6.982   1.982  -3.613  0.00  0.00    +0.026 A 
ATOM     16  C   UNL     1       7.001   0.907  -2.710  0.00  0.00    +0.047 A 
ATOM     17  C   UNL     1       8.145   0.127  -2.596  0.00  0.00    +0.124 A 
ATOM     18  C   UNL     1       9.291   0.491  -3.306  0.00  0.00    +0.047 A 
ATOM     19  C   UNL     1       9.272   1.569  -4.192  0.00  0.00    +0.026 A 
BRANCH  14  20
ATOM     20  N   UNL     1       8.068   3.346  -5.308  0.00  0.00    -0.358 N 
ATOM     21  H   UNL     1       7.144   3.537  -5.683  0.00  0.00    +0.142 HD
ATOM     22  H   UNL     1       8.758   3.260  -6.051  0.00  0.00    +0.142 HD
ENDBRANCH  14  20
ENDBRANCH  13  17
ENDBRANCH   1  13
BRANCH   5  23
ATOM     23  C   UNL     1       7.958  -0.308   2.698  0.00  0.00    +0.190 C 
BRANCH  23  24
ATOM     24  O   UNL     1       7.581   1.058   2.522  0.00  0.00    -0.392 OA
ATOM     25  H   UNL     1       7.881   1.303   1.625  0.00  0.00    +0.210 HD
ENDBRANCH  23  24
ENDBRANCH   5  23
TORSDOF 8
