REMARK  Name = 
REMARK  29 active torsions:
REMARK  status: ('A' for Active; 'I' for Inactive)
REMARK    1  A    between atoms: C_1  and  C_2
REMARK    2  A    between atoms: C_2  and  C_3
REMARK    3  A    between atoms: C_2  and  C_4
REMARK    4  A    between atoms: C_2  and  C_40
REMARK    5  A    between atoms: C_4  and  O_5
REMARK    6  A    between atoms: O_5  and  P_6
REMARK    7  A    between atoms: P_6  and  O_7
REMARK    8  A    between atoms: P_6  and  O_9
REMARK    9  A    between atoms: O_9  and  P_10
REMARK   10  A    between atoms: P_10  and  O_11
REMARK   11  A    between atoms: P_10  and  O_13
REMARK   12  A    between atoms: O_13  and  C_14
REMARK   13  A    between atoms: C_14  and  C_15
REMARK   14  A    between atoms: C_18  and  N_30
REMARK   15  A    between atoms: C_20  and  O_22
REMARK   16  A    between atoms: C_23  and  O_25
REMARK   17  A    between atoms: O_25  and  P_26
REMARK   18  A    between atoms: P_26  and  O_27
REMARK   19  A    between atoms: P_26  and  O_28
REMARK   20  A    between atoms: C_40  and  O_42
REMARK   21  A    between atoms: C_40  and  C_43
REMARK   22  A    between atoms: N_45  and  C_46
REMARK   23  A    between atoms: C_46  and  C_47
REMARK   24  A    between atoms: C_47  and  C_48
REMARK   25  A    between atoms: N_50  and  C_51
REMARK   26  A    between atoms: C_51  and  C_52
REMARK   27  A    between atoms: C_52  and  C_53
REMARK   28  A    between atoms: C_53  and  C_56
REMARK   29  A    between atoms: C_56  and  O_57
REMARK                            x       y       z     vdW  Elec       q    Type
REMARK                         _______ _______ _______ _____ _____    ______ ____
ROOT
ATOM      1  P   UNL     1      20.253   1.678  29.101  0.00  0.00    +0.483 P 
ATOM      2  O   UNL     1      21.678   1.184  28.845  0.00  0.00    -0.227 OA
ENDROOT
BRANCH   1   3
ATOM      3  O   UNL     1      20.325   2.403  30.562  0.00  0.00    -0.302 OA
ATOM      4  H   UNL     1      21.236   2.331  30.902  0.00  0.00    +0.222 HD
ENDBRANCH   1   3
BRANCH   1   5
ATOM      5  O   UNL     1      19.965   0.156  29.870  0.00  0.00    -0.186 OA
BRANCH   5   6
ATOM      6  P   UNL     1      19.101  -0.843  28.972  0.00  0.00    +0.483 P 
ATOM      7  O   UNL     1      17.795  -0.293  28.512  0.00  0.00    -0.227 OA
BRANCH   6   8
ATOM      8  O   UNL     1      18.940  -2.152  29.891  0.00  0.00    -0.302 OA
ATOM      9  H   UNL     1      18.262  -2.752  29.529  0.00  0.00    +0.222 HD
ENDBRANCH   6   8
BRANCH   6  10
ATOM     10  O   UNL     1      20.078  -1.347  27.801  0.00  0.00    -0.286 OA
BRANCH  10  11
ATOM     11  C   UNL     1      21.187  -2.141  28.189  0.00  0.00    +0.181 C 
BRANCH  11  13
ATOM     12  C   UNL     1      21.343  -3.017  25.831  0.00  0.00    +0.016 C 
ATOM     13  C   UNL     1      22.148  -2.440  27.019  0.00  0.00    +0.024 C 
ATOM     14  C   UNL     1      22.813  -1.143  26.518  0.00  0.00    +0.016 C 
BRANCH  13  15
ATOM     15  C   UNL     1      23.198  -3.481  27.527  0.00  0.00    +0.208 C 
BRANCH  15  16
ATOM     16  C   UNL     1      23.943  -2.973  28.794  0.00  0.00    +0.242 C 
ATOM     17  N   UNL     1      23.587  -3.630  29.963  0.00  0.00    -0.313 N 
ATOM     18  H   UNL     1      23.380  -4.616  29.859  0.00  0.00    +0.149 HD
ATOM     19  O   UNL     1      24.723  -2.026  28.784  0.00  0.00    -0.273 OA
BRANCH  17  20
ATOM     20  C   UNL     1      24.197  -3.234  31.228  0.00  0.00    +0.113 C 
BRANCH  20  21
ATOM     21  C   UNL     1      23.325  -3.578  32.428  0.00  0.00    +0.114 C 
BRANCH  21  22
ATOM     22  C   UNL     1      23.223  -5.073  32.590  0.00  0.00    +0.215 C 
ATOM     23  N   UNL     1      21.952  -5.579  32.420  0.00  0.00    -0.315 N 
ATOM     24  H   UNL     1      21.162  -4.947  32.341  0.00  0.00    +0.149 HD
ATOM     25  O   UNL     1      24.205  -5.784  32.780  0.00  0.00    -0.276 OA
BRANCH  23  26
ATOM     26  C   UNL     1      21.702  -7.009  32.429  0.00  0.00    +0.107 C 
BRANCH  26  27
ATOM     27  C   UNL     1      21.574  -7.578  33.841  0.00  0.00    +0.067 C 
BRANCH  27  28
ATOM     28  C   UNL     1      21.456  -9.097  33.825  0.00  0.00    +0.275 C 
ATOM     29  F   UNL     1      22.551  -9.619  33.187  0.00  0.00    -0.233 F 
BRANCH  28  30
ATOM     30  C   UNL     1      20.190  -9.556  33.126  0.00  0.00    +0.339 C 
ATOM     31  O   UNL     1      19.057  -9.221  33.434  0.00  0.00    -0.248 OA
BRANCH  30  32
ATOM     32  O   UNL     1      20.461 -10.362  32.068  0.00  0.00    -0.479 OA
ATOM     33  H   UNL     1      21.430 -10.517  31.991  0.00  0.00    +0.295 HD
ENDBRANCH  30  32
ENDBRANCH  28  30
ENDBRANCH  27  28
ENDBRANCH  26  27
ENDBRANCH  23  26
ENDBRANCH  21  22
ENDBRANCH  20  21
ENDBRANCH  17  20
ENDBRANCH  15  16
BRANCH  15  34
ATOM     34  O   UNL     1      24.134  -3.843  26.521  0.00  0.00    -0.382 OA
ATOM     35  H   UNL     1      23.659  -4.271  25.792  0.00  0.00    +0.210 HD
ENDBRANCH  15  34
ENDBRANCH  13  15
ENDBRANCH  11  13
ENDBRANCH  10  11
ENDBRANCH   6  10
ENDBRANCH   5   6
ENDBRANCH   1   5
BRANCH   1  36
ATOM     36  O   UNL     1      20.540   3.201  28.331  0.00  0.00    -0.284 OA
BRANCH  36  37
ATOM     37  C   UNL     1      21.917   3.506  28.061  0.00  0.00    +0.206 C 
BRANCH  37  38
ATOM     38  C   UNL     1      22.069   4.830  27.338  0.00  0.00    +0.179 C 
ATOM     39  C   UNL     1      21.237   4.852  26.058  0.00  0.00    +0.194 C 
ATOM     40  C   UNL     1      20.109   5.846  26.360  0.00  0.00    +0.196 C 
ATOM     41  C   UNL     1      20.250   6.145  27.859  0.00  0.00    +0.253 C 
ATOM     42  O   UNL     1      21.618   5.876  28.195  0.00  0.00    -0.346 OA
BRANCH  41  43
ATOM     43  N   UNL     1      19.956   7.509  28.245  0.00  0.00    -0.286 N 
ATOM     44  C   UNL     1      18.744   8.130  28.136  0.00  0.00    +0.167 A 
ATOM     45  N   UNL     1      17.623   7.661  27.562  0.00  0.00    -0.216 NA
ATOM     46  C   UNL     1      16.629   8.577  27.664  0.00  0.00    +0.225 A 
ATOM     47  N   UNL     1      16.664   9.804  28.235  0.00  0.00    -0.219 NA
ATOM     48  C   UNL     1      17.816  10.218  28.810  0.00  0.00    +0.147 A 
ATOM     49  N   UNL     1      17.860  11.462  29.418  0.00  0.00    -0.341 N 
ATOM     50  H   UNL     1      18.805  11.820  29.526  0.00  0.00    +0.144 HD
ATOM     51  H   UNL     1      17.154  12.088  29.057  0.00  0.00    +0.144 HD
ATOM     52  C   UNL     1      18.924   9.357  28.756  0.00  0.00    +0.147 A 
ATOM     53  N   UNL     1      20.213   9.501  29.214  0.00  0.00    -0.231 NA
ATOM     54  C   UNL     1      20.800   8.366  28.902  0.00  0.00    +0.203 A 
ENDBRANCH  41  43
BRANCH  40  55
ATOM     55  O   UNL     1      18.841   5.245  26.066  0.00  0.00    -0.385 OA
ATOM     56  H   UNL     1      18.149   5.858  26.393  0.00  0.00    +0.210 HD
ENDBRANCH  40  55
BRANCH  39  57
ATOM     57  O   UNL     1      22.035   5.311  24.962  0.00  0.00    -0.278 OA
BRANCH  57  58
ATOM     58  P   UNL     1      23.353   4.283  24.517  0.00  0.00    +0.473 P 
ATOM     59  O   UNL     1      24.534   3.364  24.118  0.00  0.00    -0.228 OA
BRANCH  58  60
ATOM     60  O   UNL     1      22.569   4.134  23.091  0.00  0.00    -0.303 OA
ATOM     61  H   UNL     1      22.372   3.207  22.881  0.00  0.00    +0.222 HD
ENDBRANCH  58  60
BRANCH  58  62
ATOM     62  O   UNL     1      24.135   5.672  24.153  0.00  0.00    -0.303 OA
ATOM     63  H   UNL     1      24.432   6.164  24.933  0.00  0.00    +0.222 HD
ENDBRANCH  58  62
ENDBRANCH  57  58
ENDBRANCH  39  57
ENDBRANCH  37  38
ENDBRANCH  36  37
ENDBRANCH   1  36
TORSDOF 27
