REMARK  Name = 
REMARK  16 active torsions:
REMARK  status: ('A' for Active; 'I' for Inactive)
REMARK    1  A    between atoms: N_6  and  C_9
REMARK    2  A    between atoms: C_12  and  C_14
REMARK    3  A    between atoms: C_14  and  O_15
REMARK    4  A    between atoms: O_15  and  P_16
REMARK    5  A    between atoms: P_16  and  O_17
REMARK    6  A    between atoms: P_16  and  O_19
REMARK    7  A    between atoms: O_19  and  P_20
REMARK    8  A    between atoms: P_20  and  O_21
REMARK    9  A    between atoms: P_20  and  O_23
REMARK   10  A    between atoms: O_23  and  C_24
REMARK   11  A    between atoms: C_24  and  C_25
REMARK   12  A    between atoms: C_34  and  S_35
REMARK   13  A    between atoms: C_36  and  S_37
REMARK   14  A    between atoms: C_38  and  O_39
REMARK   15  A    between atoms: C_44  and  O_46
REMARK   16  A    between atoms: C_47  and  O_49
REMARK                            x       y       z     vdW  Elec       q    Type
REMARK                         _______ _______ _______ _____ _____    ______ ____
ROOT
ATOM      1  P   UNL     1       9.982   1.756   7.655  0.00  0.00    +0.483 P 
ATOM      2  O   UNL     1      10.673   1.039   6.487  0.00  0.00    -0.227 OA
ENDROOT
BRANCH   1   3
ATOM      3  O   UNL     1       8.497   1.100   7.794  0.00  0.00    -0.302 OA
ATOM      4  H   UNL     1       7.962   1.490   8.511  0.00  0.00    +0.222 HD
ENDBRANCH   1   3
BRANCH   1   5
ATOM      5  O   UNL     1       9.386   2.962   6.568  0.00  0.00    -0.186 OA
BRANCH   5   6
ATOM      6  P   UNL     1       8.762   2.199   5.146  0.00  0.00    +0.483 P 
ATOM      7  O   UNL     1       7.355   2.716   5.461  0.00  0.00    -0.227 OA
BRANCH   6   8
ATOM      8  O   UNL     1       8.137   1.436   3.725  0.00  0.00    -0.302 OA
ATOM      9  H   UNL     1       7.953   0.504   3.933  0.00  0.00    +0.222 HD
ENDBRANCH   6   8
BRANCH   6  10
ATOM     10  O   UNL     1       9.540   3.315   4.185  0.00  0.00    -0.284 OA
BRANCH  10  11
ATOM     11  C   UNL     1      10.917   3.053   3.920  0.00  0.00    +0.206 C 
BRANCH  11  15
ATOM     12  C   UNL     1      11.774   6.368   2.573  0.00  0.00    +0.255 C 
ATOM     13  C   UNL     1      10.946   5.797   1.403  0.00  0.00    +0.195 C 
ATOM     14  C   UNL     1      10.909   4.287   1.647  0.00  0.00    +0.178 C 
ATOM     15  C   UNL     1      11.591   4.088   2.999  0.00  0.00    +0.178 C 
ATOM     16  O   UNL     1      11.700   5.374   3.621  0.00  0.00    -0.346 OA
BRANCH  12  23
ATOM     17  N   UNL     1      17.022   7.963   1.764  0.00  0.00    -0.343 N 
ATOM     18  H   UNL     1      17.663   7.341   1.289  0.00  0.00    +0.144 HD
ATOM     19  H   UNL     1      17.412   8.399   2.595  0.00  0.00    +0.144 HD
ATOM     20  C   UNL     1      15.731   7.548   1.940  0.00  0.00    +0.123 A 
ATOM     21  C   UNL     1      15.147   6.575   1.003  0.00  0.00    +0.061 A 
ATOM     22  C   UNL     1      13.899   6.186   1.263  0.00  0.00    +0.096 A 
ATOM     23  N   UNL     1      13.182   6.712   2.318  0.00  0.00    -0.270 N 
ATOM     24  C   UNL     1      13.770   7.661   3.173  0.00  0.00    +0.352 A 
ATOM     25  O   UNL     1      13.140   8.170   4.097  0.00  0.00    -0.244 OA
ATOM     26  N   UNL     1      15.081   8.028   2.952  0.00  0.00    -0.178 NA
ENDBRANCH  12  23
BRANCH  14  27
ATOM     27  O   UNL     1      11.655   3.604   0.629  0.00  0.00    -0.386 OA
ATOM     28  H   UNL     1      11.463   2.654   0.720  0.00  0.00    +0.210 HD
ENDBRANCH  14  27
BRANCH  13  29
ATOM     29  O   UNL     1       9.604   6.320   1.416  0.00  0.00    -0.385 OA
ATOM     30  H   UNL     1       9.221   6.144   2.299  0.00  0.00    +0.210 HD
ENDBRANCH  13  29
ENDBRANCH  11  15
ENDBRANCH  10  11
ENDBRANCH   6  10
ENDBRANCH   5   6
ENDBRANCH   1   5
BRANCH   1  31
ATOM     31  O   UNL     1      10.578   0.550   8.743  0.00  0.00    -0.282 OA
BRANCH  31  32
ATOM     32  C   UNL     1      11.996   0.662   8.938  0.00  0.00    +0.222 C 
BRANCH  32  33
ATOM     33  C   UNL     1      12.552  -0.441   9.854  0.00  0.00    +0.238 C 
ATOM     34  C   UNL     1      12.465  -1.844   9.259  0.00  0.00    +0.040 C 
ATOM     35  C   UNL     1      11.709  -2.802   9.830  0.00  0.00    +0.048 C 
ATOM     36  C   UNL     1      10.980  -2.456  11.058  0.00  0.00    +0.140 A 
ATOM     37  C   UNL     1      11.131  -1.199  11.624  0.00  0.00    +0.245 A 
ATOM     38  N   UNL     1      10.498  -0.834  12.764  0.00  0.00    -0.189 NA
ATOM     39  C   UNL     1       9.702  -1.725  13.364  0.00  0.00    +0.190 A 
ATOM     40  N   UNL     1       9.072  -1.356  14.476  0.00  0.00    -0.193 NA
ATOM     41  C   UNL     1       8.285  -2.248  15.073  0.00  0.00    +0.218 A 
ATOM     42  N   UNL     1       7.604  -1.846  16.199  0.00  0.00    -0.327 N 
ATOM     43  H   UNL     1       8.053  -1.057  16.643  0.00  0.00    +0.145 HD
ATOM     44  H   UNL     1       7.354  -2.636  16.776  0.00  0.00    +0.145 HD
ATOM     45  N   UNL     1       8.123  -3.502  14.670  0.00  0.00    -0.178 NA
ATOM     46  C   UNL     1       8.771  -3.833  13.546  0.00  0.00    +0.245 A 
ATOM     47  C   UNL     1       9.579  -2.999  12.809  0.00  0.00    +0.170 A 
ATOM     48  N   UNL     1      10.199  -3.393  11.653  0.00  0.00    -0.232 NA
ATOM     49  O   UNL     1      11.972  -0.244  11.152  0.00  0.00    -0.464 OA
BRANCH  46  50
ATOM     50  O   UNL     1       8.589  -5.133  13.137  0.00  0.00    -0.491 OA
ATOM     51  H   UNL     1       9.110  -5.226  12.318  0.00  0.00    +0.294 HD
ENDBRANCH  46  50
BRANCH  35  52
ATOM     52  S   UNL     1      11.549  -4.428   9.227  0.00  0.00    -0.140 S 
ATOM     53  H   UNL     1      10.667  -4.871  10.138  0.00  0.00    +0.107 HD
ENDBRANCH  35  52
BRANCH  34  54
ATOM     54  S   UNL     1      13.469  -2.140   7.843  0.00  0.00    -0.142 S 
ATOM     55  H   UNL     1      13.005  -3.362   7.529  0.00  0.00    +0.107 HD
ENDBRANCH  34  54
ENDBRANCH  32  33
ENDBRANCH  31  32
ENDBRANCH   1  31
TORSDOF 16
