REMARK  Name = 
REMARK  11 active torsions:
REMARK  status: ('A' for Active; 'I' for Inactive)
REMARK    1  A    between atoms: C_1  and  C_2
REMARK    2  A    between atoms: C_5  and  C_6
REMARK    3  A    between atoms: C_6  and  O_7
REMARK    4  A    between atoms: O_7  and  P_8
REMARK    5  A    between atoms: P_8  and  O_9
REMARK    6  A    between atoms: P_8  and  O_10
REMARK    7  A    between atoms: C_12  and  C_13
REMARK    8  A    between atoms: C_13  and  N_14
REMARK    9  A    between atoms: N_14  and  C_15
REMARK   10  A    between atoms: C_19  and  O_20
REMARK   11  A    between atoms: C_21  and  O_22
REMARK                            x       y       z     vdW  Elec       q    Type
REMARK                         _______ _______ _______ _____ _____    ______ ____
ROOT
ATOM      1  C   UNL     1       0.850   0.064   0.091  0.00  0.00    +0.069 C 
ATOM      2  C   UNL     1       2.346  -0.036   0.056  0.00  0.00    +0.080 A 
ATOM      3  C   UNL     1       2.984  -1.278   0.069  0.00  0.00    +0.143 A 
ATOM      4  C   UNL     1       4.388  -1.352   0.091  0.00  0.00    +0.020 A 
ATOM      5  C   UNL     1       5.112  -0.143   0.038  0.00  0.00    +0.005 A 
ATOM      6  C   UNL     1       4.377   1.045  -0.021  0.00  0.00    +0.117 A 
ATOM      7  N   UNL     1       3.031   1.128  -0.000  0.00  0.00    -0.256 NA
ENDROOT
BRANCH   3   8
ATOM      8  O   UNL     1       2.202  -2.401   0.062  0.00  0.00    -0.505 OA
ATOM      9  H   UNL     1       2.646  -3.098  -0.449  0.00  0.00    +0.292 HD
ENDBRANCH   3   8
BRANCH   4  10
ATOM     10  C   UNL     1       5.083  -2.689   0.178  0.00  0.00    +0.141 C 
BRANCH  10  11
ATOM     11  N   UNL     1       5.393  -3.173  -1.159  0.00  0.00    -0.333 N 
ATOM     12  H   UNL     1       4.685  -2.953  -1.861  0.00  0.00    +0.147 HD
BRANCH  11  13
ATOM     13  C   UNL     1       6.075  -4.337  -1.331  0.00  0.00    +0.130 A 
ATOM     14  C   UNL     1       5.959  -5.259  -2.381  0.00  0.00    +0.273 A 
ATOM     15  N   UNL     1       6.762  -6.311  -2.262  0.00  0.00    -0.038 NA
ATOM     16  O   UNL     1       7.459  -6.078  -1.077  0.00  0.00    -0.358 OA
ATOM     17  C   UNL     1       7.041  -4.900  -0.532  0.00  0.00    +0.257 A 
BRANCH  14  18
ATOM     18  O   UNL     1       5.148  -5.239  -3.437  0.00  0.00    -0.489 OA
ATOM     19  H   UNL     1       5.345  -6.054  -3.931  0.00  0.00    +0.294 HD
ENDBRANCH  14  18
ENDBRANCH  11  13
ENDBRANCH  10  11
ENDBRANCH   4  10
BRANCH   5  20
ATOM     20  C   UNL     1       6.616  -0.051   0.001  0.00  0.00    +0.209 C 
BRANCH  20  21
ATOM     21  O   UNL     1       7.005   0.969   0.902  0.00  0.00    -0.282 OA
BRANCH  21  22
ATOM     22  P   UNL     1       8.439   1.631   0.697  0.00  0.00    +0.473 P 
ATOM     23  O   UNL     1       9.597   0.706   0.825  0.00  0.00    -0.228 OA
BRANCH  22  24
ATOM     24  O   UNL     1       8.407   2.855   1.716  0.00  0.00    -0.303 OA
ATOM     25  H   UNL     1       7.511   3.233   1.779  0.00  0.00    +0.222 HD
ENDBRANCH  22  24
BRANCH  22  26
ATOM     26  O   UNL     1       8.352   2.339  -0.730  0.00  0.00    -0.303 OA
ATOM     27  H   UNL     1       9.146   2.123  -1.255  0.00  0.00    +0.222 HD
ENDBRANCH  22  26
ENDBRANCH  21  22
ENDBRANCH  20  21
ENDBRANCH   5  20
TORSDOF 10
