REMARK  Name = 
REMARK  5 active torsions:
REMARK  status: ('A' for Active; 'I' for Inactive)
REMARK    1  A    between atoms: O_1  and  C_2
REMARK    2  A    between atoms: C_2  and  C_3
REMARK    3  A    between atoms: C_9  and  O_11
REMARK    4  A    between atoms: C_12  and  O_14
REMARK    5  A    between atoms: C_15  and  O_17
REMARK                            x       y       z     vdW  Elec       q    Type
REMARK                         _______ _______ _______ _____ _____    ______ ____
ROOT
ATOM      1  C   UNL     1       2.862  -0.807  -1.203  0.00  0.00    +0.264 C 
ATOM      2  C   UNL     1       1.696  -1.432  -2.003  0.00  0.00    +0.212 C 
ATOM      3  C   UNL     1       1.042  -2.585  -1.228  0.00  0.00    +0.182 C 
ATOM      4  C   UNL     1       2.089  -3.572  -0.712  0.00  0.00    +0.206 C 
ATOM      5  C   UNL     1       3.213  -2.832   0.022  0.00  0.00    +0.331 C 
ATOM      6  F   UNL     1       4.218  -3.722   0.258  0.00  0.00    -0.212 F 
ATOM      7  O   UNL     1       3.789  -1.796  -0.751  0.00  0.00    -0.304 OA
ATOM      8  F   UNL     1       3.577  -0.023  -2.067  0.00  0.00    -0.205 F 
ENDROOT
BRANCH   2   9
ATOM      9  O   UNL     1       0.729  -0.430  -2.369  0.00  0.00    -0.383 OA
ATOM     10  H   UNL     1      -0.032  -0.502  -1.768  0.00  0.00    +0.210 HD
ENDBRANCH   2   9
BRANCH   3  11
ATOM     11  O   UNL     1       0.103  -3.279  -2.064  0.00  0.00    -0.386 OA
ATOM     12  H   UNL     1      -0.066  -4.139  -1.627  0.00  0.00    +0.210 HD
ENDBRANCH   3  11
BRANCH   4  13
ATOM     13  O   UNL     1       1.408  -4.541   0.108  0.00  0.00    -0.384 OA
ATOM     14  H   UNL     1       1.343  -4.194   1.016  0.00  0.00    +0.210 HD
ENDBRANCH   4  13
BRANCH   1  15
ATOM     15  C   UNL     1       2.408   0.125  -0.058  0.00  0.00    +0.229 C 
BRANCH  15  16
ATOM     16  O   UNL     1       1.540  -0.514   0.882  0.00  0.00    -0.389 OA
ATOM     17  H   UNL     1       1.340   0.152   1.568  0.00  0.00    +0.210 HD
ENDBRANCH  15  16
ENDBRANCH   1  15
TORSDOF 5
