REMARK  Name = 
REMARK  11 active torsions:
REMARK  status: ('A' for Active; 'I' for Inactive)
REMARK    1  A    between atoms: N_1  and  C_2
REMARK    2  A    between atoms: C_2  and  C_4
REMARK    3  A    between atoms: C_2  and  C_16
REMARK    4  A    between atoms: C_4  and  C_5
REMARK    5  A    between atoms: C_5  and  C_6
REMARK    6  A    between atoms: N_8  and  C_9
REMARK    7  A    between atoms: C_9  and  C_11
REMARK    8  A    between atoms: C_9  and  C_13
REMARK    9  A    between atoms: C_11  and  S_12
REMARK   10  A    between atoms: C_13  and  O_14
REMARK   11  A    between atoms: C_16  and  O_17
REMARK                            x       y       z     vdW  Elec       q    Type
REMARK                         _______ _______ _______ _____ _____    ______ ____
ROOT
ATOM      1  C   UNK     1       1.719  -0.235  -6.058  0.00  0.00    +0.214 C 
ATOM      2  N   UNK     1       2.482   0.893  -6.181  0.00  0.00    -0.302 N 
ATOM      3  H   UNK     1       2.677   1.471  -5.364  0.00  0.00    +0.150 HD
ATOM      4  O   UNK     1       1.465  -0.975  -7.002  0.00  0.00    -0.276 OA
ENDROOT
BRANCH   1   5
ATOM      5  C   UNK     1       1.221  -0.506  -4.653  0.00  0.00    +0.098 C 
BRANCH   5   6
ATOM      6  C   UNK     1       0.203   0.544  -4.211  0.00  0.00    +0.039 C 
BRANCH   6   7
ATOM      7  C   UNK     1      -0.371   0.289  -2.813  0.00  0.00    +0.161 C 
BRANCH   7   8
ATOM      8  N   UNK     1      -1.125  -0.997  -2.737  0.00  0.00    -0.318 NA
ATOM      9  H   UNK     1      -1.541  -1.192  -3.655  0.00  0.00    +0.119 HD
ATOM     10  H   UNK     1      -0.448  -1.755  -2.604  0.00  0.00    +0.119 HD
ENDBRANCH   7   8
BRANCH   7  11
ATOM     11  C   UNK     1      -1.327   1.434  -2.424  0.00  0.00    +0.322 C 
ATOM     12  O   UNK     1      -1.068   2.625  -2.498  0.00  0.00    -0.249 OA
BRANCH  11  13
ATOM     13  O   UNK     1      -2.516   0.952  -1.975  0.00  0.00    -0.480 OA
ATOM     14  H   UNK     1      -2.430  -0.034  -2.008  0.00  0.00    +0.295 HD
ENDBRANCH  11  13
ENDBRANCH   7  11
ENDBRANCH   6   7
ENDBRANCH   5   6
ENDBRANCH   1   5
BRANCH   2  15
ATOM     15  C   UNK     1       3.056   1.356  -7.452  0.00  0.00    +0.191 C 
BRANCH  15  16
ATOM     16  C   UNK     1       3.607   2.751  -7.148  0.00  0.00    +0.326 C 
ATOM     17  O   UNK     1       3.954   3.103  -6.025  0.00  0.00    -0.249 OA
BRANCH  16  18
ATOM     18  O   UNK     1       3.659   3.592  -8.207  0.00  0.00    -0.479 OA
ATOM     19  H   UNK     1       3.429   3.182  -9.063  0.00  0.00    +0.295 HD
ENDBRANCH  16  18
ENDBRANCH  15  16
BRANCH  15  20
ATOM     20  C   UNK     1       4.152   0.415  -7.964  0.00  0.00    +0.099 C 
BRANCH  20  21
ATOM     21  S   UNK     1       4.849   0.932  -9.571  0.00  0.00    -0.176 S 
ATOM     22  H   UNK     1       3.759   0.692 -10.314  0.00  0.00    +0.102 HD
ENDBRANCH  20  21
ENDBRANCH  15  20
ENDBRANCH   2  15
TORSDOF 11
