REMARK  Name = 
REMARK  5 active torsions:
REMARK  status: ('A' for Active; 'I' for Inactive)
REMARK    1  A    between atoms: C_2  and  C_25
REMARK    2  A    between atoms: C_7  and  C_9
REMARK    3  A    between atoms: C_15  and  O_17
REMARK    4  A    between atoms: O_17  and  C_18
REMARK    5  A    between atoms: C_18  and  C_19
REMARK                            x       y       z     vdW  Elec       q    Type
REMARK                         _______ _______ _______ _____ _____    ______ ____
ROOT
ATOM      1  C   UNL     1       0.911  -2.600  -0.346  0.00  0.00    +0.165 C 
ATOM      2  N   UNL     1      -0.142  -1.659   0.026  0.00  0.00    -0.256 N 
ATOM      3  C   UNL     1       0.029  -0.373   0.474  0.00  0.00    +0.404 C 
ATOM      4  O   UNL     1      -0.898   0.308   0.900  0.00  0.00    -0.226 OA
ATOM      5  C   UNL     1      -1.440  -2.298   0.101  0.00  0.00    +0.112 C 
ATOM      6  C   UNL     1      -1.193  -3.750  -0.283  0.00  0.00    +0.021 C 
ATOM      7  C   UNL     1       0.292  -3.952   0.021  0.00  0.00    +0.033 C 
ENDROOT
BRANCH   1  10
ATOM      8  C   UNL     1       2.950  -3.126  -3.622  0.00  0.00    +0.139 C 
ATOM      9  N   UNL     1       2.501  -3.098  -2.225  0.00  0.00    -0.290 N 
ATOM     10  C   UNL     1       1.262  -2.591  -1.863  0.00  0.00    +0.237 C 
ATOM     11  O   UNL     1       0.446  -2.260  -2.725  0.00  0.00    -0.274 OA
ATOM     12  C   UNL     1       3.611  -3.344  -1.316  0.00  0.00    +0.108 C 
ATOM     13  C   UNL     1       4.781  -3.720  -2.211  0.00  0.00    +0.021 C 
ATOM     14  C   UNL     1       4.468  -3.006  -3.521  0.00  0.00    +0.031 C 
BRANCH   8  15
ATOM     15  C   UNL     1       2.518  -4.427  -4.295  0.00  0.00    +0.245 C 
ATOM     16  O   UNL     1       3.102  -4.939  -5.251  0.00  0.00    -0.299 OA
ENDBRANCH   8  15
ENDBRANCH   1  10
BRANCH   3  17
ATOM     17  O   UNL     1       1.321   0.046   0.412  0.00  0.00    -0.445 OA
BRANCH  17  18
ATOM     18  C   UNL     1       1.531   1.420   0.772  0.00  0.00    +0.269 C 
BRANCH  18  19
ATOM     19  C   UNL     1       2.653   1.540   1.775  0.00  0.00    -0.010 A 
ATOM     20  C   UNL     1       2.385   1.486   3.151  0.00  0.00    +0.007 A 
ATOM     21  C   UNL     1       3.414   1.646   4.082  0.00  0.00    +0.000 A 
ATOM     22  C   UNL     1       4.722   1.852   3.647  0.00  0.00    +0.000 A 
ATOM     23  C   UNL     1       5.002   1.895   2.283  0.00  0.00    +0.000 A 
ATOM     24  C   UNL     1       3.974   1.736   1.351  0.00  0.00    +0.007 A 
ENDBRANCH  18  19
ENDBRANCH  17  18
ENDBRANCH   3  17
TORSDOF 5
