REMARK  Name = 
REMARK  12 active torsions:
REMARK  status: ('A' for Active; 'I' for Inactive)
REMARK    1  A    between atoms: C_1  and  C_2
REMARK    2  A    between atoms: N_4  and  C_5
REMARK    3  A    between atoms: C_7  and  O_9
REMARK    4  A    between atoms: C_11  and  O_12
REMARK    5  A    between atoms: C_11  and  C_24
REMARK    6  A    between atoms: C_14  and  C_16
REMARK    7  A    between atoms: C_16  and  O_18
REMARK    8  A    between atoms: C_16  and  C_19
REMARK    9  A    between atoms: C_19  and  O_21
REMARK   10  A    between atoms: C_19  and  C_22
REMARK   11  A    between atoms: C_22  and  O_23
REMARK   12  A    between atoms: C_24  and  O_25
REMARK                            x       y       z     vdW  Elec       q    Type
REMARK                         _______ _______ _______ _____ _____    ______ ____
ROOT
ATOM      1  C   UNL     1       4.621  -0.708  -1.132  0.00  0.00    +0.133 C 
ATOM      2  C   UNL     1       5.199   0.330  -2.120  0.00  0.00    +0.176 C 
ATOM      3  O   UNL     1       4.873  -0.028  -3.488  0.00  0.00    -0.332 OA
ATOM      4  C   UNL     1       5.222  -1.349  -3.902  0.00  0.00    +0.270 C 
ATOM      5  C   UNL     1       4.714  -2.438  -2.953  0.00  0.00    +0.110 C 
ATOM      6  C   UNL     1       5.087  -2.125  -1.511  0.00  0.00    +0.143 C 
ENDROOT
BRANCH   1   9
ATOM      7  C   UNL     1       1.016  -0.824   0.059  0.00  0.00    +0.109 C 
ATOM      8  C   UNL     1       2.507  -0.993   0.117  0.00  0.00    +0.210 C 
ATOM      9  N   UNL     1       3.163  -0.632  -1.045  0.00  0.00    -0.308 N 
ATOM     10  H   UNL     1       2.619  -0.393  -1.867  0.00  0.00    +0.149 HD
ATOM     11  O   UNL     1       3.091  -1.395   1.117  0.00  0.00    -0.276 OA
ENDBRANCH   1   9
BRANCH   4  12
ATOM     12  O   UNL     1       6.640  -1.436  -4.108  0.00  0.00    -0.356 OA
ATOM     13  H   UNL     1       6.984  -2.007  -3.386  0.00  0.00    +0.213 HD
ENDBRANCH   4  12
BRANCH   4  14
ATOM     14  C   UNL     1       4.610  -1.592  -5.315  0.00  0.00    +0.365 C 
ATOM     15  O   UNL     1       3.473  -1.979  -5.546  0.00  0.00    -0.245 OA
BRANCH  14  16
ATOM     16  O   UNL     1       5.503  -1.302  -6.305  0.00  0.00    -0.477 OA
ATOM     17  H   UNL     1       6.355  -1.069  -5.864  0.00  0.00    +0.295 HD
ENDBRANCH  14  16
ENDBRANCH   4  14
BRANCH   6  18
ATOM     18  O   UNL     1       6.509  -2.261  -1.399  0.00  0.00    -0.390 OA
ATOM     19  H   UNL     1       6.759  -1.897  -0.517  0.00  0.00    +0.210 HD
ENDBRANCH   6  18
BRANCH   2  20
ATOM     20  C   UNL     1       6.718   0.667  -1.994  0.00  0.00    +0.176 C 
BRANCH  20  21
ATOM     21  O   UNL     1       6.998   1.778  -2.864  0.00  0.00    -0.387 OA
ATOM     22  H   UNL     1       6.665   1.519  -3.746  0.00  0.00    +0.210 HD
ENDBRANCH  20  21
BRANCH  20  23
ATOM     23  C   UNL     1       7.211   1.003  -0.576  0.00  0.00    +0.171 C 
BRANCH  23  24
ATOM     24  O   UNL     1       7.004  -0.106   0.311  0.00  0.00    -0.387 OA
ATOM     25  H   UNL     1       7.221   0.226   1.206  0.00  0.00    +0.210 HD
ENDBRANCH  23  24
BRANCH  23  26
ATOM     26  C   UNL     1       8.715   1.308  -0.562  0.00  0.00    +0.189 C 
BRANCH  26  27
ATOM     27  O   UNL     1       9.120   1.600   0.779  0.00  0.00    -0.392 OA
ATOM     28  H   UNL     1       8.789   2.490   0.992  0.00  0.00    +0.210 HD
ENDBRANCH  26  27
ENDBRANCH  23  26
ENDBRANCH  20  23
ENDBRANCH   2  20
TORSDOF 11
