REMARK  Name = 
REMARK  10 active torsions:
REMARK  status: ('A' for Active; 'I' for Inactive)
REMARK    1  A    between atoms: C_2  and  C_3
REMARK    2  A    between atoms: C_3  and  O_4
REMARK    3  A    between atoms: C_6  and  O_8
REMARK    4  A    between atoms: O_8  and  C_9
REMARK    5  A    between atoms: C_13  and  C_15
REMARK    6  A    between atoms: N_17  and  C_18
REMARK    7  A    between atoms: C_18  and  C_19
REMARK    8  A    between atoms: C_25  and  O_27
REMARK    9  A    between atoms: C_28  and  O_30
REMARK   10  A    between atoms: C_31  and  O_33
REMARK                            x       y       z     vdW  Elec       q    Type
REMARK                         _______ _______ _______ _____ _____    ______ ____
ROOT
ATOM      1  C   UNL     1       2.266  -3.527  -3.341  0.00  0.00    +0.125 A 
ATOM      2  C   UNL     1       2.086  -2.699  -4.452  0.00  0.00    +0.058 A 
ATOM      3  C   UNL     1       2.192  -3.229  -5.747  0.00  0.00    +0.040 A 
ATOM      4  C   UNL     1       2.379  -4.603  -5.929  0.00  0.00    +0.013 A 
ATOM      5  C   UNL     1       2.524  -5.435  -4.822  0.00  0.00    +0.004 A 
ATOM      6  C   UNL     1       2.494  -4.892  -3.536  0.00  0.00    +0.046 A 
ENDROOT
BRANCH   3   7
ATOM      7  C   UNL     1       2.178  -2.358  -6.954  0.00  0.00    +0.244 C 
ATOM      8  N   UNL     1       2.709  -1.095  -6.792  0.00  0.00    -0.307 N 
ATOM      9  H   UNL     1       3.107  -0.818  -5.908  0.00  0.00    +0.149 HD
ATOM     10  O   UNL     1       1.774  -2.793  -8.027  0.00  0.00    -0.270 OA
BRANCH   8  11
ATOM     11  C   UNL     1       2.874  -0.172  -7.894  0.00  0.00    +0.139 C 
BRANCH  11  12
ATOM     12  C   UNL     1       2.074   1.086  -7.677  0.00  0.00    -0.030 A 
ATOM     13  C   UNL     1       0.678   1.023  -7.569  0.00  0.00    +0.005 A 
ATOM     14  C   UNL     1      -0.074   2.183  -7.387  0.00  0.00    +0.000 A 
ATOM     15  C   UNL     1       0.559   3.422  -7.318  0.00  0.00    +0.000 A 
ATOM     16  C   UNL     1       1.946   3.501  -7.433  0.00  0.00    +0.000 A 
ATOM     17  C   UNL     1       2.702   2.339  -7.612  0.00  0.00    +0.005 A 
ENDBRANCH  11  12
ENDBRANCH   8  11
ENDBRANCH   3   7
BRANCH   1  18
ATOM     18  O   UNL     1       2.323  -3.117  -2.034  0.00  0.00    -0.461 OA
BRANCH  18  23
ATOM     19  C   UNL     1      -0.635  -1.116  -1.282  0.00  0.00    +0.179 C 
ATOM     20  C   UNL     1      -0.195  -0.431   0.026  0.00  0.00    +0.177 C 
ATOM     21  C   UNL     1       1.324  -0.196   0.115  0.00  0.00    +0.180 C 
ATOM     22  C   UNL     1       2.107  -1.442  -0.318  0.00  0.00    +0.214 C 
ATOM     23  C   UNL     1       1.588  -1.937  -1.688  0.00  0.00    +0.339 C 
ATOM     24  O   UNL     1       0.197  -2.238  -1.608  0.00  0.00    -0.331 OA
BRANCH  20  25
ATOM     25  O   UNL     1      -0.902   0.797   0.224  0.00  0.00    -0.386 OA
ATOM     26  H   UNL     1      -0.235   1.513   0.190  0.00  0.00    +0.210 HD
ENDBRANCH  20  25
BRANCH  21  27
ATOM     27  O   UNL     1       1.664   0.995  -0.614  0.00  0.00    -0.386 OA
ATOM     28  H   UNL     1       1.929   0.788  -1.524  0.00  0.00    +0.210 HD
ENDBRANCH  21  27
BRANCH  22  29
ATOM     29  O   UNL     1       1.951  -2.455   0.689  0.00  0.00    -0.383 OA
ATOM     30  H   UNL     1       2.177  -3.306   0.266  0.00  0.00    +0.210 HD
ENDBRANCH  22  29
BRANCH  19  31
ATOM     31  C   UNL     1      -0.802  -0.173  -2.487  0.00  0.00    +0.190 C 
BRANCH  31  32
ATOM     32  O   UNL     1      -1.216  -0.896  -3.647  0.00  0.00    -0.392 OA
ATOM     33  H   UNL     1      -1.887  -1.548  -3.370  0.00  0.00    +0.210 HD
ENDBRANCH  31  32
ENDBRANCH  19  31
ENDBRANCH  18  23
ENDBRANCH   1  18
TORSDOF 10
