REMARK  Name = 
REMARK  5 active torsions:
REMARK  status: ('A' for Active; 'I' for Inactive)
REMARK    1  A    between atoms: O_1  and  C_2
REMARK    2  A    between atoms: C_2  and  C_3
REMARK    3  A    between atoms: C_7  and  O_9
REMARK    4  A    between atoms: C_10  and  O_12
REMARK    5  A    between atoms: C_13  and  O_15
REMARK                            x       y       z     vdW  Elec       q    Type
REMARK                         _______ _______ _______ _____ _____    ______ ____
ROOT
ATOM      1  C   UNK     1       2.761  -1.665  -0.321  0.00  0.00    +0.111 C 
ATOM      2  C   UNK     1       2.559  -3.140   0.091  0.00  0.00    +0.165 C 
ATOM      3  C   UNK     1       2.293  -3.232   1.603  0.00  0.00    +0.174 C 
ATOM      4  C   UNK     1       3.389  -2.515   2.400  0.00  0.00    +0.159 C 
ATOM      5  C   UNK     1       3.573  -1.076   1.902  0.00  0.00    +0.115 C 
ATOM      6  N   UNK     1       3.828  -0.999   0.463  0.00  0.00    -0.306 NA
ATOM      7  H   UNK     1       3.867  -0.015   0.191  0.00  0.00    +0.122 HD
ENDROOT
BRANCH   2   8
ATOM      8  O   UNK     1       1.467  -3.696  -0.656  0.00  0.00    -0.388 OA
ATOM      9  H   UNK     1       0.639  -3.507  -0.183  0.00  0.00    +0.210 HD
ENDBRANCH   2   8
BRANCH   3  10
ATOM     10  O   UNK     1       2.207  -4.600   2.026  0.00  0.00    -0.387 OA
ATOM     11  H   UNK     1       2.400  -4.605   2.989  0.00  0.00    +0.210 HD
ENDBRANCH   3  10
BRANCH   4  12
ATOM     12  O   UNK     1       3.032  -2.535   3.790  0.00  0.00    -0.388 OA
ATOM     13  H   UNK     1       2.230  -1.996   3.910  0.00  0.00    +0.210 HD
ENDBRANCH   4  12
BRANCH   1  14
ATOM     14  C   UNK     1       3.065  -1.559  -1.829  0.00  0.00    +0.177 C 
BRANCH  14  15
ATOM     15  O   UNK     1       3.093  -0.185  -2.223  0.00  0.00    -0.393 OA
ATOM     16  H   UNK     1       3.954   0.163  -1.933  0.00  0.00    +0.209 HD
ENDBRANCH  14  15
ENDBRANCH   1  14
TORSDOF 5
