REMARK  Name = 
REMARK  5 active torsions:
REMARK  status: ('A' for Active; 'I' for Inactive)
REMARK    1  A    between atoms: O_1  and  C_2
REMARK    2  A    between atoms: C_2  and  C_4
REMARK    3  A    between atoms: C_4  and  C_5
REMARK    4  A    between atoms: CA_9  and  C_12
REMARK    5  A    between atoms: C_12  and  O_13
REMARK                            x       y       z     vdW  Elec       q    Type
REMARK                         _______ _______ _______ _____ _____    ______ ____
ROOT
ATOM      1  C   UNL     1       4.621   0.789   0.570  0.00  0.00    +0.065 C 
ATOM      2  N   UNL     1       4.931  -0.381   1.425  0.00  0.00    -0.301 NA
ATOM      3  H   UNL     1       4.880  -1.223   0.836  0.00  0.00    +0.123 HD
ATOM      4  CA  UNL     1       6.372  -0.212   1.836  0.00  0.00    +0.164 C 
ATOM      5  C   UNL     1       6.742   1.237   1.546  0.00  0.00    +0.031 C 
ATOM      6  C   UNL     1       5.419   1.907   1.224  0.00  0.00    +0.021 C 
ENDROOT
BRANCH   4   7
ATOM      7  C   UNL     1       6.500  -0.537   3.331  0.00  0.00    +0.322 C 
ATOM      8  OXT UNL     1       7.536  -0.493   3.975  0.00  0.00    -0.249 OA
BRANCH   7   9
ATOM      9  O   UNL     1       5.301  -0.877   3.869  0.00  0.00    -0.480 OA
ATOM     10  H   UNL     1       4.657  -0.804   3.125  0.00  0.00    +0.295 HD
ENDBRANCH   7   9
ENDBRANCH   4   7
BRANCH   1  11
ATOM     11  C   UNL     1       3.132   1.099   0.519  0.00  0.00    +0.139 C 
BRANCH  11  12
ATOM     12  C   UNL     1       2.387  -0.000  -0.188  0.00  0.00    +0.306 C 
ATOM     13  O   UNL     1       2.215  -0.040  -1.396  0.00  0.00    -0.251 OA
BRANCH  12  14
ATOM     14  O   UNL     1       1.974  -0.986   0.640  0.00  0.00    -0.481 OA
ATOM     15  H   UNL     1       2.225  -0.839   1.573  0.00  0.00    +0.295 HD
ENDBRANCH  12  14
ENDBRANCH  11  12
ENDBRANCH   1  11
TORSDOF 5
