REMARK  Name = 
REMARK  15 active torsions:
REMARK  status: ('A' for Active; 'I' for Inactive)
REMARK    1  A    between atoms: N_1  and  C_2
REMARK    2  A    between atoms: C_2  and  C_4
REMARK    3  A    between atoms: C_2  and  C_24
REMARK    4  A    between atoms: C_4  and  C_5
REMARK    5  A    between atoms: C_5  and  C_6
REMARK    6  A    between atoms: C_6  and  C_7
REMARK    7  A    between atoms: N_9  and  C_10
REMARK    8  A    between atoms: C_10  and  C_12
REMARK    9  A    between atoms: C_10  and  C_14
REMARK   10  A    between atoms: C_12  and  S_13
REMARK   11  A    between atoms: N_16  and  C_17
REMARK   12  A    between atoms: C_17  and  C_19
REMARK   13  A    between atoms: C_17  and  C_21
REMARK   14  A    between atoms: C_21  and  O_22
REMARK   15  A    between atoms: C_24  and  O_25
REMARK                            x       y       z     vdW  Elec       q    Type
REMARK                         _______ _______ _______ _____ _____    ______ ____
ROOT
ATOM      1  C   UNK A   1       2.465  15.091  -1.107  0.00  0.00    +0.214 C 
ATOM      2  N   UNK A   1       3.483  14.172  -1.194  0.00  0.00    -0.303 N 
ATOM      3  H   UNK A   1       3.944  14.041  -2.085  0.00  0.00    +0.149 HD
ATOM      4  O   UNK A   1       1.902  15.353  -0.051  0.00  0.00    -0.276 OA
ENDROOT
BRANCH   1   5
ATOM      5  C   UNK A   1       2.092  15.694  -2.449  0.00  0.00    +0.096 C 
BRANCH   5   6
ATOM      6  C   UNK A   1       1.011  16.769  -2.334  0.00  0.00    +0.011 C 
BRANCH   6   7
ATOM      7  C   UNK A   1       0.588  17.274  -3.717  0.00  0.00    +0.030 C 
BRANCH   7   8
ATOM      8  C   UNK A   1      -0.507  18.348  -3.675  0.00  0.00    +0.161 C 
BRANCH   8   9
ATOM      9  N   UNK A   1      -1.763  17.847  -3.040  0.00  0.00    -0.318 NA
ATOM     10  H   UNK A   1      -1.831  16.836  -3.204  0.00  0.00    +0.119 HD
ATOM     11  H   UNK A   1      -1.648  17.917  -2.024  0.00  0.00    +0.119 HD
ENDBRANCH   8   9
BRANCH   8  12
ATOM     12  C   UNK A   1      -0.842  18.804  -5.111  0.00  0.00    +0.322 C 
ATOM     13  O   UNK A   1      -0.030  19.171  -5.945  0.00  0.00    -0.249 OA
BRANCH  12  14
ATOM     14  O   UNK A   1      -2.180  18.747  -5.343  0.00  0.00    -0.480 OA
ATOM     15  H   UNK A   1      -2.580  18.444  -4.488  0.00  0.00    +0.295 HD
ENDBRANCH  12  14
ENDBRANCH   8  12
ENDBRANCH   7   8
ENDBRANCH   6   7
ENDBRANCH   5   6
ENDBRANCH   1   5
BRANCH   2  16
ATOM     16  C   UNK A   1       4.095  13.563  -0.006  0.00  0.00    +0.168 C 
BRANCH  16  17
ATOM     17  C   UNK A   1       3.324  12.304   0.466  0.00  0.00    +0.235 C 
ATOM     18  N   UNK A   2       1.968  12.454   0.655  0.00  0.00    -0.298 N 
ATOM     19  H   UNK A   2       1.574  13.398   0.660  0.00  0.00    +0.150 HD
ATOM     20  O   UNK A   1       3.900  11.254   0.754  0.00  0.00    -0.274 OA
BRANCH  18  21
ATOM     21  C   UNK A   2       1.170  11.383   1.235  0.00  0.00    +0.205 C 
BRANCH  21  22
ATOM     22  C   UNK A   2      -0.200  11.879   1.748  0.00  0.00    +0.329 C 
ATOM     23  O   UNK A   2      -0.603  13.030   1.638  0.00  0.00    -0.249 OA
BRANCH  22  24
ATOM     24  O   UNK A   2      -0.941  10.924   2.370  0.00  0.00    -0.479 OA
ATOM     25  H   UNK A   2      -0.522  10.042   2.380  0.00  0.00    +0.295 HD
ENDBRANCH  22  24
ENDBRANCH  21  22
BRANCH  21  26
ATOM     26  C   UNK A   2       0.968  10.274   0.226  0.00  0.00    -0.001 C 
ATOM     27  C   UNK A   2       0.797  10.416  -1.098  0.00  0.00    +0.006 C 
ENDBRANCH  21  26
ENDBRANCH  18  21
ENDBRANCH  16  17
BRANCH  16  28
ATOM     28  C   UNK A   1       5.562  13.165  -0.257  0.00  0.00    +0.097 C 
BRANCH  28  29
ATOM     29  S   UNK A   1       6.610  14.563  -0.789  0.00  0.00    -0.176 S 
ATOM     30  H   UNK A   1       6.377  14.451  -2.105  0.00  0.00    +0.102 HD
ENDBRANCH  28  29
ENDBRANCH  16  28
ENDBRANCH   2  16
TORSDOF 15
