REMARK  Name = 
REMARK  16 active torsions:
REMARK  status: ('A' for Active; 'I' for Inactive)
REMARK    1  A    between atoms: C_1  and  C_2
REMARK    2  A    between atoms: C_2  and  C_4
REMARK    3  A    between atoms: C_8  and  C_9
REMARK    4  A    between atoms: C_10  and  C_11
REMARK    5  A    between atoms: C_11  and  C_12
REMARK    6  A    between atoms: C_12  and  C_13
REMARK    7  A    between atoms: C_13  and  O_14
REMARK    8  A    between atoms: C_28  and  C_29
REMARK    9  A    between atoms: C_30  and  C_31
REMARK   10  A    between atoms: C_31  and  O_32
REMARK   11  A    between atoms: C_34  and  C_35
REMARK   12  A    between atoms: C_36  and  C_37
REMARK   13  A    between atoms: C_38  and  C_39
REMARK   14  A    between atoms: C_39  and  C_40
REMARK   15  A    between atoms: C_40  and  C_41
REMARK   16  A    between atoms: C_41  and  O_42
REMARK                            x       y       z     vdW  Elec       q    Type
REMARK                         _______ _______ _______ _____ _____    ______ ____
ROOT
ATOM      1  C   UNL     1       3.303  -0.696  -0.902  0.00  0.00    +0.000 A 
ATOM      2  C   UNL     1       3.412  -2.110  -0.978  0.00  0.00    +0.000 A 
ATOM      3  C   UNL     1       2.831  -3.112  -0.048  0.00  0.00    +0.000 C 
ATOM      4  C   UNL     1       4.266  -2.369  -2.043  0.00  0.00    +0.000 A 
ATOM      5  N   UNL     1       4.495  -1.224  -2.601  0.00  0.00    +0.000 N 
ATOM      6 FE   UNL     1       4.109  -1.109  -4.403  0.00  0.00    +0.000 Fe
ATOM      7  N   UNL     1       5.098  -2.679  -4.713  0.00  0.00    +1.000 N 
ATOM      8  C   UNL     1       5.694  -3.445  -3.742  0.00  0.00    +0.000 C 
ATOM      9  C   UNL     1       6.646  -4.275  -4.450  0.00  0.00    +0.000 C 
ATOM     10  C   UNL     1       6.227  -4.271  -5.730  0.00  0.00    +0.000 C 
ATOM     11  C   UNL     1       6.788  -4.979  -6.905  0.00  0.00    +0.000 C 
ATOM     12  C   UNL     1       5.126  -3.327  -5.796  0.00  0.00    +0.000 C 
ATOM     13  C   UNL     1       3.966  -3.206  -6.715  0.00  0.00    +0.000 C 
ATOM     14  C   UNL     1       3.228  -2.115  -6.735  0.00  0.00    +0.000 A 
ATOM     15  C   UNL     1       2.040  -1.787  -7.342  0.00  0.00    +0.000 A 
ATOM     16  C   UNL     1       1.010  -2.771  -7.815  0.00  0.00    +0.000 C 
ATOM     17  C   UNL     1       2.013  -0.384  -7.349  0.00  0.00    +0.000 A 
ATOM     18  C   UNL     1       3.159   0.009  -6.681  0.00  0.00    +0.000 A 
ATOM     19  C   UNL     1       3.745   1.188  -6.532  0.00  0.00    +0.000 C 
ATOM     20  C   UNL     1       4.845   1.368  -5.549  0.00  0.00    +0.000 C 
ATOM     21  C   UNL     1       5.837   2.423  -5.329  0.00  0.00    +0.000 C 
ATOM     22  C   UNL     1       6.200   2.325  -4.037  0.00  0.00    +0.000 C 
ATOM     23  C   UNL     1       7.297   3.024  -3.329  0.00  0.00    +0.000 C 
ATOM     24  C   UNL     1       5.377   1.273  -3.480  0.00  0.00    +0.000 C 
ATOM     25  C   UNL     1       4.821   1.064  -2.250  0.00  0.00    +0.000 C 
ATOM     26  N   UNL     1       3.726  -1.053  -6.197  0.00  0.00    +0.000 N 
ATOM     27  N   UNL     1       4.910   0.576  -4.560  0.00  0.00    +1.000 N 
ATOM     28  C   UNL     1       5.144  -3.476  -2.498  0.00  0.00    +0.000 C 
ATOM     29  C   UNL     1       4.123  -0.201  -1.913  0.00  0.00    +0.000 A 
ENDROOT
BRANCH   1  31
ATOM     30  C   UNL     1       2.666   1.586   0.090  0.00  0.00    +0.000 C 
ATOM     31  C   UNL     1       2.570   0.080   0.098  0.00  0.00    +0.000 C 
ATOM     32  O   UNL     1       1.971  -0.499   0.988  0.00  0.00    +0.000 OA
ENDBRANCH   1  31
BRANCH   9  33
ATOM     33  C   UNL     1       7.845  -4.872  -3.867  0.00  0.00    +0.000 C 
ATOM     34  C   UNL     1       8.412  -4.312  -2.782  0.00  0.00    +0.000 C 
BRANCH  33  35
ATOM     35  O   UNL     1       8.307  -6.027  -4.376  0.00  0.00    +0.000 OA
ATOM     36  H   UNL     1       9.106  -6.447  -4.037  0.00  0.00    +0.000 HD
ENDBRANCH  33  35
ENDBRANCH   9  33
BRANCH  17  37
ATOM     37  C   UNL     1       0.977   0.541  -7.903  0.00  0.00    +0.000 C 
BRANCH  37  38
ATOM     38  C   UNL     1      -0.391   0.361  -7.269  0.00  0.00    +0.000 C 
BRANCH  38  39
ATOM     39  C   UNL     1      -1.446   1.266  -7.797  0.00  0.00    +0.000 C 
ATOM     40  O   UNL     1      -2.002   2.024  -7.018  0.00  0.00    +0.000 OA
BRANCH  39  41
ATOM     41  O   UNL     1      -1.804   1.265  -9.097  0.00  0.00    +0.000 OA
ATOM     42  H   UNL     1      -1.394   0.681  -9.750  0.00  0.00    +0.000 HD
ENDBRANCH  39  41
ENDBRANCH  38  39
ENDBRANCH  37  38
ENDBRANCH  17  37
BRANCH  21  43
ATOM     43  C   UNL     1       6.468   3.276  -6.387  0.00  0.00    +0.000 C 
BRANCH  43  44
ATOM     44  C   UNL     1       5.442   3.687  -7.418  0.00  0.00    +0.000 C 
BRANCH  44  45
ATOM     45  C   UNL     1       6.017   4.546  -8.503  0.00  0.00    +0.000 C 
ATOM     46  O   UNL     1       5.539   5.654  -8.675  0.00  0.00    +0.000 OA
BRANCH  45  47
ATOM     47  O   UNL     1       7.017   4.130  -9.315  0.00  0.00    +0.000 OA
ATOM     48  H   UNL     1       7.429   3.258  -9.255  0.00  0.00    +0.000 HD
ENDBRANCH  45  47
ENDBRANCH  44  45
ENDBRANCH  43  44
ENDBRANCH  21  43
TORSDOF 11
