REMARK  Name = 
REMARK  17 active torsions:
REMARK  status: ('A' for Active; 'I' for Inactive)
REMARK    1  A    between atoms: N_1  and  C_2
REMARK    2  A    between atoms: C_2  and  C_3
REMARK    3  A    between atoms: N_7  and  C_9
REMARK    4  A    between atoms: C_12  and  C_14
REMARK    5  A    between atoms: C_14  and  O_15
REMARK    6  A    between atoms: O_15  and  P_16
REMARK    7  A    between atoms: P_16  and  O_19
REMARK    8  A    between atoms: O_19  and  P_20
REMARK    9  A    between atoms: P_20  and  O_21
REMARK   10  A    between atoms: P_20  and  O_23
REMARK   11  A    between atoms: O_23  and  C_24
REMARK   12  A    between atoms: C_24  and  C_25
REMARK   13  A    between atoms: C_28  and  N_36
REMARK   14  A    between atoms: C_30  and  O_32
REMARK   15  A    between atoms: C_33  and  O_35
REMARK   16  A    between atoms: C_46  and  O_48
REMARK   17  A    between atoms: C_49  and  O_51
REMARK                            x       y       z     vdW  Elec       q    Type
REMARK                         _______ _______ _______ _____ _____    ______ ____
ROOT
ATOM      1  P   UNL     1      -0.866 -10.156  -5.148  0.00  0.00    +0.480 P 
ATOM      2  O   UNL     1      -1.882 -11.077  -5.831  0.00  0.00    -0.227 OA
ENDROOT
BRANCH   1   3
ATOM      3  O   UNL     1      -0.516  -9.042  -6.287  0.00  0.00    -0.302 OA
ATOM      4  H   UNL     1      -0.947  -9.303  -7.124  0.00  0.00    +0.222 HD
ENDBRANCH   1   3
BRANCH   1   5
ATOM      5  O   UNL     1       0.520 -11.092  -5.594  0.00  0.00    -0.229 OA
BRANCH   5   6
ATOM      6  P   UNL     1       0.046 -12.330  -6.705  0.00  0.00    +0.222 P 
ATOM      7  O   UNL     1      -0.427 -13.568  -7.817  0.00  0.00    -0.437 OA
ATOM      8  O   UNL     1       1.555 -12.640  -6.820  0.00  0.00    -0.517 OA
BRANCH   6   9
ATOM      9  O   UNL     1      -0.465 -13.222  -5.367  0.00  0.00    -0.324 OA
BRANCH   9  10
ATOM     10  C   UNL     1      -0.430 -14.635  -5.511  0.00  0.00    +0.202 C 
BRANCH  10  14
ATOM     11  C   UNL     1      -1.896 -17.254  -3.490  0.00  0.00    +0.439 C 
ATOM     12  C   UNL     1      -3.108 -16.317  -3.602  0.00  0.00    +0.244 C 
ATOM     13  C   UNL     1      -2.542 -15.001  -4.134  0.00  0.00    +0.183 C 
ATOM     14  C   UNL     1      -1.046 -15.273  -4.288  0.00  0.00    +0.182 C 
ATOM     15  O   UNL     1      -0.895 -16.703  -4.345  0.00  0.00    -0.309 OA
BRANCH  11  18
ATOM     16  C   UNL     1      -1.760 -17.921   0.208  0.00  0.00    +0.030 A 
ATOM     17  C   UNL     1      -2.195 -17.853  -1.120  0.00  0.00    +0.316 A 
ATOM     18  N   UNL     1      -1.382 -17.369  -2.091  0.00  0.00    -0.174 N 
ATOM     19  C   UNL     1      -0.100 -17.040  -1.797  0.00  0.00    +0.311 A 
ATOM     20  C   UNL     1       0.372 -17.069  -0.497  0.00  0.00    +0.070 A 
ATOM     21  C   UNL     1      -0.466 -17.501   0.517  0.00  0.00    +0.016 A 
BRANCH  16  22
ATOM     22  C   UNL     1      -2.677 -18.445   1.279  0.00  0.00    +0.119 C 
BRANCH  22  23
ATOM     23  N   UNL     1      -3.015 -19.836   1.018  0.00  0.00    -0.326 NA
ATOM     24  H   UNL     1      -2.188 -20.420   1.159  0.00  0.00    +0.119 HD
ATOM     25  H   UNL     1      -3.678 -20.152   1.731  0.00  0.00    +0.119 HD
ENDBRANCH  22  23
ENDBRANCH  16  22
ENDBRANCH  11  18
BRANCH  12  26
ATOM     26  O   UNL     1      -4.079 -16.878  -4.502  0.00  0.00    -0.380 OA
ATOM     27  H   UNL     1      -3.804 -16.712  -5.426  0.00  0.00    +0.210 HD
ENDBRANCH  12  26
BRANCH  13  28
ATOM     28  O   UNL     1      -2.756 -13.967  -3.172  0.00  0.00    -0.386 OA
ATOM     29  H   UNL     1      -2.484 -13.143  -3.630  0.00  0.00    +0.210 HD
ENDBRANCH  13  28
ENDBRANCH  10  14
ENDBRANCH   9  10
ENDBRANCH   6   9
ENDBRANCH   5   6
ENDBRANCH   1   5
BRANCH   1  30
ATOM     30  O   UNL     1      -2.251  -9.221  -4.703  0.00  0.00    -0.284 OA
BRANCH  30  31
ATOM     31  C   UNL     1      -3.042  -9.717  -3.637  0.00  0.00    +0.206 C 
BRANCH  31  32
ATOM     32  C   UNL     1      -4.209  -8.754  -3.374  0.00  0.00    +0.178 C 
ATOM     33  C   UNL     1      -3.748  -7.329  -3.073  0.00  0.00    +0.178 C 
ATOM     34  C   UNL     1      -3.844  -6.585  -4.404  0.00  0.00    +0.195 C 
ATOM     35  C   UNL     1      -4.474  -7.605  -5.367  0.00  0.00    +0.253 C 
ATOM     36  O   UNL     1      -5.059  -8.636  -4.541  0.00  0.00    -0.346 OA
BRANCH  35  37
ATOM     37  N   UNL     1      -5.486  -7.004  -6.217  0.00  0.00    -0.286 N 
ATOM     38  C   UNL     1      -5.238  -5.971  -7.083  0.00  0.00    +0.167 A 
ATOM     39  N   UNL     1      -4.062  -5.361  -7.313  0.00  0.00    -0.216 NA
ATOM     40  C   UNL     1      -4.213  -4.372  -8.220  0.00  0.00    +0.225 A 
ATOM     41  N   UNL     1      -5.343  -3.965  -8.837  0.00  0.00    -0.219 NA
ATOM     42  C   UNL     1      -6.504  -4.597  -8.543  0.00  0.00    +0.147 A 
ATOM     43  N   UNL     1      -7.665  -4.155  -9.164  0.00  0.00    -0.341 N 
ATOM     44  H   UNL     1      -8.394  -4.858  -9.195  0.00  0.00    +0.144 HD
ATOM     45  H   UNL     1      -7.467  -3.645 -10.014  0.00  0.00    +0.144 HD
ATOM     46  C   UNL     1      -6.471  -5.672  -7.639  0.00  0.00    +0.147 A 
ATOM     47  N   UNL     1      -7.442  -6.530  -7.162  0.00  0.00    -0.231 NA
ATOM     48  C   UNL     1      -6.809  -7.328  -6.324  0.00  0.00    +0.203 A 
ENDBRANCH  35  37
BRANCH  34  49
ATOM     49  O   UNL     1      -2.560  -6.138  -4.841  0.00  0.00    -0.385 OA
ATOM     50  H   UNL     1      -2.682  -5.759  -5.736  0.00  0.00    +0.210 HD
ENDBRANCH  34  49
BRANCH  33  51
ATOM     51  O   UNL     1      -4.645  -6.740  -2.118  0.00  0.00    -0.386 OA
ATOM     52  H   UNL     1      -5.553  -6.788  -2.478  0.00  0.00    +0.210 HD
ENDBRANCH  33  51
ENDBRANCH  31  32
ENDBRANCH  30  31
ENDBRANCH   1  30
TORSDOF 17
