REMARK  Name = 
REMARK  4 active torsions:
REMARK  status: ('A' for Active; 'I' for Inactive)
REMARK    1  A    between atoms: O_1  and  P_2
REMARK    2  A    between atoms: P_2  and  O_3
REMARK    3  A    between atoms: P_2  and  O_5
REMARK    4  A    between atoms: O_5  and  C_6
REMARK                            x       y       z     vdW  Elec       q    Type
REMARK                         _______ _______ _______ _____ _____    ______ ____
ROOT
ATOM      1  C   UNL     1       5.051   1.155   0.576  0.00  0.00    +0.153 A 
ATOM      2  C   UNL     1       4.758   2.481   0.236  0.00  0.00    +0.048 A 
ATOM      3  C   UNL     1       5.367   3.535   0.912  0.00  0.00    +0.004 A 
ATOM      4  C   UNL     1       6.281   3.272   1.926  0.00  0.00    +0.005 A 
ATOM      5  C   UNL     1       6.603   1.950   2.262  0.00  0.00    -0.023 A 
ATOM      6  C   UNL     1       7.646   1.706   3.325  0.00  0.00    +0.038 C 
ATOM      7  C   UNL     1       7.664   0.259   3.800  0.00  0.00    +0.023 C 
ATOM      8  C   UNL     1       7.550  -0.675   2.604  0.00  0.00    +0.102 C 
ATOM      9  N   UNL     1       6.273  -0.463   1.932  0.00  0.00    -0.341 N 
ATOM     10  H   UNL     1       6.122  -1.074   1.128  0.00  0.00    +0.146 HD
ATOM     11  C   UNL     1       6.016   0.875   1.560  0.00  0.00    +0.073 A 
ENDROOT
BRANCH   1  12
ATOM     12  O   UNL     1       4.436   0.083  -0.050  0.00  0.00    -0.402 OA
BRANCH  12  13
ATOM     13  P   UNL     1       2.813   0.352  -0.586  0.00  0.00    +0.528 P 
ATOM     14  O   UNL     1       3.246   0.879  -1.957  0.00  0.00    -0.216 OA
BRANCH  13  15
ATOM     15  O   UNL     1       1.190   0.621  -1.122  0.00  0.00    -0.293 OA
ATOM     16  H   UNL     1       1.343   0.858  -2.063  0.00  0.00    +0.223 HD
ENDBRANCH  13  15
BRANCH  13  17
ATOM     17  O   UNL     1       2.558  -1.248  -0.776  0.00  0.00    -0.293 OA
ATOM     18  H   UNL     1       2.110  -1.638  -0.007  0.00  0.00    +0.223 HD
ENDBRANCH  13  17
ENDBRANCH  12  13
ENDBRANCH   1  12
TORSDOF 4
