REMARK  Name = 
REMARK  6 active torsions:
REMARK  status: ('A' for Active; 'I' for Inactive)
REMARK    1  A    between atoms: CG2_1  and  CB_2
REMARK    2  A    between atoms: CB_2  and  OG1_4
REMARK    3  A    between atoms: CB_2  and  CA_5
REMARK    4  A    between atoms: CA_5  and  N_7
REMARK    5  A    between atoms: CA_5  and  C_8
REMARK    6  A    between atoms: C_8  and  O_9
REMARK                            x       y       z     vdW  Elec       q    Type
REMARK                         _______ _______ _______ _____ _____    ______ ____
ROOT
ATOM      1  CA  THR A   1       3.100  -1.449  -0.107  0.00  0.00    +0.189 C 
ENDROOT
BRANCH   1   2
ATOM      2  N   THR A   1       2.545  -2.197  -1.259  0.00  0.00    -0.316 NA
ATOM      3  H1  THR A   1       3.154  -3.007  -1.425  0.00  0.00    +0.119 HD
ATOM      4  H2  THR A   1       1.632  -2.576  -1.016  0.00  0.00    +0.119 HD
ENDBRANCH   1   2
BRANCH   1   6
ATOM      5  CG2 THR A   1       1.023   0.036   0.031  0.00  0.00    +0.040 C 
ATOM      6  CB  THR A   1       2.548  -0.008  -0.062  0.00  0.00    +0.139 C 
BRANCH   6   7
ATOM      7  OG1 THR A   1       3.083   0.657   1.100  0.00  0.00    -0.390 OA
ATOM      8  HG1 THR A   1       2.595   1.498   1.201  0.00  0.00    +0.210 HD
ENDBRANCH   6   7
ENDBRANCH   1   6
BRANCH   1   9
ATOM      9  C   THR A   1       4.646  -1.482  -0.179  0.00  0.00    +0.324 C 
ATOM     10  OXT THR A   1       5.274  -2.357  -0.764  0.00  0.00    -0.249 OA
BRANCH   9  11
ATOM     11  O   THR A   1       5.272  -0.532   0.554  0.00  0.00    -0.479 OA
ATOM     12  H   THR A   1       4.627   0.071   0.999  0.00  0.00    +0.295 HD
ENDBRANCH   9  11
ENDBRANCH   1   9
TORSDOF 5
