REMARK  Name = 
REMARK  18 active torsions:
REMARK  status: ('A' for Active; 'I' for Inactive)
REMARK    1  A    between atoms: N_1  and  C_2
REMARK    2  A    between atoms: C_2  and  C_4
REMARK    3  A    between atoms: C_2  and  C_32
REMARK    4  A    between atoms: C_4  and  C_5
REMARK    5  A    between atoms: C_5  and  C_6
REMARK    6  A    between atoms: N_8  and  C_9
REMARK    7  A    between atoms: C_9  and  C_11
REMARK    8  A    between atoms: C_9  and  C_25
REMARK    9  A    between atoms: C_11  and  S_12
REMARK   10  A    between atoms: S_12  and  C_13
REMARK   11  A    between atoms: C_13  and  O_15
REMARK   12  A    between atoms: C_13  and  N_16
REMARK   13  A    between atoms: N_16  and  O_17
REMARK   14  A    between atoms: N_16  and  C_18
REMARK   15  A    between atoms: N_27  and  CA_28
REMARK   16  A    between atoms: CA_28  and  C_29
REMARK   17  A    between atoms: C_29  and  O_30
REMARK   18  A    between atoms: C_32  and  O_33
REMARK                            x       y       z     vdW  Elec       q    Type
REMARK                         _______ _______ _______ _____ _____    ______ ____
ROOT
ATOM      1  C   UNK A   1       6.361  -2.569   4.655  0.00  0.00    +0.169 C 
ENDROOT
BRANCH   1   3
ATOM      2  C   UNK A   1       6.856  -0.467   3.386  0.00  0.00    +0.214 C 
ATOM      3  N   UNK A   1       7.144  -1.353   4.403  0.00  0.00    -0.303 N 
ATOM      4  H   UNK A   1       7.566  -0.948   5.226  0.00  0.00    +0.149 HD
ATOM      5  O   UNK A   1       6.216  -0.753   2.380  0.00  0.00    -0.276 OA
BRANCH   2   6
ATOM      6  C   UNK A   1       7.419   0.932   3.625  0.00  0.00    +0.098 C 
BRANCH   6   7
ATOM      7  C   UNK A   1       8.944   1.005   3.768  0.00  0.00    +0.039 C 
BRANCH   7   8
ATOM      8  C   UNK A   1       9.698   0.526   2.516  0.00  0.00    +0.161 C 
BRANCH   8   9
ATOM      9  N   UNK A   1       9.574  -0.935   2.356  0.00  0.00    -0.318 NA
ATOM     10  H   UNK A   1       9.478  -1.373   3.272  0.00  0.00    +0.119 HD
ATOM     11  H   UNK A   1       8.718  -1.166   1.847  0.00  0.00    +0.119 HD
ENDBRANCH   8   9
BRANCH   8  12
ATOM     12  C   UNK A   1      11.192   0.925   2.581  0.00  0.00    +0.322 C 
ATOM     13  O   UNK A   1      12.133   0.150   2.711  0.00  0.00    -0.249 OA
BRANCH  12  14
ATOM     14  O   UNK A   1      11.399   2.261   2.473  0.00  0.00    -0.480 OA
ATOM     15  H   UNK A   1      10.594   2.792   2.327  0.00  0.00    +0.295 HD
ENDBRANCH  12  14
ENDBRANCH   8  12
ENDBRANCH   7   8
ENDBRANCH   6   7
ENDBRANCH   2   6
ENDBRANCH   1   3
BRANCH   1  16
ATOM     16  C   UNK A   1       4.999  -2.095   5.238  0.00  0.00    +0.235 C 
ATOM     17  N   GLY A   2       4.473  -2.895   6.240  0.00  0.00    -0.303 N 
ATOM     18  H   GLY A   2       4.778  -3.858   6.296  0.00  0.00    +0.149 HD
ATOM     19  O   UNK A   1       4.462  -1.036   4.948  0.00  0.00    -0.274 OA
BRANCH  17  20
ATOM     20  CA  GLY A   2       3.157  -2.574   6.814  0.00  0.00    +0.224 C 
BRANCH  20  21
ATOM     21  C   GLY A   2       3.195  -1.561   7.965  0.00  0.00    +0.322 C 
ATOM     22  OXT GLY A   2       2.205  -1.200   8.584  0.00  0.00    -0.249 OA
BRANCH  21  23
ATOM     23  O   GLY A   2       4.440  -1.135   8.279  0.00  0.00    -0.480 OA
ATOM     24  H   GLY A   2       5.083  -1.507   7.648  0.00  0.00    +0.295 HD
ENDBRANCH  21  23
ENDBRANCH  20  21
ENDBRANCH  17  20
ENDBRANCH   1  16
BRANCH   1  25
ATOM     25  C   UNK A   1       6.186  -3.599   3.532  0.00  0.00    +0.105 C 
BRANCH  25  26
ATOM     26  S   UNK A   1       7.720  -4.124   2.667  0.00  0.00    -0.104 S 
BRANCH  26  27
ATOM     27  C   UNK A   1       8.526  -5.253   3.853  0.00  0.00    +0.299 C 
BRANCH  27  28
ATOM     28  O   UNK A   1       7.635  -6.195   4.404  0.00  0.00    -0.362 OA
ATOM     29  H   UNK A   1       8.233  -6.886   4.738  0.00  0.00    +0.213 HD
ENDBRANCH  27  28
BRANCH  27  30
ATOM     30  N   UNK A   1       9.332  -4.500   4.826  0.00  0.00    -0.217 N 
BRANCH  30  31
ATOM     31  C   UNK A   1       9.309  -4.554   6.224  0.00  0.00    +0.068 A 
ATOM     32  C   UNK A   1      10.232  -3.760   6.942  0.00  0.00    +0.029 A 
ATOM     33  C   UNK A   1      10.261  -3.705   8.342  0.00  0.00    +0.017 A 
ATOM     34  C   UNK A   1       9.369  -4.472   9.073  0.00  0.00    +0.018 A 
ATOM     35 BR   UNK A   1       9.368  -4.389  10.959  0.00  0.00    -0.050 Br
ATOM     36  C   UNK A   1       8.461  -5.288   8.412  0.00  0.00    +0.017 A 
ATOM     37  C   UNK A   1       8.425  -5.311   7.007  0.00  0.00    +0.029 A 
ENDBRANCH  30  31
BRANCH  30  38
ATOM     38  O   UNK A   1      10.521  -4.018   4.224  0.00  0.00    -0.284 OA
ATOM     39  H   UNK A   1      10.218  -3.489   3.458  0.00  0.00    +0.245 HD
ENDBRANCH  30  38
ENDBRANCH  27  30
ENDBRANCH  26  27
ENDBRANCH  25  26
ENDBRANCH   1  25
TORSDOF 18
