REMARK  Name = 
REMARK  10 active torsions:
REMARK  status: ('A' for Active; 'I' for Inactive)
REMARK    1  A    between atoms: C_1  and  C_2
REMARK    2  A    between atoms: N_4  and  C_5
REMARK    3  A    between atoms: C_7  and  O_9
REMARK    4  A    between atoms: C_11  and  C_13
REMARK    5  A    between atoms: C_13  and  O_14
REMARK    6  A    between atoms: O_14  and  P_15
REMARK    7  A    between atoms: P_15  and  O_16
REMARK    8  A    between atoms: P_15  and  O_17
REMARK    9  A    between atoms: C_19  and  O_21
REMARK   10  A    between atoms: C_22  and  O_24
REMARK                            x       y       z     vdW  Elec       q    Type
REMARK                         _______ _______ _______ _____ _____    ______ ____
ROOT
ATOM      1  C   UNL     1       4.530  -0.826   0.903  0.00  0.00    +0.160 C 
ATOM      2  C   UNL     1       5.039  -2.278   0.863  0.00  0.00    +0.171 C 
ATOM      3  C   UNL     1       4.737  -3.016   2.175  0.00  0.00    +0.176 C 
ATOM      4  C   UNL     1       5.229  -2.221   3.394  0.00  0.00    +0.178 C 
ATOM      5  O   UNL     1       4.727  -0.875   3.365  0.00  0.00    -0.341 OA
ATOM      6  C   UNL     1       5.035  -0.125   2.190  0.00  0.00    +0.270 C 
ENDROOT
BRANCH   1   9
ATOM      7  C   UNL     1       0.939  -0.775  -0.338  0.00  0.00    +0.109 C 
ATOM      8  C   UNL     1       2.436  -0.880  -0.424  0.00  0.00    +0.210 C 
ATOM      9  N   UNL     1       3.067  -0.754   0.791  0.00  0.00    -0.305 N 
ATOM     10  H   UNL     1       2.518  -0.628   1.634  0.00  0.00    +0.149 HD
ATOM     11  O   UNL     1       3.030  -1.075  -1.477  0.00  0.00    -0.276 OA
ENDBRANCH   1   9
BRANCH   2  12
ATOM     12  O   UNL     1       6.455  -2.289   0.624  0.00  0.00    -0.387 OA
ATOM     13  H   UNL     1       6.699  -3.239   0.615  0.00  0.00    +0.210 HD
ENDBRANCH   2  12
BRANCH   3  14
ATOM     14  O   UNL     1       5.313  -4.326   2.128  0.00  0.00    -0.387 OA
ATOM     15  H   UNL     1       4.922  -4.845   2.851  0.00  0.00    +0.210 HD
ENDBRANCH   3  14
BRANCH   6  16
ATOM     16  O   UNL     1       6.402   0.229   2.125  0.00  0.00    -0.365 OA
ATOM     17  H   UNL     1       6.835  -0.364   1.481  0.00  0.00    +0.213 HD
ENDBRANCH   6  16
BRANCH   4  18
ATOM     18  C   UNL     1       6.741  -2.311   3.658  0.00  0.00    +0.206 C 
BRANCH  18  19
ATOM     19  O   UNL     1       7.019  -1.628   4.871  0.00  0.00    -0.284 OA
BRANCH  19  20
ATOM     20  P   UNL     1       8.444  -1.865   5.553  0.00  0.00    +0.472 P 
ATOM     21  O   UNL     1       9.631  -1.548   4.717  0.00  0.00    -0.228 OA
BRANCH  20  22
ATOM     22  O   UNL     1       8.363  -3.396   6.001  0.00  0.00    -0.303 OA
ATOM     23  H   UNL     1       9.094  -3.892   5.587  0.00  0.00    +0.222 HD
ENDBRANCH  20  22
BRANCH  20  24
ATOM     24  O   UNL     1       8.295  -1.064   6.919  0.00  0.00    -0.303 OA
ATOM     25  H   UNL     1       7.366  -0.805   7.049  0.00  0.00    +0.222 HD
ENDBRANCH  20  24
ENDBRANCH  19  20
ENDBRANCH  18  19
ENDBRANCH   4  18
TORSDOF 9
