REMARK  Name = 
REMARK  31 active torsions:
REMARK  status: ('A' for Active; 'I' for Inactive)
REMARK    1  A    between atoms: C_1  and  C_2
REMARK    2  A    between atoms: C_2  and  C_3
REMARK    3  A    between atoms: C_2  and  C_4
REMARK    4  A    between atoms: C_2  and  C_40
REMARK    5  A    between atoms: C_4  and  O_5
REMARK    6  A    between atoms: O_5  and  P_6
REMARK    7  A    between atoms: P_6  and  O_7
REMARK    8  A    between atoms: P_6  and  O_9
REMARK    9  A    between atoms: O_9  and  P_10
REMARK   10  A    between atoms: P_10  and  O_11
REMARK   11  A    between atoms: P_10  and  O_13
REMARK   12  A    between atoms: O_13  and  C_14
REMARK   13  A    between atoms: C_14  and  C_15
REMARK   14  A    between atoms: C_18  and  N_30
REMARK   15  A    between atoms: C_20  and  O_22
REMARK   16  A    between atoms: C_23  and  O_25
REMARK   17  A    between atoms: O_25  and  P_26
REMARK   18  A    between atoms: P_26  and  O_27
REMARK   19  A    between atoms: P_26  and  O_28
REMARK   20  A    between atoms: C_40  and  O_42
REMARK   21  A    between atoms: C_40  and  C_43
REMARK   22  A    between atoms: N_45  and  C_46
REMARK   23  A    between atoms: C_46  and  C_47
REMARK   24  A    between atoms: C_47  and  C_48
REMARK   25  A    between atoms: N_50  and  C_51
REMARK   26  A    between atoms: C_51  and  C_52
REMARK   27  A    between atoms: C_52  and  S_53
REMARK   28  A    between atoms: S_53  and  C_54
REMARK   29  A    between atoms: C_54  and  C_55
REMARK   30  A    between atoms: C_55  and  C_57
REMARK   31  A    between atoms: C_60  and  O_61
REMARK                            x       y       z     vdW  Elec       q    Type
REMARK                         _______ _______ _______ _____ _____    ______ ____
ROOT
ATOM      1  P   UNL     1      11.429   7.860 -10.350  0.00  0.00    +0.483 P 
ATOM      2  O   UNL     1      11.216   6.602  -9.514  0.00  0.00    -0.227 OA
ENDROOT
BRANCH   1   3
ATOM      3  O   UNL     1      11.684   6.832 -11.718  0.00  0.00    -0.302 OA
ATOM      4  H   UNL     1      11.159   6.037 -11.484  0.00  0.00    +0.222 HD
ENDBRANCH   1   3
BRANCH   1   5
ATOM      5  O   UNL     1       9.986   8.296 -11.000  0.00  0.00    -0.286 OA
BRANCH   5   6
ATOM      6  C   UNL     1      10.069   9.106 -12.167  0.00  0.00    +0.181 C 
BRANCH   6   8
ATOM      7  C   UNL     1       7.834   8.235 -12.939  0.00  0.00    +0.016 C 
ATOM      8  C   UNL     1       8.669   9.509 -12.667  0.00  0.00    +0.024 C 
ATOM      9  C   UNL     1       7.931  10.309 -11.576  0.00  0.00    +0.016 C 
BRANCH   8  10
ATOM     10  C   UNL     1       8.818  10.303 -13.994  0.00  0.00    +0.208 C 
BRANCH  10  11
ATOM     11  C   UNL     1       9.855  11.448 -13.926  0.00  0.00    +0.242 C 
ATOM     12  N   UNL     1       9.456  12.536 -13.176  0.00  0.00    -0.313 N 
ATOM     13  H   UNL     1       8.450  12.609 -13.053  0.00  0.00    +0.149 HD
ATOM     14  O   UNL     1      10.968  11.343 -14.437  0.00  0.00    -0.273 OA
BRANCH  12  15
ATOM     15  C   UNL     1      10.239  13.758 -13.143  0.00  0.00    +0.113 C 
BRANCH  15  16
ATOM     16  C   UNL     1      10.097  14.504 -11.820  0.00  0.00    +0.114 C 
BRANCH  16  17
ATOM     17  C   UNL     1      10.880  15.801 -11.860  0.00  0.00    +0.215 C 
ATOM     18  N   UNL     1      10.803  16.531 -10.692  0.00  0.00    -0.314 N 
ATOM     19  H   UNL     1      10.345  16.125  -9.887  0.00  0.00    +0.149 HD
ATOM     20  O   UNL     1      11.514  16.163 -12.845  0.00  0.00    -0.276 OA
BRANCH  18  21
ATOM     21  C   UNL     1      11.553  17.765 -10.486  0.00  0.00    +0.115 C 
BRANCH  21  22
ATOM     22  C   UNL     1      12.682  17.611  -9.464  0.00  0.00    +0.088 C 
BRANCH  22  23
ATOM     23  S   UNL     1      13.836  16.262  -9.864  0.00  0.00    -0.151 S 
BRANCH  23  24
ATOM     24  C   UNL     1      14.444  16.820 -11.494  0.00  0.00    +0.148 C 
BRANCH  24  25
ATOM     25  C   UNL     1      15.281  18.090 -11.442  0.00  0.00    +0.173 C 
ATOM     26  O   UNL     1      15.360  18.811 -10.450  0.00  0.00    -0.291 OA
BRANCH  25  27
ATOM     27  C   UNL     1      16.032  18.478 -12.680  0.00  0.00    +0.018 A 
ATOM     28  C   UNL     1      16.882  19.590 -12.615  0.00  0.00    +0.015 A 
ATOM     29  C   UNL     1      17.671  19.940 -13.714  0.00  0.00    +0.046 A 
ATOM     30  C   UNL     1      17.623  19.155 -14.861  0.00  0.00    +0.117 A 
ATOM     31  C   UNL     1      16.774  18.059 -14.953  0.00  0.00    +0.046 A 
ATOM     32  C   UNL     1      15.965  17.728 -13.859  0.00  0.00    +0.015 A 
BRANCH  30  33
ATOM     33  O   UNL     1      18.476  19.466 -15.877  0.00  0.00    -0.507 OA
ATOM     34  H   UNL     1      18.559  18.682 -16.446  0.00  0.00    +0.292 HD
ENDBRANCH  30  33
ENDBRANCH  25  27
ENDBRANCH  24  25
ENDBRANCH  23  24
ENDBRANCH  22  23
ENDBRANCH  21  22
ENDBRANCH  18  21
ENDBRANCH  16  17
ENDBRANCH  15  16
ENDBRANCH  12  15
ENDBRANCH  10  11
BRANCH  10  35
ATOM     35  O   UNL     1       7.550  10.817 -14.406  0.00  0.00    -0.382 OA
ATOM     36  H   UNL     1       7.122  10.115 -14.930  0.00  0.00    +0.210 HD
ENDBRANCH  10  35
ENDBRANCH   8  10
ENDBRANCH   6   8
ENDBRANCH   5   6
ENDBRANCH   1   5
BRANCH   1  37
ATOM     37  O   UNL     1      11.173   8.888  -8.982  0.00  0.00    -0.186 OA
BRANCH  37  38
ATOM     38  P   UNL     1      12.618   9.780  -8.653  0.00  0.00    +0.483 P 
ATOM     39  O   UNL     1      12.036  10.254  -7.321  0.00  0.00    -0.227 OA
BRANCH  38  40
ATOM     40  O   UNL     1      12.046  10.889  -9.713  0.00  0.00    -0.302 OA
ATOM     41  H   UNL     1      11.427  11.441  -9.186  0.00  0.00    +0.222 HD
ENDBRANCH  38  40
BRANCH  38  42
ATOM     42  O   UNL     1      14.063  10.673  -8.324  0.00  0.00    -0.284 OA
BRANCH  42  43
ATOM     43  C   UNL     1      14.274  11.869  -9.081  0.00  0.00    +0.206 C 
BRANCH  43  44
ATOM     44  C   UNL     1      15.586  12.548  -8.709  0.00  0.00    +0.179 C 
ATOM     45  C   UNL     1      16.741  11.607  -8.934  0.00  0.00    +0.194 C 
ATOM     46  C   UNL     1      17.450  12.112 -10.189  0.00  0.00    +0.196 C 
ATOM     47  C   UNL     1      16.629  13.288 -10.669  0.00  0.00    +0.253 C 
ATOM     48  O   UNL     1      15.813  13.686  -9.558  0.00  0.00    -0.346 OA
BRANCH  47  49
ATOM     49  N   UNL     1      17.468  14.399 -11.090  0.00  0.00    -0.286 N 
ATOM     50  C   UNL     1      18.487  14.348 -12.009  0.00  0.00    +0.167 A 
ATOM     51  N   UNL     1      19.085  13.264 -12.535  0.00  0.00    -0.216 NA
ATOM     52  C   UNL     1      20.075  13.643 -13.384  0.00  0.00    +0.225 A 
ATOM     53  N   UNL     1      20.399  14.887 -13.801  0.00  0.00    -0.219 NA
ATOM     54  C   UNL     1      19.723  15.933 -13.281  0.00  0.00    +0.147 A 
ATOM     55  N   UNL     1      19.990  17.204 -13.752  0.00  0.00    -0.341 N 
ATOM     56  H   UNL     1      19.605  17.964 -13.201  0.00  0.00    +0.144 HD
ATOM     57  H   UNL     1      20.889  17.329 -14.190  0.00  0.00    +0.144 HD
ATOM     58  C   UNL     1      18.779  15.677 -12.274  0.00  0.00    +0.147 A 
ATOM     59  N   UNL     1      18.069  16.505 -11.441  0.00  0.00    -0.231 NA
ATOM     60  C   UNL     1      17.377  15.695 -10.671  0.00  0.00    +0.203 A 
ENDBRANCH  47  49
BRANCH  46  61
ATOM     61  O   UNL     1      17.554  11.063 -11.148  0.00  0.00    -0.385 OA
ATOM     62  H   UNL     1      18.053  11.419 -11.916  0.00  0.00    +0.210 HD
ENDBRANCH  46  61
BRANCH  45  63
ATOM     63  O   UNL     1      17.644  11.695  -7.828  0.00  0.00    -0.278 OA
BRANCH  63  64
ATOM     64  P   UNL     1      18.977  10.670  -8.237  0.00  0.00    +0.473 P 
ATOM     65  O   UNL     1      20.170   9.754  -8.603  0.00  0.00    -0.228 OA
BRANCH  64  66
ATOM     66  O   UNL     1      18.254   9.633  -7.201  0.00  0.00    -0.303 OA
ATOM     67  H   UNL     1      18.311  10.041  -6.316  0.00  0.00    +0.222 HD
ENDBRANCH  64  66
BRANCH  64  68
ATOM     68  O   UNL     1      19.776  11.496  -7.071  0.00  0.00    -0.303 OA
ATOM     69  H   UNL     1      20.095  12.359  -7.394  0.00  0.00    +0.222 HD
ENDBRANCH  64  68
ENDBRANCH  63  64
ENDBRANCH  45  63
ENDBRANCH  43  44
ENDBRANCH  42  43
ENDBRANCH  38  42
ENDBRANCH  37  38
ENDBRANCH   1  37
TORSDOF 29
