REMARK  Name = 
REMARK  1 active torsions:
REMARK  status: ('A' for Active; 'I' for Inactive)
REMARK    1  A    between atoms: N_4  and  O_5
REMARK                            x       y       z     vdW  Elec       q    Type
REMARK                         _______ _______ _______ _____ _____    ______ ____
ROOT
ATOM      1  N   UNL     1       1.177   0.007   0.244  0.00  0.00    -0.287 N 
ATOM      2  H   UNL     1       0.696  -0.721  -0.272  0.00  0.00    +0.255 HD
ATOM      3  H   UNL     1       0.691   0.892   0.174  0.00  0.00    +0.255 HD
ATOM      4  C   UNL     1       2.508   0.062   0.041  0.00  0.00    +0.404 C 
ATOM      5  N   UNL     1       3.079  -1.136  -0.275  0.00  0.00    -0.142 N 
ATOM      6  H   UNL     1       2.629  -1.953   0.128  0.00  0.00    +0.299 HD
ATOM      7  N   UNL     1       3.198   1.149   0.136  0.00  0.00    -0.128 NA
ATOM      8  H   UNL     1       2.580   1.918   0.402  0.00  0.00    +0.306 HD
ENDROOT
BRANCH   5   9
ATOM      9  O   UNL     1       4.468  -1.132  -0.057  0.00  0.00    -0.233 OA
ATOM     10  H   UNL     1       4.669  -0.167  -0.016  0.00  0.00    +0.262 HD
ENDBRANCH   5   9
TORSDOF 1
