REMARK  Name = 
REMARK  11 active torsions:
REMARK  status: ('A' for Active; 'I' for Inactive)
REMARK    1  A    between atoms: C_1  and  N_2
REMARK    2  A    between atoms: N_2  and  C_3
REMARK    3  A    between atoms: N_2  and  C_4
REMARK    4  A    between atoms: N_2  and  C_5
REMARK    5  A    between atoms: C_5  and  C_6
REMARK    6  A    between atoms: C_6  and  C_7
REMARK    7  A    between atoms: C_7  and  C_8
REMARK    8  A    between atoms: C_8  and  C_9
REMARK    9  A    between atoms: C_9  and  N_11
REMARK   10  A    between atoms: C_9  and  C_12
REMARK   11  A    between atoms: C_12  and  O_13
REMARK                            x       y       z     vdW  Elec       q    Type
REMARK                         _______ _______ _______ _____ _____    ______ ____
ROOT
ATOM      1  C   UNK     1       4.567  -3.912   0.257  0.00  0.00    +0.030 C 
ENDROOT
BRANCH   1   2
ATOM      2  C   UNK     1       5.005  -2.716   1.106  0.00  0.00    +0.007 C 
BRANCH   2   3
ATOM      3  C   UNK     1       4.536  -1.372   0.526  0.00  0.00    +0.051 C 
BRANCH   3   4
ATOM      4  C   UNK     1       3.009  -1.256   0.491  0.00  0.00    +0.132 C 
BRANCH   4   6
ATOM      5  C   UNK     1       0.959   0.014  -0.063  0.00  0.00    +0.192 C 
ATOM      6  N   UNK     1       2.492   0.074  -0.077  0.00  0.00    +0.237 N 
ATOM      7  C   UNK     1       2.930   1.259   0.771  0.00  0.00    +0.192 C 
ATOM      8  C   UNK     1       2.943   0.276  -1.520  0.00  0.00    +0.192 C 
ENDBRANCH   4   6
ENDBRANCH   3   4
ENDBRANCH   2   3
ENDBRANCH   1   2
BRANCH   1   9
ATOM      9  C   UNK     1       5.029  -5.275   0.792  0.00  0.00    +0.161 C 
BRANCH   9  10
ATOM     10  N   UNK     1       4.399  -5.568   2.108  0.00  0.00    -0.318 NA
ATOM     11  H   UNK     1       4.775  -6.467   2.438  0.00  0.00    +0.119 HD
ATOM     12  H   UNK     1       4.770  -4.906   2.797  0.00  0.00    +0.119 HD
ENDBRANCH   9  10
BRANCH   9  13
ATOM     13  C   UNK     1       4.567  -6.337  -0.220  0.00  0.00    +0.322 C 
ATOM     14  O   UNK     1       5.120  -6.576  -1.278  0.00  0.00    -0.249 OA
BRANCH  13  15
ATOM     15  O   UNK     1       3.401  -6.913   0.170  0.00  0.00    -0.480 OA
ATOM     16  H   UNK     1       3.170  -6.540   1.054  0.00  0.00    +0.295 HD
ENDBRANCH  13  15
ENDBRANCH   9  13
ENDBRANCH   1   9
TORSDOF 8
