REMARK  Name = 
REMARK  11 active torsions:
REMARK  status: ('A' for Active; 'I' for Inactive)
REMARK    1  A    between atoms: C_1  and  C_2
REMARK    2  A    between atoms: C_5  and  O_7
REMARK    3  A    between atoms: C_8  and  O_10
REMARK    4  A    between atoms: C_11  and  O_13
REMARK    5  A    between atoms: C_14  and  N_16
REMARK    6  A    between atoms: N_16  and  C_17
REMARK    7  A    between atoms: C_20  and  C_21
REMARK    8  A    between atoms: C_21  and  O_22
REMARK    9  A    between atoms: C_23  and  O_25
REMARK   10  A    between atoms: C_26  and  O_28
REMARK   11  A    between atoms: C_29  and  O_31
REMARK                            x       y       z     vdW  Elec       q    Type
REMARK                         _______ _______ _______ _____ _____    ______ ____
ROOT
ATOM      1  N   UNL     1       1.144   1.298   1.254  0.00  0.00    -0.300 NA
ATOM      2  H   UNL     1       1.382   0.413   0.789  0.00  0.00    +0.123 HD
ENDROOT
BRANCH   1   5
ATOM      3  C   UNL     1      -0.847   1.707   3.537  0.00  0.00    +0.039 C 
ATOM      4  C   UNL     1      -1.021   2.284   2.134  0.00  0.00    +0.138 C 
ATOM      5  C   UNL     1      -0.327   1.416   1.054  0.00  0.00    +0.114 C 
ATOM      6  C   UNL     1      -0.781   1.724  -0.395  0.00  0.00    +0.167 C 
ATOM      7  C   UNL     1      -2.268   2.090  -0.504  0.00  0.00    +0.200 C 
ATOM      8  C   UNL     1      -2.628   3.080   0.616  0.00  0.00    +0.279 C 
ATOM      9  O   UNL     1      -2.421   2.455   1.876  0.00  0.00    -0.344 OA
BRANCH   6  10
ATOM     10  O   UNL     1      -0.510   0.586  -1.242  0.00  0.00    -0.387 OA
ATOM     11  H   UNL     1      -1.090   0.691  -2.024  0.00  0.00    +0.210 HD
ENDBRANCH   6  10
BRANCH   7  12
ATOM     12  O   UNL     1      -2.484   2.611  -1.831  0.00  0.00    -0.384 OA
ATOM     13  H   UNL     1      -2.337   3.573  -1.801  0.00  0.00    +0.210 HD
ENDBRANCH   7  12
BRANCH   8  14
ATOM     14  O   UNL     1      -3.990   3.463   0.519  0.00  0.00    -0.365 OA
ATOM     15  H   UNL     1      -4.097   4.184   1.163  0.00  0.00    +0.213 HD
ENDBRANCH   8  14
ENDBRANCH   1   5
BRANCH   1  16
ATOM     16  C   UNL     1       2.052   2.309   0.663  0.00  0.00    +0.109 C 
ATOM     17  C   UNL     1       2.049   3.830   1.038  0.00  0.00    +0.166 C 
ATOM     18  C   UNL     1       2.740   4.230   2.357  0.00  0.00    +0.177 C 
ATOM     19  C   UNL     1       4.007   3.423   2.706  0.00  0.00    +0.173 C 
ATOM     20  C   UNL     1       4.308   2.222   1.853  0.00  0.00    -0.016 C 
ATOM     21  C   UNL     1       3.439   1.752   0.934  0.00  0.00    -0.002 C 
BRANCH  17  22
ATOM     22  O   UNL     1       0.769   4.470   0.954  0.00  0.00    -0.387 OA
ATOM     23  H   UNL     1       0.601   4.791   1.870  0.00  0.00    +0.210 HD
ENDBRANCH  17  22
BRANCH  18  24
ATOM     24  O   UNL     1       1.784   4.216   3.433  0.00  0.00    -0.386 OA
ATOM     25  H   UNL     1       2.255   4.537   4.227  0.00  0.00    +0.210 HD
ENDBRANCH  18  24
BRANCH  19  26
ATOM     26  O   UNL     1       5.130   4.312   2.652  0.00  0.00    -0.385 OA
ATOM     27  H   UNL     1       5.281   4.545   1.719  0.00  0.00    +0.210 HD
ENDBRANCH  19  26
BRANCH  20  28
ATOM     28  C   UNL     1       5.621   1.546   2.184  0.00  0.00    +0.189 C 
BRANCH  28  29
ATOM     29  O   UNL     1       5.772   0.310   1.504  0.00  0.00    -0.391 OA
ATOM     30  H   UNL     1       5.130  -0.302   1.904  0.00  0.00    +0.210 HD
ENDBRANCH  28  29
ENDBRANCH  20  28
ENDBRANCH   1  16
TORSDOF 10
