REMARK  Name = 
REMARK  7 active torsions:
REMARK  status: ('A' for Active; 'I' for Inactive)
REMARK    1  A    between atoms: N_1  and  CA_2
REMARK    2  A    between atoms: CA_2  and  C_4
REMARK    3  A    between atoms: CA_2  and  C_10
REMARK    4  A    between atoms: C_4  and  O_6
REMARK    5  A    between atoms: C_4  and  C_7
REMARK    6  A    between atoms: C_7  and  O_8
REMARK    7  A    between atoms: C_10  and  O_11
REMARK                            x       y       z     vdW  Elec       q    Type
REMARK                         _______ _______ _______ _____ _____    ______ ____
ROOT
ATOM      1  CA  UNL     1       2.495  -0.019   0.164  0.00  0.00    +0.200 C 
ENDROOT
BRANCH   1   2
ATOM      2  N   UNL     1       0.992  -0.076   0.255  0.00  0.00    -0.316 NA
ATOM      3  H1  UNL     1       0.714   0.306   1.165  0.00  0.00    +0.119 HD
ATOM      4  H2  UNL     1       0.598   0.560  -0.443  0.00  0.00    +0.119 HD
ENDBRANCH   1   2
BRANCH   1   5
ATOM      5  C   UNL     1       3.054  -1.093   1.111  0.00  0.00    +0.325 C 
ATOM      6  OXT UNL     1       4.162  -1.097   1.619  0.00  0.00    -0.249 OA
BRANCH   5   7
ATOM      7  O   UNL     1       2.142  -2.083   1.312  0.00  0.00    -0.479 OA
ATOM      8  H   UNL     1       1.324  -1.819   0.823  0.00  0.00    +0.295 HD
ENDBRANCH   5   7
ENDBRANCH   1   5
BRANCH   1   9
ATOM      9  C   UNL     1       3.048   1.371   0.500  0.00  0.00    +0.250 C 
BRANCH   9  10
ATOM     10  C   UNL     1       4.553   1.445   0.229  0.00  0.00    +0.336 C 
ATOM     11  O   UNL     1       5.065   1.197  -0.851  0.00  0.00    -0.248 OA
BRANCH  10  12
ATOM     12  O   UNL     1       5.243   1.883   1.309  0.00  0.00    -0.479 OA
ATOM     13  H   UNL     1       4.625   1.935   2.077  0.00  0.00    +0.295 HD
ENDBRANCH  10  12
ENDBRANCH   9  10
BRANCH   9  14
ATOM     14  O   UNL     1       2.734   1.762   1.845  0.00  0.00    -0.379 OA
ATOM     15  H   UNL     1       1.885   2.239   1.819  0.00  0.00    +0.211 HD
ENDBRANCH   9  14
ENDBRANCH   1   9
TORSDOF 7
