REMARK  Name = 
REMARK  13 active torsions:
REMARK  status: ('A' for Active; 'I' for Inactive)
REMARK    1  A    between atoms: C_1  and  N_2
REMARK    2  A    between atoms: N_2  and  C_3
REMARK    3  A    between atoms: N_2  and  C_11
REMARK    4  A    between atoms: C_3  and  C_4
REMARK    5  A    between atoms: C_4  and  CA_5
REMARK    6  A    between atoms: CA_5  and  N_7
REMARK    7  A    between atoms: CA_5  and  C_8
REMARK    8  A    between atoms: C_8  and  O_9
REMARK    9  A    between atoms: C_11  and  C_12
REMARK   10  A    between atoms: C_15  and  N_23
REMARK   11  A    between atoms: C_17  and  O_19
REMARK   12  A    between atoms: C_20  and  O_22
REMARK   13  A    between atoms: C_27  and  N_28
REMARK                            x       y       z     vdW  Elec       q    Type
REMARK                         _______ _______ _______ _____ _____    ______ ____
ROOT
ATOM      1  C   UNL     1      -0.471   1.205  -2.914  0.00  0.00    +0.166 C 
ATOM      2  C   UNL     1      -1.658   0.701  -3.732  0.00  0.00    +0.177 C 
ATOM      3  C   UNL     1      -2.879   1.252  -2.997  0.00  0.00    +0.195 C 
ATOM      4  C   UNL     1      -2.290   1.983  -1.783  0.00  0.00    +0.253 C 
ATOM      5  O   UNL     1      -0.935   2.316  -2.128  0.00  0.00    -0.347 OA
ENDROOT
BRANCH   4   6
ATOM      6  N   UNL     1      -3.011   3.174  -1.374  0.00  0.00    -0.286 N 
ATOM      7  C   UNL     1      -4.360   3.226  -1.138  0.00  0.00    +0.167 A 
ATOM      8  C   UNL     1      -4.557   4.408  -0.444  0.00  0.00    +0.147 A 
ATOM      9  C   UNL     1      -5.855   4.643   0.039  0.00  0.00    +0.147 A 
ATOM     10  N   UNL     1      -6.834   3.768  -0.290  0.00  0.00    -0.219 NA
ATOM     11  C   UNL     1      -6.505   2.678  -1.014  0.00  0.00    +0.225 A 
ATOM     12  N   UNL     1      -3.376   5.115  -0.341  0.00  0.00    -0.231 NA
ATOM     13  N   UNL     1      -5.285   2.301  -1.456  0.00  0.00    -0.216 NA
ATOM     14  C   UNL     1      -2.472   4.349  -0.918  0.00  0.00    +0.203 A 
BRANCH   9  15
ATOM     15  N   UNL     1      -6.181   5.710   0.860  0.00  0.00    -0.341 N 
ATOM     16  H   UNL     1      -7.170   5.914   0.891  0.00  0.00    +0.144 HD
ATOM     17  H   UNL     1      -5.520   6.477   0.848  0.00  0.00    +0.144 HD
ENDBRANCH   9  15
ENDBRANCH   4   6
BRANCH   2  18
ATOM     18  O   UNL     1      -1.656  -0.725  -3.799  0.00  0.00    -0.386 OA
ATOM     19  H   UNL     1      -2.595  -0.990  -3.709  0.00  0.00    +0.210 HD
ENDBRANCH   2  18
BRANCH   3  20
ATOM     20  O   UNL     1      -3.775   0.193  -2.640  0.00  0.00    -0.385 OA
ATOM     21  H   UNL     1      -4.520   0.623  -2.163  0.00  0.00    +0.210 HD
ENDBRANCH   3  20
BRANCH   1  22
ATOM     22  C   UNL     1       0.777   1.541  -3.753  0.00  0.00    +0.118 C 
BRANCH  22  24
ATOM     23  C   UNL     1       0.182   3.801  -4.455  0.00  0.00    +0.105 C 
ATOM     24  N   UNL     1       0.581   2.456  -4.900  0.00  0.00    -0.303 NA
BRANCH  24  25
ATOM     25  C   UNL     1       1.812   2.594  -5.706  0.00  0.00    +0.086 C 
BRANCH  25  26
ATOM     26  C   UNL     1       2.310   1.303  -6.383  0.00  0.00    +0.045 C 
BRANCH  26  27
ATOM     27  CA  UNL     1       3.551   1.527  -7.259  0.00  0.00    +0.162 C 
BRANCH  27  28
ATOM     28  N   UNL     1       4.666   2.143  -6.480  0.00  0.00    -0.318 NA
ATOM     29  H1  UNL     1       4.840   1.557  -5.660  0.00  0.00    +0.119 HD
ATOM     30  H2  UNL     1       5.525   2.053  -7.037  0.00  0.00    +0.119 HD
ENDBRANCH  27  28
BRANCH  27  31
ATOM     31  C   UNL     1       3.216   2.441  -8.448  0.00  0.00    +0.322 C 
ATOM     32  OXT UNL     1       2.630   2.095  -9.461  0.00  0.00    -0.249 OA
BRANCH  31  33
ATOM     33  O   UNL     1       3.634   3.715  -8.216  0.00  0.00    -0.480 OA
ATOM     34  H   UNL     1       4.084   3.703  -7.335  0.00  0.00    +0.295 HD
ENDBRANCH  31  33
ENDBRANCH  27  31
ENDBRANCH  26  27
ENDBRANCH  25  26
ENDBRANCH  24  25
ENDBRANCH  22  24
ENDBRANCH   1  22
TORSDOF 12
