REMARK  Name = 
REMARK  5 active torsions:
REMARK  status: ('A' for Active; 'I' for Inactive)
REMARK    1  A    between atoms: O_1  and  C_2
REMARK    2  A    between atoms: C_5  and  C_13
REMARK    3  A    between atoms: C_7  and  O_9
REMARK    4  A    between atoms: C_10  and  O_12
REMARK    5  A    between atoms: C_13  and  O_14
REMARK                            x       y       z     vdW  Elec       q    Type
REMARK                         _______ _______ _______ _____ _____    ______ ____
ROOT
ATOM      1  C   UNL     1       2.240  -0.242   0.041  0.00  0.00    +0.337 C 
ATOM      2  C   UNL     1       2.678   1.148  -0.474  0.00  0.00    +0.215 C 
ATOM      3  C   UNL     1       3.542   1.146  -1.746  0.00  0.00    +0.176 C 
ATOM      4  C   UNL     1       3.994  -0.186  -2.199  0.00  0.00    +0.060 C 
ATOM      5  C   UNL     1       3.621  -1.329  -1.614  0.00  0.00    +0.206 C 
ATOM      6  O   UNL     1       2.816  -1.420  -0.511  0.00  0.00    -0.454 OA
ENDROOT
BRANCH   1   7
ATOM      7  O   UNL     1       0.821  -0.366  -0.080  0.00  0.00    -0.356 OA
ATOM      8  H   UNL     1       0.532  -0.859   0.707  0.00  0.00    +0.214 HD
ENDBRANCH   1   7
BRANCH   2   9
ATOM      9  O   UNL     1       3.370   1.840   0.593  0.00  0.00    -0.383 OA
ATOM     10  H   UNL     1       4.090   2.334   0.142  0.00  0.00    +0.210 HD
ENDBRANCH   2   9
BRANCH   3  11
ATOM     11  O   UNL     1       4.692   1.976  -1.520  0.00  0.00    -0.385 OA
ATOM     12  H   UNL     1       5.291   1.876  -2.281  0.00  0.00    +0.210 HD
ENDBRANCH   3  11
BRANCH   5  13
ATOM     13  C   UNL     1       4.092  -2.615  -2.215  0.00  0.00    +0.372 C 
ATOM     14  O   UNL     1       4.839  -2.713  -3.173  0.00  0.00    -0.242 OA
BRANCH  13  15
ATOM     15  O   UNL     1       3.563  -3.674  -1.560  0.00  0.00    -0.475 OA
ATOM     16  H   UNL     1       2.976  -3.368  -0.837  0.00  0.00    +0.296 HD
ENDBRANCH  13  15
ENDBRANCH   5  13
TORSDOF 5
