REMARK  Name = 
REMARK  4 active torsions:
REMARK  status: ('A' for Active; 'I' for Inactive)
REMARK    1  A    between atoms: C_2  and  C_15
REMARK    2  A    between atoms: C_10  and  O_11
REMARK    3  A    between atoms: C_13  and  O_14
REMARK    4  A    between atoms: C_18  and  O_19
REMARK                            x       y       z     vdW  Elec       q    Type
REMARK                         _______ _______ _______ _____ _____    ______ ____
ROOT
ATOM      1  C   UNL     1       2.055  -0.106   0.085  0.00  0.00    +0.211 C 
ATOM      2  O   UNL     1       2.615   1.121   0.588  0.00  0.00    -0.483 OA
ATOM      3  C   UNL     1       3.976   1.076   0.778  0.00  0.00    +0.139 A 
ATOM      4  C   UNL     1       4.602   2.317   0.927  0.00  0.00    +0.092 A 
ATOM      5  C   UNL     1       5.977   2.367   1.133  0.00  0.00    +0.124 A 
ATOM      6  C   UNL     1       6.735   1.202   1.196  0.00  0.00    +0.091 A 
ATOM      7  C   UNL     1       6.108  -0.037   1.062  0.00  0.00    +0.134 A 
ATOM      8  C   UNL     1       4.724  -0.107   0.857  0.00  0.00    +0.101 A 
ATOM      9  C   UNL     1       3.984  -1.390   0.762  0.00  0.00    +0.174 C 
ATOM     10  O   UNL     1       4.522  -2.473   0.566  0.00  0.00    -0.292 OA
ATOM     11  C   UNL     1       2.499  -1.279   0.942  0.00  0.00    +0.129 C 
ENDROOT
BRANCH   1  12
ATOM     12  C   UNL     1       0.538  -0.019   0.071  0.00  0.00    -0.007 A 
ATOM     13  C   UNL     1      -0.188  -0.750  -0.886  0.00  0.00    +0.011 A 
ATOM     14  C   UNL     1      -1.584  -0.735  -0.885  0.00  0.00    +0.046 A 
ATOM     15  C   UNL     1      -2.264   0.005   0.074  0.00  0.00    +0.117 A 
ATOM     16  C   UNL     1      -1.569   0.741   1.028  0.00  0.00    +0.046 A 
ATOM     17  C   UNL     1      -0.172   0.725   1.028  0.00  0.00    +0.011 A 
BRANCH  15  18
ATOM     18  O   UNL     1      -3.626  -0.024   0.050  0.00  0.00    -0.507 OA
ATOM     19  H   UNL     1      -3.960   0.478   0.812  0.00  0.00    +0.292 HD
ENDBRANCH  15  18
ENDBRANCH   1  12
BRANCH   7  20
ATOM     20  O   UNL     1       6.859  -1.171   1.168  0.00  0.00    -0.506 OA
ATOM     21  H   UNL     1       7.799  -0.946   1.255  0.00  0.00    +0.292 HD
ENDBRANCH   7  20
BRANCH   5  22
ATOM     22  O   UNL     1       6.633   3.552   1.286  0.00  0.00    -0.507 OA
ATOM     23  H   UNL     1       5.991   4.280   1.231  0.00  0.00    +0.292 HD
ENDBRANCH   5  22
TORSDOF 4
