REMARK  Name = 
REMARK  8 active torsions:
REMARK  status: ('A' for Active; 'I' for Inactive)
REMARK    1  A    between atoms: C_1  and  C_2
REMARK    2  A    between atoms: C_3  and  O_4
REMARK    3  A    between atoms: C_5  and  C_6
REMARK    4  A    between atoms: C_8  and  C_9
REMARK    5  A    between atoms: C_9  and  O_10
REMARK    6  A    between atoms: O_10  and  P_11
REMARK    7  A    between atoms: P_11  and  O_12
REMARK    8  A    between atoms: P_11  and  O_13
REMARK                            x       y       z     vdW  Elec       q    Type
REMARK                         _______ _______ _______ _____ _____    ______ ____
ROOT
ATOM      1  C   UNL     1       0.731  -0.117   0.087  0.00  0.00    +0.127 C 
ATOM      2  C   UNL     1       2.215   0.072   0.081  0.00  0.00    +0.234 A 
ATOM      3  N   UNL     1       2.967  -1.104   0.085  0.00  0.00    -0.171 N 
ATOM      4  O   UNL     1       2.400  -2.247   0.089  0.00  0.00    -0.620 OA
ATOM      5  C   UNL     1       4.343  -1.044   0.080  0.00  0.00    +0.329 A 
ATOM      6  C   UNL     1       5.056   0.176   0.060  0.00  0.00    +0.057 A 
ATOM      7  C   UNL     1       4.302   1.360   0.101  0.00  0.00    +0.073 A 
ATOM      8  C   UNL     1       2.891   1.304   0.090  0.00  0.00    +0.196 A 
ENDROOT
BRANCH   7   9
ATOM      9  C   UNL     1       4.948   2.698   0.165  0.00  0.00    +0.263 C 
ATOM     10  O   UNL     1       6.158   2.836   0.307  0.00  0.00    -0.296 OA
ENDBRANCH   7   9
BRANCH   8  11
ATOM     11  O   UNL     1       2.212   2.496   0.095  0.00  0.00    -0.501 OA
ATOM     12  H   UNL     1       1.259   2.373  -0.047  0.00  0.00    +0.292 HD
ENDBRANCH   8  11
BRANCH   6  13
ATOM     13  C   UNL     1       6.566   0.124   0.031  0.00  0.00    +0.214 C 
BRANCH  13  14
ATOM     14  O   UNL     1       6.946  -1.098  -0.586  0.00  0.00    -0.282 OA
BRANCH  14  15
ATOM     15  P   UNL     1       8.652  -1.376  -0.651  0.00  0.00    +0.473 P 
ATOM     16  O   UNL     1      10.179  -1.625  -0.709  0.00  0.00    -0.228 OA
BRANCH  15  17
ATOM     17  O   UNL     1       8.345  -1.785  -2.202  0.00  0.00    -0.303 OA
ATOM     18  H   UNL     1       7.385  -1.890  -2.316  0.00  0.00    +0.222 HD
ENDBRANCH  15  17
BRANCH  15  19
ATOM     19  O   UNL     1       8.276  -2.813   0.035  0.00  0.00    -0.303 OA
ATOM     20  H   UNL     1       8.182  -2.742   1.000  0.00  0.00    +0.222 HD
ENDBRANCH  15  19
ENDBRANCH  14  15
ENDBRANCH  13  14
ENDBRANCH   6  13
TORSDOF 7
