REMARK  Name = 
REMARK  30 active torsions:
REMARK  status: ('A' for Active; 'I' for Inactive)
REMARK    1  A    between atoms: C_1  and  C_2
REMARK    2  A    between atoms: C_2  and  C_3
REMARK    3  A    between atoms: C_6  and  C_8
REMARK    4  A    between atoms: C_11  and  C_13
REMARK    5  A    between atoms: C_13  and  C_14
REMARK    6  A    between atoms: C_14  and  O_16
REMARK    7  A    between atoms: C_14  and  C_17
REMARK    8  A    between atoms: C_17  and  C_19
REMARK    9  A    between atoms: C_17  and  C_20
REMARK   10  A    between atoms: C_20  and  C_21
REMARK   11  A    between atoms: C_21  and  C_22
REMARK   12  A    between atoms: C_23  and  C_24
REMARK   13  A    between atoms: C_25  and  C_26
REMARK   14  A    between atoms: C_25  and  C_27
REMARK   15  A    between atoms: C_34  and  O_36
REMARK   16  A    between atoms: C_37  and  C_39
REMARK   17  A    between atoms: C_40  and  O_42
REMARK   18  A    between atoms: C_43  and  C_45
REMARK   19  A    between atoms: C_45  and  C_46
REMARK   20  A    between atoms: C_46  and  C_47
REMARK   21  A    between atoms: C_47  and  C_48
REMARK   22  A    between atoms: C_53  and  C_55
REMARK   23  A    between atoms: C_55  and  C_56
REMARK   24  A    between atoms: C_55  and  C_57
REMARK   25  A    between atoms: C_61  and  C_63
REMARK   26  A    between atoms: C_63  and  C_64
REMARK   27  A    between atoms: C_68  and  O_69
REMARK   28  A    between atoms: C_83  and  C_85
REMARK   29  A    between atoms: C_86  and  O_88
REMARK   30  A    between atoms: C_89  and  C_91
REMARK                            x       y       z     vdW  Elec       q    Type
REMARK                         _______ _______ _______ _____ _____    ______ ____
ROOT
ATOM      1  C   UNL     1       1.660   2.776   1.846  0.00  0.00    +0.206 C 
ATOM      2  O   UNL     1       3.009   2.235   0.195  0.00  0.00    -0.455 OA
ATOM      3  C   UNL     1       4.127   2.153  -1.434  0.00  0.00    +0.326 C 
ATOM      4  O   UNL     1       4.331   3.402  -1.613  0.00  0.00    -0.249 OA
ATOM      5  C   UNL     1       5.205   1.360  -3.201  0.00  0.00    +0.181 C 
ATOM      6  N   UNL     1       5.348   1.959  -5.217  0.00  0.00    -0.224 NA
ATOM      7  H   UNL     1       6.153   2.616  -5.073  0.00  0.00    +0.145 HD
ATOM      8  N   UNL     1       6.107   1.345  -6.830  0.00  0.00    -0.235 N 
ATOM      9  C   UNL     1       7.099   0.244  -7.270  0.00  0.00    +0.127 C 
ATOM     10  C   UNL     1       7.585  -0.283  -5.932  0.00  0.00    +0.023 C 
ATOM     11  C   UNL     1       5.349   1.158  -8.110  0.00  0.00    +0.250 C 
ATOM     12  O   UNL     1       5.300   1.910  -9.079  0.00  0.00    -0.272 OA
ATOM     13  C   UNL     1       4.504  -0.200  -7.815  0.00  0.00    +0.165 C 
ATOM     14  N   UNL     1       3.744   0.754  -7.040  0.00  0.00    -0.302 N 
ATOM     15  H   UNL     1       4.275   1.639  -6.865  0.00  0.00    +0.150 HD
ATOM     16  C   UNL     1       3.274   0.679  -5.774  0.00  0.00    +0.234 C 
ATOM     17  O   UNL     1       3.401  -0.251  -4.980  0.00  0.00    -0.274 OA
ATOM     18  C   UNL     1       2.703   2.032  -5.334  0.00  0.00    +0.161 C 
ATOM     19  N   UNL     1       2.686   1.780  -3.883  0.00  0.00    -0.303 N 
ATOM     20  H   UNL     1       2.879   0.791  -3.732  0.00  0.00    +0.149 HD
ATOM     21  C   UNL     1       1.767   2.275  -3.006  0.00  0.00    +0.219 C 
ATOM     22  O   UNL     1       1.462   3.460  -3.089  0.00  0.00    -0.275 OA
ATOM     23  C   UNL     1       1.273   1.311  -1.857  0.00  0.00    +0.104 C 
ATOM     24  C   UNL     1      -0.112   1.761  -1.266  0.00  0.00    +0.132 C 
ATOM     25  C   UNL     1      -0.614   1.134   0.082  0.00  0.00    +0.048 C 
ATOM     26  C   UNL     1      -0.123   0.049   1.106  0.00  0.00    +0.013 C 
ATOM     27  C   UNL     1      -2.020   1.818   0.514  0.00  0.00    +0.143 C 
ATOM     28  C   UNL     1      -2.859   0.991   1.507  0.00  0.00    +0.004 C 
ATOM     29  C   UNL     1      -3.612   1.476   2.513  0.00  0.00    -0.002 C 
ATOM     30  C   UNL     1      -2.800   1.351   3.762  0.00  0.00    -0.004 C 
ATOM     31  C   UNL     1      -1.707   2.146   3.588  0.00  0.00    -0.023 C 
ATOM     32  C   UNL     1       6.784   0.420  -4.270  0.00  0.00    +0.033 C 
ATOM     33  C   UNL     1      -0.004   1.987   2.661  0.00  0.00    +0.076 C 
ENDROOT
BRANCH   1  35
ATOM     34  C   UNL     1       0.273   5.010   3.911  0.00  0.00    +0.002 C 
ATOM     35  C   UNL     1       1.301   3.779   3.663  0.00  0.00    -0.032 C 
ATOM     36  C   UNL     1       0.248   3.139   5.196  0.00  0.00    +0.043 C 
BRANCH  34  38
ATOM     37  C   UNL     1      -1.881   6.519   4.488  0.00  0.00    -0.027 C 
ATOM     38  C   UNL     1      -1.154   5.470   4.898  0.00  0.00    -0.004 C 
BRANCH  37  39
ATOM     39  C   UNL     1      -3.392   6.582   4.514  0.00  0.00    +0.027 C 
BRANCH  39  40
ATOM     40  C   UNL     1      -4.019   7.862   5.055  0.00  0.00    +0.010 C 
BRANCH  40  41
ATOM     41  C   UNL     1      -5.428   8.087   4.447  0.00  0.00    +0.015 C 
ATOM     42  C   UNL     1      -6.459   7.115   5.004  0.00  0.00    +0.010 C 
BRANCH  41  43
ATOM     43  C   UNL     1      -5.386   8.137   2.883  0.00  0.00    +0.120 C 
BRANCH  43  44
ATOM     44  O   UNL     1      -6.669   8.536   2.416  0.00  0.00    -0.391 OA
ATOM     45  H   UNL     1      -7.258   7.762   2.503  0.00  0.00    +0.210 HD
ENDBRANCH  43  44
BRANCH  43  46
ATOM     46  C   UNL     1      -4.316   9.171   2.546  0.00  0.00    +0.063 C 
BRANCH  46  58
ATOM     47  C   UNL     1      -2.172  12.876   4.111  0.00  0.00    +0.075 C 
ATOM     48  C   UNL     1      -1.764  13.106   2.636  0.00  0.00    +0.218 C 
ATOM     49  O   UNL     1      -0.606  13.304   2.278  0.00  0.00    -0.275 OA
ATOM     50  N   UNL     1      -2.822  13.251   1.750  0.00  0.00    -0.287 N 
ATOM     51  H   UNL     1      -2.576  13.725   0.894  0.00  0.00    +0.151 HD
ATOM     52  C   UNL     1      -3.936  12.277   1.770  0.00  0.00    +0.144 C 
ATOM     53  C   UNL     1      -5.097  12.602   0.769  0.00  0.00    +0.065 C 
ATOM     54  C   UNL     1      -4.508  13.043  -0.584  0.00  0.00    +0.015 C 
ATOM     55  C   UNL     1      -6.072  11.386   0.479  0.00  0.00    +0.127 C 
ATOM     56  C   UNL     1      -5.339  10.050   0.274  0.00  0.00    +0.044 C 
ATOM     57  C   UNL     1      -4.845   9.942  -1.169  0.00  0.00    +0.013 C 
ATOM     58  C   UNL     1      -4.137   9.844   1.201  0.00  0.00    +0.129 C 
ATOM     59  O   UNL     1      -3.331  11.032   1.372  0.00  0.00    -0.352 OA
ATOM     60  C   UNL     1      -4.387  12.387   3.253  0.00  0.00    +0.037 C 
ATOM     61  C   UNL     1      -5.725  11.792   3.529  0.00  0.00    +0.012 C 
ATOM     62  C   UNL     1      -3.276  11.849   4.163  0.00  0.00    +0.020 C 
BRANCH  47  64
ATOM     63  C   UNL     1      -1.117  12.102   6.415  0.00  0.00    +0.004 C 
ATOM     64  C   UNL     1      -0.955  12.513   4.957  0.00  0.00    +0.009 C 
ENDBRANCH  47  64
BRANCH  55  65
ATOM     65  O   UNL     1      -7.188  11.228   1.377  0.00  0.00    -0.391 OA
ATOM     66  H   UNL     1      -7.120  10.369   1.856  0.00  0.00    +0.210 HD
ENDBRANCH  55  65
ENDBRANCH  46  58
ENDBRANCH  43  46
ENDBRANCH  41  43
ENDBRANCH  40  41
ENDBRANCH  39  40
ENDBRANCH  37  39
ENDBRANCH  34  38
ENDBRANCH   1  35
BRANCH  18  67
ATOM     67  C   UNL     1       2.938   3.167  -6.439  0.00  0.00    +0.012 C 
ATOM     68  C   UNL     1       2.227   2.658  -7.789  0.00  0.00    +0.009 C 
ATOM     69  C   UNL     1       2.311   4.458  -6.021  0.00  0.00    +0.009 C 
ENDBRANCH  18  67
BRANCH  27  70
ATOM     70  O   UNL     1      -1.703   3.157   0.966  0.00  0.00    -0.387 OA
ATOM     71  H   UNL     1      -2.171   3.377   1.789  0.00  0.00    +0.210 HD
ENDBRANCH  27  70
BRANCH  24  72
ATOM     72  O   UNL     1       0.084   3.197  -0.898  0.00  0.00    -0.391 OA
ATOM     73  H   UNL     1      -0.488   3.448  -0.138  0.00  0.00    +0.210 HD
ENDBRANCH  24  72
BRANCH  13  74
ATOM     74  C   UNL     1       4.853  -1.354  -6.832  0.00  0.00    +0.067 C 
BRANCH  74  75
ATOM     75  C   UNL     1       5.420  -2.681  -7.261  0.00  0.00    -0.042 A 
ATOM     76  C   UNL     1       6.482  -3.356  -6.612  0.00  0.00    +0.049 A 
ATOM     77  C   UNL     1       6.652  -4.715  -6.772  0.00  0.00    +0.117 A 
ATOM     78  C   UNL     1       5.764  -5.417  -7.555  0.00  0.00    +0.045 A 
ATOM     79  C   UNL     1       4.831  -4.735  -8.333  0.00  0.00    +0.004 A 
ATOM     80  C   UNL     1       4.642  -3.375  -8.173  0.00  0.00    +0.004 A 
BRANCH  77  81
ATOM     81  O   UNL     1       7.635  -5.341  -6.069  0.00  0.00    -0.507 OA
ATOM     82  H   UNL     1       7.402  -6.283  -6.014  0.00  0.00    +0.292 HD
ENDBRANCH  77  81
ENDBRANCH  74  75
ENDBRANCH  13  74
BRANCH  23  83
ATOM     83  C   UNL     1       2.047  -0.040  -1.544  0.00  0.00    +0.023 C 
BRANCH  83  84
ATOM     84  C   UNL     1       1.063  -1.138  -1.502  0.00  0.00    +0.075 C 
BRANCH  84  85
ATOM     85  C   UNL     1       1.510  -2.545  -1.273  0.00  0.00    +0.130 C 
ATOM     86  O   UNL     1       2.491  -2.878  -0.619  0.00  0.00    -0.298 OA
ATOM     87  C   UNL     1       0.516  -3.518  -1.825  0.00  0.00    +0.086 C 
ENDBRANCH  84  85
ENDBRANCH  83  84
ENDBRANCH  23  83
TORSDOF 20
