REMARK  Name = 
REMARK  11 active torsions:
REMARK  status: ('A' for Active; 'I' for Inactive)
REMARK    1  A    between atoms: C_2  and  C_3
REMARK    2  A    between atoms: C_2  and  O_4
REMARK    3  A    between atoms: C_2  and  C_5
REMARK    4  A    between atoms: C_5  and  N_7
REMARK    5  A    between atoms: C_5  and  C_8
REMARK    6  A    between atoms: C_8  and  O_10
REMARK    7  A    between atoms: C_8  and  C_11
REMARK    8  A    between atoms: C_12  and  C_13
REMARK    9  A    between atoms: C_21  and  C_22
REMARK   10  A    between atoms: C_23  and  O_24
REMARK   11  A    between atoms: O_24  and  C_25
REMARK                            x       y       z     vdW  Elec       q    Type
REMARK                         _______ _______ _______ _____ _____    ______ ____
ROOT
ATOM      1  C   UNL     1       5.453  -4.852   2.672  0.00  0.00    +0.070 A 
ATOM      2  C   UNL     1       6.364  -4.824   3.716  0.00  0.00    +0.027 A 
ATOM      3  C   UNL     1       7.123  -3.749   4.382  0.00  0.00    +0.049 C 
ATOM      4  C   UNL     1       8.010  -4.414   5.402  0.00  0.00    +0.249 C 
ATOM      5  N   UNL     1       7.681  -5.761   5.336  0.00  0.00    -0.281 N 
ATOM      6  H   UNL     1       8.131  -6.453   5.916  0.00  0.00    +0.155 HD
ATOM      7  O   UNL     1       8.859  -3.914   6.111  0.00  0.00    -0.270 OA
ATOM      8  C   UNL     1       6.984  -2.445   4.110  0.00  0.00    +0.043 C 
ATOM      9  C   UNL     1       6.732  -6.014   4.351  0.00  0.00    +0.043 A 
ATOM     10  C   UNL     1       6.212  -7.246   3.997  0.00  0.00    +0.027 A 
ATOM     11  C   UNL     1       5.298  -7.280   2.941  0.00  0.00    +0.041 A 
ATOM     12  C   UNL     1       4.932  -6.093   2.287  0.00  0.00    +0.139 A 
ATOM     13  F   UNL     1       4.060  -6.176   1.269  0.00  0.00    -0.204 F 
ENDROOT
BRANCH   8  14
ATOM     14  C   UNL     1       7.626  -1.384   4.771  0.00  0.00    +0.082 A 
ATOM     15  N   UNL     1       8.763  -0.856   4.217  0.00  0.00    -0.358 N 
ATOM     16  H   UNL     1       9.233  -1.219   3.397  0.00  0.00    +0.165 HD
ATOM     17  C   UNL     1       9.114   0.281   4.899  0.00  0.00    +0.087 A 
ATOM     18  C   UNL     1       8.197   0.471   5.913  0.00  0.00    +0.065 A 
ATOM     19  C   UNL     1       7.254  -0.579   5.823  0.00  0.00    +0.145 A 
BRANCH  19  20
ATOM     20  O   UNL     1       6.112  -0.816   6.507  0.00  0.00    -0.493 OA
ATOM     21  C   UNL     1       6.084  -0.214   7.791  0.00  0.00    +0.277 C 
ENDBRANCH  19  20
ENDBRANCH   8  14
BRANCH   1  23
ATOM     22  C   UNL     1       4.607  -2.571   1.441  0.00  0.00    -0.064 C 
ATOM     23  C   UNL     1       5.042  -3.656   2.020  0.00  0.00    -0.060 C 
BRANCH  22  24
ATOM     24  C   UNL     1       4.101  -1.307   0.765  0.00  0.00    +0.208 C 
BRANCH  24  25
ATOM     25  O   UNL     1       4.529  -0.191   1.542  0.00  0.00    -0.378 OA
ATOM     26  H   UNL     1       4.158  -0.322   2.433  0.00  0.00    +0.211 HD
ENDBRANCH  24  25
BRANCH  24  27
ATOM     27  C   UNL     1       4.693  -1.230  -0.682  0.00  0.00    +0.120 C 
BRANCH  27  28
ATOM     28  N   UNL     1       4.251  -2.393  -1.499  0.00  0.00    -0.322 NA
ATOM     29  H   UNL     1       3.234  -2.316  -1.596  0.00  0.00    +0.119 HD
ATOM     30  H   UNL     1       4.605  -2.297  -2.448  0.00  0.00    +0.119 HD
ENDBRANCH  27  28
BRANCH  27  31
ATOM     31  C   UNL     1       4.332   0.111  -1.380  0.00  0.00    +0.132 C 
ATOM     32  C   UNL     1       5.128   0.336  -2.668  0.00  0.00    +0.039 C 
BRANCH  31  33
ATOM     33  O   UNL     1       2.936   0.118  -1.707  0.00  0.00    -0.390 OA
ATOM     34  H   UNL     1       2.749   0.973  -2.134  0.00  0.00    +0.210 HD
ENDBRANCH  31  33
ENDBRANCH  27  31
ENDBRANCH  24  27
ENDBRANCH  22  24
ENDBRANCH   1  23
TORSDOF 9
