REMARK  Name = 
REMARK  10 active torsions:
REMARK  status: ('A' for Active; 'I' for Inactive)
REMARK    1  A    between atoms: C_1  and  C_2
REMARK    2  A    between atoms: C_5  and  C_6
REMARK    3  A    between atoms: C_6  and  O_7
REMARK    4  A    between atoms: O_7  and  P_8
REMARK    5  A    between atoms: P_8  and  O_9
REMARK    6  A    between atoms: P_8  and  O_10
REMARK    7  A    between atoms: C_12  and  C_13
REMARK    8  A    between atoms: C_13  and  N_14
REMARK    9  A    between atoms: N_14  and  C_15
REMARK   10  A    between atoms: C_22  and  O_23
REMARK                            x       y       z     vdW  Elec       q    Type
REMARK                         _______ _______ _______ _____ _____    ______ ____
ROOT
ATOM      1  C   UNL     1       9.005  -2.622  -4.876  0.00  0.00    +0.069 C 
ATOM      2  C   UNL     1       8.686  -3.979  -4.324  0.00  0.00    +0.080 A 
ATOM      3  C   UNL     1       7.883  -4.135  -3.193  0.00  0.00    +0.142 A 
ATOM      4  C   UNL     1       7.616  -5.423  -2.688  0.00  0.00    +0.016 A 
ATOM      5  C   UNL     1       8.188  -6.528  -3.353  0.00  0.00    +0.005 A 
ATOM      6  C   UNL     1       8.954  -6.265  -4.493  0.00  0.00    +0.117 A 
ATOM      7  N   UNL     1       9.215  -5.034  -4.984  0.00  0.00    -0.256 NA
ENDROOT
BRANCH   3   8
ATOM      8  O   UNL     1       7.372  -3.018  -2.585  0.00  0.00    -0.505 OA
ATOM      9  H   UNL     1       6.623  -3.302  -2.026  0.00  0.00    +0.292 HD
ENDBRANCH   3   8
BRANCH   4  10
ATOM     10  C   UNL     1       6.811  -5.586  -1.420  0.00  0.00    +0.121 C 
BRANCH  10  11
ATOM     11  N   UNL     1       5.449  -5.040  -1.546  0.00  0.00    -0.300 NA
ATOM     12  H   UNL     1       4.996  -5.524  -2.330  0.00  0.00    +0.123 HD
BRANCH  11  13
ATOM     13  C   UNL     1       4.617  -5.336  -0.334  0.00  0.00    +0.171 C 
ATOM     14  C   UNL     1       4.606  -6.813   0.013  0.00  0.00    +0.255 C 
ATOM     15  O   UNL     1       4.153  -7.717  -0.679  0.00  0.00    -0.272 OA
ATOM     16  N   UNL     1       5.363  -6.983   1.146  0.00  0.00    -0.193 N 
ATOM     17  H   UNL     1       5.645  -7.865   1.555  0.00  0.00    +0.182 HD
ATOM     18  O   UNL     1       5.900  -5.765   1.623  0.00  0.00    -0.278 OA
ATOM     19  C   UNL     1       5.123  -4.743   0.981  0.00  0.00    +0.218 C 
ENDBRANCH  11  13
ENDBRANCH  10  11
ENDBRANCH   4  10
BRANCH   5  20
ATOM     20  C   UNL     1       7.988  -7.963  -2.931  0.00  0.00    +0.209 C 
BRANCH  20  21
ATOM     21  O   UNL     1       9.151  -8.715  -3.227  0.00  0.00    -0.282 OA
BRANCH  21  22
ATOM     22  P   UNL     1       9.018 -10.377  -2.765  0.00  0.00    +0.473 P 
ATOM     23  O   UNL     1       8.899 -11.864  -2.352  0.00  0.00    -0.228 OA
BRANCH  22  24
ATOM     24  O   UNL     1      10.651 -10.332  -2.634  0.00  0.00    -0.303 OA
ATOM     25  H   UNL     1      10.934 -10.068  -1.741  0.00  0.00    +0.222 HD
ENDBRANCH  22  24
BRANCH  22  26
ATOM     26  O   UNL     1       9.013 -10.631  -4.380  0.00  0.00    -0.303 OA
ATOM     27  H   UNL     1       9.892 -10.363  -4.705  0.00  0.00    +0.222 HD
ENDBRANCH  22  26
ENDBRANCH  21  22
ENDBRANCH  20  21
ENDBRANCH   5  20
TORSDOF 9
