REMARK  Name = 
REMARK  7 active torsions:
REMARK  status: ('A' for Active; 'I' for Inactive)
REMARK    1  A    between atoms: N_1  and  C_2
REMARK    2  A    between atoms: C_2  and  C_3
REMARK    3  A    between atoms: C_2  and  C_5
REMARK    4  A    between atoms: C_2  and  C_7
REMARK    5  A    between atoms: C_3  and  O_4
REMARK    6  A    between atoms: C_5  and  O_6
REMARK    7  A    between atoms: C_7  and  O_8
REMARK                            x       y       z     vdW  Elec       q    Type
REMARK                         _______ _______ _______ _____ _____    ______ ____
ROOT
ATOM      1  C   UNL     1       2.594  -0.011   0.023  0.00  0.00    +0.086 C 
ENDROOT
BRANCH   1   2
ATOM      2  N   UNL     1       1.111   0.151  -0.032  0.00  0.00    -0.319 NA
ATOM      3  H   UNL     1       0.777  -0.203  -0.927  0.00  0.00    +0.119 HD
ATOM      4  H   UNL     1       0.682  -0.424   0.695  0.00  0.00    +0.119 HD
ENDBRANCH   1   2
BRANCH   1   5
ATOM      5  C   UNL     1       3.193   0.991  -0.997  0.00  0.00    +0.182 C 
BRANCH   5   6
ATOM      6  O   UNL     1       2.695   2.309  -0.744  0.00  0.00    -0.393 OA
ATOM      7  H   UNL     1       1.724   2.221  -0.815  0.00  0.00    +0.209 HD
ENDBRANCH   5   6
ENDBRANCH   1   5
BRANCH   1   8
ATOM      8  C   UNL     1       3.018  -1.452  -0.351  0.00  0.00    +0.182 C 
BRANCH   8   9
ATOM      9  O   UNL     1       2.509  -1.819  -1.631  0.00  0.00    -0.393 OA
ATOM     10  H   UNL     1       1.643  -2.235  -1.490  0.00  0.00    +0.209 HD
ENDBRANCH   8   9
ENDBRANCH   1   8
BRANCH   1  11
ATOM     11  C   UNL     1       3.101   0.289   1.462  0.00  0.00    +0.182 C 
BRANCH  11  12
ATOM     12  O   UNL     1       2.590   1.506   1.998  0.00  0.00    -0.393 OA
ATOM     13  H   UNL     1       2.271   2.031   1.236  0.00  0.00    +0.209 HD
ENDBRANCH  11  12
ENDBRANCH   1  11
TORSDOF 7
