REMARK  Name = 
REMARK  12 active torsions:
REMARK  status: ('A' for Active; 'I' for Inactive)
REMARK    1  A    between atoms: O_1  and  C_2
REMARK    2  A    between atoms: C_4  and  C_6
REMARK    3  A    between atoms: C_6  and  O_7
REMARK    4  A    between atoms: O_7  and  P_8
REMARK    5  A    between atoms: P_8  and  O_9
REMARK    6  A    between atoms: P_8  and  O_10
REMARK    7  A    between atoms: C_13  and  N_18
REMARK    8  A    between atoms: C_15  and  O_17
REMARK    9  A    between atoms: C_27  and  S_28
REMARK   10  A    between atoms: S_28  and  P_29
REMARK   11  A    between atoms: P_29  and  O_30
REMARK   12  A    between atoms: P_29  and  O_31
REMARK                            x       y       z     vdW  Elec       q    Type
REMARK                         _______ _______ _______ _____ _____    ______ ____
ROOT
ATOM      1  C   UNL     1       2.379  -0.076  -0.102  0.00  0.00    +0.178 C 
ATOM      2  C   UNL     1       2.926  -1.349   0.539  0.00  0.00    +0.195 C 
ATOM      3  C   UNL     1       4.186  -0.867   1.273  0.00  0.00    +0.253 C 
ATOM      4  O   UNL     1       4.275   0.561   1.128  0.00  0.00    -0.346 OA
ATOM      5  C   UNL     1       2.972   1.050   0.744  0.00  0.00    +0.178 C 
ENDROOT
BRANCH   3   6
ATOM      6  N   UNL     1       5.399  -1.464   0.754  0.00  0.00    -0.285 N 
ATOM      7  C   UNL     1       5.937  -2.661   1.167  0.00  0.00    +0.175 A 
ATOM      8  N   UNL     1       5.490  -3.467   2.145  0.00  0.00    -0.173 NA
ATOM      9  C   UNL     1       6.258  -4.562   2.249  0.00  0.00    +0.430 A 
ATOM     10  N   UNL     1       7.316  -4.848   1.481  0.00  0.00    -0.187 N 
ATOM     11  C   UNL     1       7.770  -4.049   0.514  0.00  0.00    +0.282 A 
ATOM     12  H   UNL     1       7.836  -5.712   1.640  0.00  0.00    +0.455 HD
ATOM     13  C   UNL     1       7.026  -2.872   0.336  0.00  0.00    +0.187 A 
ATOM     14  N   UNL     1       7.167  -1.823  -0.534  0.00  0.00    -0.227 NA
ATOM     15  C   UNL     1       6.186  -0.991  -0.254  0.00  0.00    +0.204 A 
BRANCH  11  16
ATOM     16  S   UNL     1       9.125  -4.506  -0.470  0.00  0.00    +0.066 S 
BRANCH  16  17
ATOM     17  P   UNL     1      10.209  -2.777  -0.128  0.00  0.00    +0.396 P 
ATOM     18  O   UNL     1      10.000  -2.277   1.271  0.00  0.00    -0.246 OA
BRANCH  17  19
ATOM     19  O   UNL     1       9.964  -1.629  -1.210  0.00  0.00    -0.316 OA
ATOM     20  H   UNL     1      10.207  -0.731  -0.921  0.00  0.00    +0.221 HD
ENDBRANCH  17  19
BRANCH  17  21
ATOM     21  O   UNL     1      11.763  -3.101  -0.337  0.00  0.00    -0.316 OA
ATOM     22  H   UNL     1      12.293  -2.970   0.472  0.00  0.00    +0.221 HD
ENDBRANCH  17  21
ENDBRANCH  16  17
ENDBRANCH  11  16
ENDBRANCH   3   6
BRANCH   1  23
ATOM     23  O   UNL     1       2.871  -0.012  -1.446  0.00  0.00    -0.386 OA
ATOM     24  H   UNL     1       3.663   0.553  -1.485  0.00  0.00    +0.210 HD
ENDBRANCH   1  23
BRANCH   2  25
ATOM     25  O   UNL     1       2.035  -1.965   1.474  0.00  0.00    -0.385 OA
ATOM     26  H   UNL     1       1.295  -1.375   1.693  0.00  0.00    +0.210 HD
ENDBRANCH   2  25
BRANCH   5  27
ATOM     27  C   UNL     1       2.143   1.363   1.992  0.00  0.00    +0.206 C 
BRANCH  27  28
ATOM     28  O   UNL     1       2.745   2.443   2.702  0.00  0.00    -0.284 OA
BRANCH  28  29
ATOM     29  P   UNL     1       1.880   2.835   4.149  0.00  0.00    +0.472 P 
ATOM     30  O   UNL     1       1.107   3.186   5.444  0.00  0.00    -0.228 OA
BRANCH  29  31
ATOM     31  O   UNL     1       0.933   3.751   3.180  0.00  0.00    -0.303 OA
ATOM     32  H   UNL     1       1.346   4.635   3.152  0.00  0.00    +0.222 HD
ENDBRANCH  29  31
BRANCH  29  33
ATOM     33  O   UNL     1       2.999   4.009   4.360  0.00  0.00    -0.303 OA
ATOM     34  H   UNL     1       3.353   3.968   5.269  0.00  0.00    +0.222 HD
ENDBRANCH  29  33
ENDBRANCH  28  29
ENDBRANCH  27  28
ENDBRANCH   5  27
TORSDOF 12
