REMARK  Name = 
REMARK  11 active torsions:
REMARK  status: ('A' for Active; 'I' for Inactive)
REMARK    1  A    between atoms: C_1  and  C_2
REMARK    2  A    between atoms: C_2  and  N_4
REMARK    3  A    between atoms: C_2  and  C_18
REMARK    4  A    between atoms: C_5  and  C_7
REMARK    5  A    between atoms: C_7  and  C_9
REMARK    6  A    between atoms: C_7  and  N_10
REMARK    7  A    between atoms: C_11  and  O_13
REMARK    8  A    between atoms: O_13  and  C_14
REMARK    9  A    between atoms: C_14  and  C_15
REMARK   10  A    between atoms: C_14  and  C_16
REMARK   11  A    between atoms: C_14  and  C_17
REMARK                            x       y       z     vdW  Elec       q    Type
REMARK                         _______ _______ _______ _____ _____    ______ ____
ROOT
ATOM      1  N   UNL     1       1.421   0.730  -2.255  0.00  0.00    -0.303 N 
ATOM      2  H   UNL     1       1.002   1.479  -2.803  0.00  0.00    +0.149 HD
ATOM      3  C   UNL     1       2.645   0.227  -2.648  0.00  0.00    +0.234 C 
ATOM      4  O   UNL     1       3.127  -0.800  -2.177  0.00  0.00    -0.274 OA
ENDROOT
BRANCH   1   6
ATOM      5  C   UNL     1       0.387   1.104  -0.051  0.00  0.00    +0.038 C 
ATOM      6  C   UNL     1       0.615   0.118  -1.192  0.00  0.00    +0.156 C 
BRANCH   6   7
ATOM      7  C   UNL     1      -0.735  -0.397  -1.731  0.00  0.00    +0.231 C 
ATOM      8  O   UNL     1      -1.732  -0.573  -1.037  0.00  0.00    -0.274 OA
ATOM      9  N   UNL     1      -0.733  -0.796  -3.037  0.00  0.00    -0.328 N 
ATOM     10  H   UNL     1      -1.589  -1.164  -3.429  0.00  0.00    +0.145 HD
ATOM     11  H   UNL     1       0.074  -0.654  -3.628  0.00  0.00    +0.145 HD
ENDBRANCH   6   7
ENDBRANCH   1   6
BRANCH   3  12
ATOM     12  C   UNL     1       3.304   1.001  -3.811  0.00  0.00    +0.159 C 
ATOM     13  C   UNL     1       4.822   0.929  -3.730  0.00  0.00    +0.038 C 
BRANCH  12  14
ATOM     14  N   UNL     1       2.826   0.470  -5.082  0.00  0.00    -0.270 N 
ATOM     15  H   UNL     1       3.219  -0.378  -5.467  0.00  0.00    +0.153 HD
ATOM     16  C   UNL     1       1.687   0.952  -5.652  0.00  0.00    +0.401 C 
ATOM     17  O   UNL     1       1.012   1.833  -5.132  0.00  0.00    -0.226 OA
BRANCH  16  18
ATOM     18  O   UNL     1       1.412   0.305  -6.809  0.00  0.00    -0.445 OA
BRANCH  18  19
ATOM     19  C   UNL     1       0.249   0.708  -7.587  0.00  0.00    +0.107 C 
ATOM     20  C   UNL     1      -1.045   0.511  -6.788  0.00  0.00    +0.055 C 
ATOM     21  C   UNL     1       0.194  -0.228  -8.809  0.00  0.00    +0.055 C 
ATOM     22  C   UNL     1       0.402   2.146  -8.103  0.00  0.00    +0.055 C 
ENDBRANCH  18  19
ENDBRANCH  16  18
ENDBRANCH  12  14
ENDBRANCH   3  12
TORSDOF 6
