REMARK  Name = 
REMARK  6 active torsions:
REMARK  status: ('A' for Active; 'I' for Inactive)
REMARK    1  A    between atoms: O_1  and  C_2
REMARK    2  A    between atoms: C_2  and  C_4
REMARK    3  A    between atoms: C_4  and  C_5
REMARK    4  A    between atoms: C_9  and  O_10
REMARK    5  A    between atoms: O_10  and  C_11
REMARK    6  A    between atoms: C_14  and  O_15
REMARK                            x       y       z     vdW  Elec       q    Type
REMARK                         _______ _______ _______ _____ _____    ______ ____
ROOT
ATOM      1  C   UNL     1       4.598  -0.516   0.749  0.00  0.00    -0.035 A 
ATOM      2  C   UNL     1       5.250  -1.647   0.245  0.00  0.00    +0.022 A 
ATOM      3  C   UNL     1       6.609  -1.604  -0.114  0.00  0.00    +0.057 A 
ATOM      4  I   UNL     1       7.219  -3.230  -1.330  0.00  0.00    -0.040 I 
ATOM      5  C   UNL     1       7.383  -0.465   0.166  0.00  0.00    +0.155 A 
ATOM      6  C   UNL     1       6.706   0.679   0.636  0.00  0.00    +0.057 A 
ATOM      7  I   UNL     1       7.678   2.544   0.833  0.00  0.00    -0.040 I 
ATOM      8  C   UNL     1       5.331   0.661   0.912  0.00  0.00    +0.022 A 
ENDROOT
BRANCH   1   9
ATOM      9  C   UNL     1       3.104  -0.538   0.972  0.00  0.00    +0.155 C 
BRANCH   9  10
ATOM     10  C   UNL     1       2.305  -0.389  -0.305  0.00  0.00    +0.309 C 
ATOM     11  O   UNL     1       2.762  -0.243  -1.428  0.00  0.00    -0.251 OA
BRANCH  10  12
ATOM     12  O   UNL     1       0.966  -0.449  -0.100  0.00  0.00    -0.480 OA
ATOM     13  H   UNL     1       0.705  -0.579   0.830  0.00  0.00    +0.295 HD
ENDBRANCH  10  12
ENDBRANCH   9  10
ENDBRANCH   1   9
BRANCH   5  14
ATOM     14  O   UNL     1       8.720  -0.286  -0.104  0.00  0.00    -0.454 OA
BRANCH  14  15
ATOM     15  C   UNL     1       9.658  -1.264   0.115  0.00  0.00    +0.130 A 
ATOM     16  C   UNL     1       9.567  -2.301   1.044  0.00  0.00    +0.064 A 
ATOM     17  C   UNL     1      10.503  -3.343   1.001  0.00  0.00    +0.058 A 
ATOM     18  I   UNL     1      10.181  -5.011   2.225  0.00  0.00    -0.040 I 
ATOM     19  C   UNL     1      11.568  -3.297   0.094  0.00  0.00    +0.130 A 
ATOM     20  C   UNL     1      11.734  -2.189  -0.732  0.00  0.00    +0.050 A 
ATOM     21  C   UNL     1      10.778  -1.176  -0.718  0.00  0.00    +0.050 A 
BRANCH  19  22
ATOM     22  O   UNL     1      12.443  -4.341  -0.011  0.00  0.00    -0.506 OA
ATOM     23  H   UNL     1      12.960  -4.238  -0.827  0.00  0.00    +0.292 HD
ENDBRANCH  19  22
ENDBRANCH  14  15
ENDBRANCH   5  14
TORSDOF 6
