REMARK  Name = 
REMARK  14 active torsions:
REMARK  status: ('A' for Active; 'I' for Inactive)
REMARK    1  A    between atoms: C_1  and  C_2
REMARK    2  A    between atoms: C_4  and  C_5
REMARK    3  A    between atoms: C_13  and  C_14
REMARK    4  A    between atoms: C_14  and  C_15
REMARK    5  A    between atoms: C_15  and  C_16
REMARK    6  A    between atoms: C_16  and  O_17
REMARK    7  A    between atoms: C_19  and  C_20
REMARK    8  A    between atoms: C_31  and  C_32
REMARK    9  A    between atoms: C_34  and  C_35
REMARK   10  A    between atoms: C_36  and  C_37
REMARK   11  A    between atoms: C_37  and  C_38
REMARK   12  A    between atoms: C_38  and  C_39
REMARK   13  A    between atoms: C_39  and  O_40
REMARK   14  A    between atoms: C_42  and  C_43
REMARK                            x       y       z     vdW  Elec       q    Type
REMARK                         _______ _______ _______ _____ _____    ______ ____
ROOT
ATOM      1  C   UNL     1      12.212  -2.516  -7.556  0.00  0.00    +0.000 C 
ATOM      2  C   UNL     1      10.793  -2.634  -6.713  0.00  0.00    +0.000 C 
ATOM      3  C   UNL     1       9.250  -3.038  -6.351  0.00  0.00    +0.000 A 
ATOM      4  C   UNL     1       7.608  -3.812  -6.451  0.00  0.00    +0.000 A 
ATOM      5  N   UNL     1       6.904  -2.705  -6.204  0.00  0.00    +0.000 N 
ATOM      6 FE   UNL     1       5.034  -2.443  -7.222  0.00  0.00    +0.000 Fe
ATOM      7  N   UNL     1       3.160  -1.894  -8.273  0.00  0.00    +0.000 N 
ATOM      8  C   UNL     1       1.930  -2.328  -8.491  0.00  0.00    +0.000 A 
ATOM      9  C   UNL     1       1.568  -3.471  -7.914  0.00  0.00    +0.000 C 
ATOM     10  C   UNL     1       2.450  -4.306  -7.373  0.00  0.00    +0.000 A 
ATOM     11  C   UNL     1       1.865  -5.432  -6.886  0.00  0.00    +0.000 A 
ATOM     12  C   UNL     1       0.345  -5.739  -6.858  0.00  0.00    +0.000 C 
ATOM     13  C   UNL     1      -1.139  -5.098  -7.297  0.00  0.00    +0.000 C 
ATOM     14  C   UNL     1       3.072  -6.174  -6.404  0.00  0.00    +0.000 A 
ATOM     15  C   UNL     1       2.350  -7.525  -5.826  0.00  0.00    +0.000 C 
ATOM     16  C   UNL     1       4.483  -5.235  -6.694  0.00  0.00    +0.000 A 
ATOM     17  C   UNL     1       1.086  -1.373  -9.109  0.00  0.00    +0.000 A 
ATOM     18  C   UNL     1      -0.459  -1.287  -9.271  0.00  0.00    +0.000 C 
ATOM     19  C   UNL     1       1.975  -0.411  -9.487  0.00  0.00    +0.000 A 
ATOM     20  C   UNL     1       3.162  -0.761  -8.909  0.00  0.00    +0.000 A 
ATOM     21  C   UNL     1       4.371  -0.155  -8.830  0.00  0.00    +0.000 C 
ATOM     22  C   UNL     1       4.736   0.007  -7.558  0.00  0.00    +0.000 A 
ATOM     23  C   UNL     1       4.032  -0.063  -6.284  0.00  0.00    +0.000 A 
ATOM     24  C   UNL     1       5.016  -0.064  -5.312  0.00  0.00    +0.000 A 
ATOM     25  C   UNL     1       5.035  -0.280  -3.786  0.00  0.00    +0.000 C 
ATOM     26  C   UNL     1       6.148  -0.247  -6.026  0.00  0.00    +0.000 A 
ATOM     27  C   UNL     1       7.229  -0.508  -5.341  0.00  0.00    +0.000 C 
ATOM     28  N   UNL     1       3.889  -4.151  -7.181  0.00  0.00    +0.000 N 
ATOM     29  N   UNL     1       5.810  -0.602  -7.315  0.00  0.00    +0.000 N 
ATOM     30  C   UNL     1       7.729  -1.746  -5.659  0.00  0.00    +0.000 A 
ATOM     31  C   UNL     1       6.404  -4.911  -6.773  0.00  0.00    +0.000 C 
ATOM     32  C   UNL     1       8.986  -2.052  -5.328  0.00  0.00    +0.000 A 
ATOM     33  C   UNL     1       9.942  -1.023  -4.347  0.00  0.00    +0.000 C 
ENDROOT
BRANCH  19  34
ATOM     34  C   UNL     1       1.822   0.806 -10.278  0.00  0.00    +0.000 C 
BRANCH  34  35
ATOM     35  C   UNL     1       2.709   0.603 -11.518  0.00  0.00    +0.000 C 
BRANCH  35  36
ATOM     36  C   UNL     1       2.854   1.871 -12.274  0.00  0.00    +0.000 C 
ATOM     37  O   UNL     1       2.508   1.926 -13.441  0.00  0.00    +0.000 OA
BRANCH  36  38
ATOM     38  O   UNL     1       3.411   2.948 -11.680  0.00  0.00    +0.000 OA
ATOM     39  H   UNL     1       3.718   2.915 -10.761  0.00  0.00    +0.000 HD
ENDBRANCH  36  38
ENDBRANCH  35  36
ENDBRANCH  34  35
ENDBRANCH  19  34
BRANCH  23  40
ATOM     40  C   UNL     1       2.649  -0.646  -6.010  0.00  0.00    +0.000 C 
BRANCH  40  41
ATOM     41  C   UNL     1       2.229  -0.807  -4.582  0.00  0.00    +0.000 C 
BRANCH  41  42
ATOM     42  C   UNL     1       0.866  -1.399  -4.463  0.00  0.00    +0.000 C 
ATOM     43  O   UNL     1       0.695  -2.404  -3.790  0.00  0.00    +0.000 OA
BRANCH  42  44
ATOM     44  O   UNL     1      -0.174  -0.833  -5.099  0.00  0.00    +0.000 OA
ATOM     45  H   UNL     1      -0.044  -0.067  -5.674  0.00  0.00    +0.000 HD
ENDBRANCH  42  44
ENDBRANCH  41  42
ENDBRANCH  40  41
ENDBRANCH  23  40
TORSDOF 8
