REMARK  Name = 
REMARK  17 active torsions:
REMARK  status: ('A' for Active; 'I' for Inactive)
REMARK    1  A    between atoms: C_2  and  C_4
REMARK    2  A    between atoms: N_6  and  C_18
REMARK    3  A    between atoms: C_9  and  C_10
REMARK    4  A    between atoms: C_21  and  C_23
REMARK    5  A    between atoms: C_23  and  O_24
REMARK    6  A    between atoms: O_24  and  P_25
REMARK    7  A    between atoms: P_25  and  O_28
REMARK    8  A    between atoms: O_28  and  P_29
REMARK    9  A    between atoms: P_29  and  O_30
REMARK   10  A    between atoms: P_29  and  O_32
REMARK   11  A    between atoms: O_32  and  C_33
REMARK   12  A    between atoms: C_33  and  C_34
REMARK   13  A    between atoms: C_37  and  N_45
REMARK   14  A    between atoms: C_39  and  O_41
REMARK   15  A    between atoms: C_42  and  O_44
REMARK   16  A    between atoms: C_55  and  O_57
REMARK   17  A    between atoms: C_58  and  O_60
REMARK                            x       y       z     vdW  Elec       q    Type
REMARK                         _______ _______ _______ _____ _____    ______ ____
ROOT
ATOM      1  P   UNL     1      18.902  -4.590   1.061  0.00  0.00    +0.222 P 
ATOM      2  O   UNL     1      17.380  -5.221   0.532  0.00  0.00    -0.437 OA
ATOM      3  O   UNL     1      18.655  -3.200   0.463  0.00  0.00    -0.517 OA
ENDROOT
BRANCH   1   4
ATOM      4  O   UNL     1      20.423  -3.959   1.589  0.00  0.00    -0.229 OA
BRANCH   4   5
ATOM      5  P   UNL     1      20.525  -4.066   3.313  0.00  0.00    +0.480 P 
ATOM      6  O   UNL     1      20.620  -2.540   3.419  0.00  0.00    -0.227 OA
BRANCH   5   7
ATOM      7  O   UNL     1      22.106  -4.484   3.198  0.00  0.00    -0.302 OA
ATOM      8  H   UNL     1      22.572  -3.622   3.195  0.00  0.00    +0.222 HD
ENDBRANCH   5   7
BRANCH   5   9
ATOM      9  O   UNL     1      20.626  -4.172   5.036  0.00  0.00    -0.284 OA
BRANCH   9  10
ATOM     10  C   UNL     1      19.449  -3.675   5.685  0.00  0.00    +0.206 C 
BRANCH  10  11
ATOM     11  C   UNL     1      19.601  -3.803   7.203  0.00  0.00    +0.178 C 
ATOM     12  C   UNL     1      18.344  -3.343   7.947  0.00  0.00    +0.178 C 
ATOM     13  C   UNL     1      17.550  -4.624   8.216  0.00  0.00    +0.195 C 
ATOM     14  C   UNL     1      18.446  -5.743   7.679  0.00  0.00    +0.253 C 
ATOM     15  O   UNL     1      19.768  -5.189   7.567  0.00  0.00    -0.346 OA
BRANCH  14  16
ATOM     16  N   UNL     1      18.489  -6.921   8.521  0.00  0.00    -0.286 N 
ATOM     17  C   UNL     1      17.419  -7.735   8.774  0.00  0.00    +0.167 A 
ATOM     18  N   UNL     1      16.145  -7.566   8.377  0.00  0.00    -0.216 NA
ATOM     19  C   UNL     1      15.376  -8.590   8.813  0.00  0.00    +0.225 A 
ATOM     20  N   UNL     1      15.741  -9.661   9.553  0.00  0.00    -0.219 NA
ATOM     21  C   UNL     1      17.039  -9.780   9.916  0.00  0.00    +0.147 A 
ATOM     22  N   UNL     1      17.418 -10.884  10.670  0.00  0.00    -0.341 N 
ATOM     23  H   UNL     1      18.287 -10.742  11.175  0.00  0.00    +0.144 HD
ATOM     24  H   UNL     1      16.641 -11.285  11.176  0.00  0.00    +0.144 HD
ATOM     25  C   UNL     1      17.937  -8.774   9.528  0.00  0.00    +0.147 A 
ATOM     26  N   UNL     1      19.284  -8.589   9.760  0.00  0.00    -0.231 NA
ATOM     27  C   UNL     1      19.583  -7.472   9.130  0.00  0.00    +0.203 A 
ENDBRANCH  14  16
BRANCH  13  28
ATOM     28  O   UNL     1      16.298  -4.597   7.529  0.00  0.00    -0.385 OA
ATOM     29  H   UNL     1      15.804  -5.397   7.805  0.00  0.00    +0.210 HD
ENDBRANCH  13  28
BRANCH  12  30
ATOM     30  O   UNL     1      18.702  -2.739   9.200  0.00  0.00    -0.386 OA
ATOM     31  H   UNL     1      19.389  -3.284   9.623  0.00  0.00    +0.210 HD
ENDBRANCH  12  30
ENDBRANCH  10  11
ENDBRANCH   9  10
ENDBRANCH   5   9
ENDBRANCH   4   5
ENDBRANCH   1   4
BRANCH   1  32
ATOM     32  O   UNL     1      19.761  -5.454  -0.070  0.00  0.00    -0.324 OA
BRANCH  32  33
ATOM     33  C   UNL     1      20.555  -6.490   0.464  0.00  0.00    +0.202 C 
BRANCH  33  37
ATOM     34  C   UNL     1      22.273  -6.764  -2.699  0.00  0.00    +0.439 C 
ATOM     35  C   UNL     1      21.046  -7.630  -2.998  0.00  0.00    +0.244 C 
ATOM     36  C   UNL     1      20.387  -7.881  -1.650  0.00  0.00    +0.183 C 
ATOM     37  C   UNL     1      21.300  -7.203  -0.644  0.00  0.00    +0.182 C 
ATOM     38  O   UNL     1      22.161  -6.299  -1.356  0.00  0.00    -0.309 OA
BRANCH  34  43
ATOM     39  C   UNL     1      25.586  -8.418  -1.974  0.00  0.00    +0.104 A 
ATOM     40  C   UNL     1      25.996  -8.879  -3.243  0.00  0.00    -0.014 A 
ATOM     41  C   UNL     1      25.070  -8.711  -4.289  0.00  0.00    +0.075 A 
ATOM     42  C   UNL     1      23.861  -8.040  -4.091  0.00  0.00    +0.312 A 
ATOM     43  N   UNL     1      23.550  -7.536  -2.877  0.00  0.00    -0.173 N 
ATOM     44  C   UNL     1      24.404  -7.691  -1.846  0.00  0.00    +0.325 A 
BRANCH  40  45
ATOM     45  C   UNL     1      27.351  -9.550  -3.490  0.00  0.00    +0.086 C 
ATOM     46  C   UNL     1      27.362 -11.032  -3.125  0.00  0.00    +0.141 C 
ATOM     47  O   UNL     1      26.380 -11.602  -2.645  0.00  0.00    -0.297 OA
ATOM     48  C   UNL     1      28.682 -11.755  -3.330  0.00  0.00    +0.075 C 
ATOM     49  C   UNL     1      29.186 -11.544  -4.753  0.00  0.00    +0.008 C 
ATOM     50  C   UNL     1      29.254 -10.061  -5.110  0.00  0.00    +0.001 C 
ATOM     51  C   UNL     1      27.886  -9.400  -4.931  0.00  0.00    +0.016 C 
ENDBRANCH  40  45
BRANCH  39  55
ATOM     52  N   UNL     1      25.648  -8.765   0.435  0.00  0.00    -0.325 N 
ATOM     53  H   UNL     1      24.671  -9.023   0.489  0.00  0.00    +0.145 HD
ATOM     54  H   UNL     1      26.195  -8.963   1.271  0.00  0.00    +0.145 HD
ATOM     55  C   UNL     1      26.363  -8.612  -0.723  0.00  0.00    +0.248 C 
ATOM     56  O   UNL     1      27.584  -8.626  -0.712  0.00  0.00    -0.270 OA
ENDBRANCH  39  55
ENDBRANCH  34  43
BRANCH  36  57
ATOM     57  O   UNL     1      20.400  -9.287  -1.377  0.00  0.00    -0.386 OA
ATOM     58  H   UNL     1      19.693  -9.456  -0.722  0.00  0.00    +0.210 HD
ENDBRANCH  36  57
BRANCH  35  59
ATOM     59  O   UNL     1      20.178  -6.956  -3.917  0.00  0.00    -0.380 OA
ATOM     60  H   UNL     1      19.637  -6.296  -3.432  0.00  0.00    +0.210 HD
ENDBRANCH  35  59
ENDBRANCH  33  37
ENDBRANCH  32  33
ENDBRANCH   1  32
TORSDOF 17
