REMARK  Name = 
REMARK  8 active torsions:
REMARK  status: ('A' for Active; 'I' for Inactive)
REMARK    1  A    between atoms: C_1  and  C_2
REMARK    2  A    between atoms: C_2  and  C_3
REMARK    3  A    between atoms: C_2  and  N_4
REMARK    4  A    between atoms: N_4  and  C_15
REMARK    5  A    between atoms: C_5  and  C_7
REMARK    6  A    between atoms: C_16  and  C_26
REMARK    7  A    between atoms: C_18  and  C_20
REMARK    8  A    between atoms: C_26  and  O_27
REMARK                            x       y       z     vdW  Elec       q    Type
REMARK                         _______ _______ _______ _____ _____    ______ ____
ROOT
ATOM      1  C   UNL     1       4.473   1.208  -1.250  0.00  0.00    +0.059 A 
ATOM      2  C   UNL     1       5.419   0.288  -1.825  0.00  0.00    +0.040 A 
ATOM      3  C   UNL     1       6.671   0.844  -2.021  0.00  0.00    +0.022 A 
ATOM      4  S   UNL     1       6.758   2.354  -1.218  0.00  0.00    -0.080 S 
ATOM      5  C   UNL     1       5.096   2.353  -0.782  0.00  0.00    +0.118 A 
ENDROOT
BRANCH   3   6
ATOM      6  C   UNL     1       7.841   0.310  -2.754  0.00  0.00    -0.011 A 
ATOM      7  C   UNL     1       8.845   1.155  -3.263  0.00  0.00    +0.009 A 
ATOM      8  C   UNL     1       9.969   0.641  -3.917  0.00  0.00    +0.001 A 
ATOM      9  C   UNL     1      10.101  -0.732  -4.093  0.00  0.00    +0.000 A 
ATOM     10  C   UNL     1       9.102  -1.586  -3.634  0.00  0.00    +0.001 A 
ATOM     11  C   UNL     1       7.980  -1.069  -2.975  0.00  0.00    +0.009 A 
ENDBRANCH   3   6
BRANCH   1  12
ATOM     12  N   UNL     1       3.095   0.918  -1.126  0.00  0.00    -0.264 N 
ATOM     13  C   UNL     1       2.173   1.251  -2.165  0.00  0.00    +0.253 C 
ATOM     14  O   UNL     1       0.989   0.917  -2.102  0.00  0.00    -0.270 OA
BRANCH  13  15
ATOM     15  C   UNL     1       2.605   2.060  -3.364  0.00  0.00    +0.056 A 
ATOM     16  C   UNL     1       3.718   1.650  -4.116  0.00  0.00    +0.016 A 
ATOM     17  C   UNL     1       4.240   2.443  -5.142  0.00  0.00    +0.021 A 
ATOM     18  C   UNL     1       3.572   3.596  -5.526  0.00  0.00    +0.042 A 
ATOM     19 CL   UNL     1       4.210   4.568  -6.791  0.00  0.00    -0.083 Cl
ATOM     20  C   UNL     1       2.379   3.946  -4.899  0.00  0.00    +0.040 A 
ATOM     21  C   UNL     1       1.897   3.187  -3.818  0.00  0.00    +0.054 A 
ATOM     22 CL   UNL     1       0.418   3.723  -3.105  0.00  0.00    -0.083 Cl
ENDBRANCH  13  15
BRANCH  12  24
ATOM     23  C   UNL     1       1.586   0.468   0.879  0.00  0.00    +0.028 C 
ATOM     24  C   UNL     1       2.697  -0.046  -0.046  0.00  0.00    +0.076 C 
ATOM     25  C   UNL     1       2.349  -1.442  -0.569  0.00  0.00    +0.028 C 
ENDBRANCH  12  24
ENDBRANCH   1  12
BRANCH   5  26
ATOM     26  C   UNL     1       4.624   3.499  -0.020  0.00  0.00    +0.345 C 
ATOM     27  O   UNL     1       5.298   4.447   0.352  0.00  0.00    -0.244 OA
BRANCH  26  28
ATOM     28  O   UNL     1       3.301   3.434   0.281  0.00  0.00    -0.477 OA
ATOM     29  H   UNL     1       2.865   2.643  -0.074  0.00  0.00    +0.295 HD
ENDBRANCH  26  28
ENDBRANCH   5  26
TORSDOF 6
