REMARK  Name = 
REMARK  4 active torsions:
REMARK  status: ('A' for Active; 'I' for Inactive)
REMARK    1  A    between atoms: C_1  and  O_2
REMARK    2  A    between atoms: O_2  and  C_3
REMARK    3  A    between atoms: C_5  and  C_6
REMARK    4  A    between atoms: C_10  and  O_11
REMARK                            x       y       z     vdW  Elec       q    Type
REMARK                         _______ _______ _______ _____ _____    ______ ____
ROOT
ATOM      1  C   UNL     1       3.031   1.136  -0.520  0.00  0.00    +0.162 A 
ATOM      2  C   UNL     1       3.921   0.916  -1.576  0.00  0.00    +0.158 A 
ATOM      3  C   UNL     1       4.442   1.985  -2.303  0.00  0.00    +0.050 A 
ATOM      4  C   UNL     1       4.081   3.292  -1.964  0.00  0.00    +0.012 A 
ATOM      5  C   UNL     1       3.218   3.540  -0.890  0.00  0.00    -0.022 A 
ATOM      6  C   UNL     1       2.700   2.450  -0.173  0.00  0.00    +0.057 A 
ENDROOT
BRANCH   1   8
ATOM      7  C   UNL     1       1.261   0.185   0.722  0.00  0.00    +0.277 C 
ATOM      8  O   UNL     1       2.551   0.033   0.141  0.00  0.00    -0.491 OA
ENDBRANCH   1   8
BRANCH   2   9
ATOM      9  O   UNL     1       4.257  -0.367  -1.913  0.00  0.00    -0.503 OA
ATOM     10  H   UNL     1       4.884  -0.347  -2.652  0.00  0.00    +0.292 HD
ENDBRANCH   2   9
BRANCH   5  11
ATOM     11  C   UNL     1       2.820   4.924  -0.594  0.00  0.00    +0.000 C 
ATOM     12  C   UNL     1       2.474   5.384   0.616  0.00  0.00    +0.009 C 
ENDBRANCH   5  11
TORSDOF 3
