REMARK  Name = 
REMARK  6 active torsions:
REMARK  status: ('A' for Active; 'I' for Inactive)
REMARK    1  A    between atoms: O_1  and  C_2
REMARK    2  A    between atoms: C_5  and  C_16
REMARK    3  A    between atoms: C_7  and  O_9
REMARK    4  A    between atoms: C_10  and  O_12
REMARK    5  A    between atoms: C_13  and  O_15
REMARK    6  A    between atoms: C_16  and  O_17
REMARK                            x       y       z     vdW  Elec       q    Type
REMARK                         _______ _______ _______ _____ _____    ______ ____
ROOT
ATOM      1  C   UNL     1       2.582  -0.100  -0.004  0.00  0.00    +0.280 C 
ATOM      2  C   UNL     1       3.019   1.048  -0.936  0.00  0.00    +0.201 C 
ATOM      3  C   UNL     1       2.533   0.768  -2.365  0.00  0.00    +0.179 C 
ATOM      4  C   UNL     1       2.884  -0.649  -2.835  0.00  0.00    +0.185 C 
ATOM      5  C   UNL     1       2.466  -1.665  -1.770  0.00  0.00    +0.260 C 
ATOM      6  O   UNL     1       3.047  -1.348  -0.500  0.00  0.00    -0.332 OA
ENDROOT
BRANCH   1   7
ATOM      7  O   UNL     1       3.112   0.060   1.303  0.00  0.00    -0.365 OA
ATOM      8  H   UNL     1       3.698   0.836   1.287  0.00  0.00    +0.213 HD
ENDBRANCH   1   7
BRANCH   2   9
ATOM      9  O   UNL     1       2.511   2.286  -0.418  0.00  0.00    -0.384 OA
ATOM     10  H   UNL     1       1.817   2.612  -1.018  0.00  0.00    +0.210 HD
ENDBRANCH   2   9
BRANCH   3  11
ATOM     11  O   UNL     1       3.094   1.728  -3.270  0.00  0.00    -0.386 OA
ATOM     12  H   UNL     1       2.915   1.385  -4.170  0.00  0.00    +0.210 HD
ENDBRANCH   3  11
BRANCH   4  13
ATOM     13  O   UNL     1       2.188  -0.843  -4.076  0.00  0.00    -0.386 OA
ATOM     14  H   UNL     1       2.210  -1.800  -4.294  0.00  0.00    +0.210 HD
ENDBRANCH   4  13
BRANCH   5  15
ATOM     15  C   UNL     1       2.980  -3.036  -2.159  0.00  0.00    +0.337 C 
ATOM     16  O   UNL     1       2.759  -3.560  -3.246  0.00  0.00    -0.248 OA
BRANCH  15  17
ATOM     17  O   UNL     1       3.718  -3.626  -1.186  0.00  0.00    -0.479 OA
ATOM     18  H   UNL     1       3.770  -3.008  -0.410  0.00  0.00    +0.295 HD
ENDBRANCH  15  17
ENDBRANCH   5  15
TORSDOF 6
