REMARK  Name = 
REMARK  6 active torsions:
REMARK  status: ('A' for Active; 'I' for Inactive)
REMARK    1  A    between atoms: N_1  and  C_2
REMARK    2  A    between atoms: C_2  and  C_3
REMARK    3  A    between atoms: C_3  and  CA_4
REMARK    4  A    between atoms: CA_4  and  N_6
REMARK    5  A    between atoms: CA_4  and  C_7
REMARK    6  A    between atoms: C_7  and  O_8
REMARK                            x       y       z     vdW  Elec       q    Type
REMARK                         _______ _______ _______ _____ _____    ______ ____
ROOT
ATOM      1  CA  UNL     1       4.541   0.894  -1.089  0.00  0.00    +0.162 C 
ENDROOT
BRANCH   1   2
ATOM      2  N   UNL     1       5.137  -0.454  -1.337  0.00  0.00    -0.318 NA
ATOM      3  H1  UNL     1       4.835  -1.078  -0.583  0.00  0.00    +0.119 HD
ATOM      4  H2  UNL     1       4.695  -0.842  -2.178  0.00  0.00    +0.119 HD
ENDBRANCH   1   2
BRANCH   1   5
ATOM      5  C   UNL     1       5.080   1.848  -2.166  0.00  0.00    +0.322 C 
ATOM      6  OXT UNL     1       4.538   2.880  -2.526  0.00  0.00    -0.249 OA
BRANCH   5   7
ATOM      7  O   UNL     1       6.272   1.415  -2.653  0.00  0.00    -0.480 OA
ATOM      8  H   UNL     1       6.447   0.547  -2.210  0.00  0.00    +0.295 HD
ENDBRANCH   5   7
ENDBRANCH   1   5
BRANCH   1   9
ATOM      9  C   UNL     1       4.944   1.374   0.310  0.00  0.00    +0.045 C 
BRANCH   9  10
ATOM     10  C   UNL     1       4.377   2.757   0.648  0.00  0.00    +0.080 C 
BRANCH  10  11
ATOM     11  N   UNL     1       4.764   3.135   2.003  0.00  0.00    -0.330 NA
ATOM     12  H   UNL     1       5.780   3.214   2.058  0.00  0.00    +0.118 HD
ATOM     13  H   UNL     1       4.408   4.072   2.198  0.00  0.00    +0.118 HD
ENDBRANCH  10  11
ENDBRANCH   9  10
ENDBRANCH   1   9
TORSDOF 6
