REMARK  Name = 
REMARK  40 active torsions:
REMARK  status: ('A' for Active; 'I' for Inactive)
REMARK    1  A    between atoms: C_1  and  C_2
REMARK    2  A    between atoms: C_2  and  C_3
REMARK    3  A    between atoms: C_3  and  C_4
REMARK    4  A    between atoms: C_5  and  C_6
REMARK    5  A    between atoms: C_6  and  C_7
REMARK    6  A    between atoms: C_8  and  C_9
REMARK    7  A    between atoms: C_9  and  C_10
REMARK    8  A    between atoms: C_10  and  C_11
REMARK    9  A    between atoms: C_11  and  C_12
REMARK   10  A    between atoms: C_12  and  C_13
REMARK   11  A    between atoms: C_13  and  C_14
REMARK   12  A    between atoms: C_14  and  C_15
REMARK   13  A    between atoms: C_15  and  C_16
REMARK   14  A    between atoms: C_16  and  O_18
REMARK   15  A    between atoms: O_18  and  C_19
REMARK   16  A    between atoms: C_19  and  C_21
REMARK   17  A    between atoms: C_19  and  C_42
REMARK   18  A    between atoms: C_21  and  O_22
REMARK   19  A    between atoms: O_22  and  C_23
REMARK   20  A    between atoms: C_23  and  C_25
REMARK   21  A    between atoms: C_25  and  C_26
REMARK   22  A    between atoms: C_26  and  C_27
REMARK   23  A    between atoms: C_27  and  C_28
REMARK   24  A    between atoms: C_28  and  C_29
REMARK   25  A    between atoms: C_29  and  C_30
REMARK   26  A    between atoms: C_30  and  C_31
REMARK   27  A    between atoms: C_32  and  C_33
REMARK   28  A    between atoms: C_33  and  C_34
REMARK   29  A    between atoms: C_34  and  C_35
REMARK   30  A    between atoms: C_36  and  C_37
REMARK   31  A    between atoms: C_37  and  C_38
REMARK   32  A    between atoms: C_38  and  C_39
REMARK   33  A    between atoms: C_40  and  C_41
REMARK   34  A    between atoms: C_42  and  O_43
REMARK   35  A    between atoms: O_43  and  P_44
REMARK   36  A    between atoms: P_44  and  O_45
REMARK   37  A    between atoms: P_44  and  O_47
REMARK   38  A    between atoms: O_47  and  C_48
REMARK   39  A    between atoms: C_48  and  C_49
REMARK   40  A    between atoms: C_49  and  N_50
REMARK                            x       y       z     vdW  Elec       q    Type
REMARK                         _______ _______ _______ _____ _____    ______ ____
ROOT
ATOM      1  C   UNL     1      23.625   0.829  13.294  0.00  0.00    +0.240 C 
ENDROOT
BRANCH   1   2
ATOM      2  C   UNL     1      24.665   1.813  12.732  0.00  0.00    +0.279 C 
BRANCH   2   3
ATOM      3  O   UNL     1      24.486   2.071  11.325  0.00  0.00    -0.461 OA
BRANCH   3   4
ATOM      4  C   UNL     1      24.058   3.315  10.991  0.00  0.00    +0.307 C 
ATOM      5  O   UNL     1      23.544   4.111  11.769  0.00  0.00    -0.251 OA
BRANCH   4   6
ATOM      6  C   UNL     1      24.409   3.630   9.558  0.00  0.00    +0.120 C 
BRANCH   6   7
ATOM      7  C   UNL     1      25.512   4.685   9.482  0.00  0.00    +0.011 C 
BRANCH   7   8
ATOM      8  C   UNL     1      26.808   4.210  10.140  0.00  0.00    +0.001 C 
BRANCH   8   9
ATOM      9  C   UNL     1      27.912   5.263  10.041  0.00  0.00    +0.000 C 
BRANCH   9  10
ATOM     10  C   UNL     1      29.206   4.818  10.723  0.00  0.00    +0.004 C 
BRANCH  10  11
ATOM     11  C   UNL     1      29.805   3.575  10.067  0.00  0.00    +0.027 C 
BRANCH  11  12
ATOM     12  C   UNL     1      31.063   3.117  10.727  0.00  0.00    -0.031 C 
ATOM     13  C   UNL     1      32.191   3.838  10.818  0.00  0.00    -0.031 C 
BRANCH  13  14
ATOM     14  C   UNL     1      33.471   3.363  11.451  0.00  0.00    +0.031 C 
BRANCH  14  15
ATOM     15  C   UNL     1      33.665   1.844  11.399  0.00  0.00    +0.031 C 
BRANCH  15  16
ATOM     16  C   UNL     1      34.932   1.410  12.065  0.00  0.00    -0.031 C 
ATOM     17  C   UNL     1      34.935   0.630  13.156  0.00  0.00    -0.031 C 
BRANCH  17  18
ATOM     18  C   UNL     1      36.184   0.157  13.832  0.00  0.00    +0.031 C 
BRANCH  18  19
ATOM     19  C   UNL     1      36.013  -1.260  14.383  0.00  0.00    +0.031 C 
BRANCH  19  20
ATOM     20  C   UNL     1      37.275  -1.720  15.055  0.00  0.00    -0.031 C 
ATOM     21  C   UNL     1      37.972  -2.796  14.665  0.00  0.00    -0.034 C 
ATOM     22  C   UNL     1      39.240  -3.243  15.314  0.00  0.00    +0.035 C 
ENDBRANCH  19  20
ENDBRANCH  18  19
ENDBRANCH  17  18
ENDBRANCH  15  16
ENDBRANCH  14  15
ENDBRANCH  13  14
ENDBRANCH  11  12
ENDBRANCH  10  11
ENDBRANCH   9  10
ENDBRANCH   8   9
ENDBRANCH   7   8
ENDBRANCH   6   7
ENDBRANCH   4   6
ENDBRANCH   3   4
ENDBRANCH   2   3
ENDBRANCH   1   2
BRANCH   1  23
ATOM     23  C   UNL     1      22.206   1.425  13.284  0.00  0.00    +0.220 C 
BRANCH  23  24
ATOM     24  O   UNL     1      21.298   0.554  13.965  0.00  0.00    -0.283 OA
BRANCH  24  25
ATOM     25  P   UNL     1      19.727   1.040  14.055  0.00  0.00    +0.475 P 
ATOM     26  O   UNL     1      18.941  -0.079  14.739  0.00  0.00    -0.227 OA
BRANCH  25  27
ATOM     27  O   UNL     1      20.040   1.684  15.629  0.00  0.00    -0.302 OA
ATOM     28  H   UNL     1      19.999   0.879  16.187  0.00  0.00    +0.222 HD
ENDBRANCH  25  27
BRANCH  25  29
ATOM     29  O   UNL     1      19.413   0.396  12.480  0.00  0.00    -0.285 OA
BRANCH  29  30
ATOM     30  C   UNL     1      18.139   0.825  12.007  0.00  0.00    +0.187 C 
BRANCH  30  31
ATOM     31  C   UNL     1      17.870   0.258  10.617  0.00  0.00    +0.106 C 
BRANCH  31  32
ATOM     32  N   UNL     1      16.568   0.694  10.113  0.00  0.00    -0.328 NA
ATOM     33  H   UNL     1      16.419   0.296   9.186  0.00  0.00    +0.118 HD
ATOM     34  H   UNL     1      15.829   0.306  10.701  0.00  0.00    +0.118 HD
ENDBRANCH  31  32
ENDBRANCH  30  31
ENDBRANCH  29  30
ENDBRANCH  25  29
ENDBRANCH  24  25
ENDBRANCH  23  24
ENDBRANCH   1  23
BRANCH   1  35
ATOM     35  O   UNL     1      23.611  -0.395  12.520  0.00  0.00    -0.456 OA
BRANCH  35  36
ATOM     36  C   UNL     1      24.699  -1.202  12.655  0.00  0.00    +0.308 C 
ATOM     37  O   UNL     1      25.671  -0.963  13.362  0.00  0.00    -0.251 OA
BRANCH  36  38
ATOM     38  C   UNL     1      24.551  -2.462  11.839  0.00  0.00    +0.120 C 
BRANCH  38  39
ATOM     39  C   UNL     1      24.250  -2.195  10.366  0.00  0.00    +0.011 C 
BRANCH  39  40
ATOM     40  C   UNL     1      25.347  -1.417   9.632  0.00  0.00    +0.001 C 
BRANCH  40  41
ATOM     41  C   UNL     1      26.709  -2.119   9.593  0.00  0.00    +0.000 C 
BRANCH  41  42
ATOM     42  C   UNL     1      26.710  -3.474   8.874  0.00  0.00    +0.000 C 
BRANCH  42  43
ATOM     43  C   UNL     1      26.265  -3.418   7.407  0.00  0.00    +0.004 C 
BRANCH  43  44
ATOM     44  C   UNL     1      27.189  -2.548   6.554  0.00  0.00    +0.027 C 
BRANCH  44  46
ATOM     45  C   UNL     1      26.384  -1.287   4.554  0.00  0.00    -0.027 C 
ATOM     46  C   UNL     1      26.711  -2.452   5.137  0.00  0.00    -0.031 C 
BRANCH  45  47
ATOM     47  C   UNL     1      25.926  -1.154   3.133  0.00  0.00    +0.053 C 
BRANCH  47  49
ATOM     48  C   UNL     1      26.513   0.843   1.725  0.00  0.00    -0.031 C 
ATOM     49  C   UNL     1      26.870  -0.292   2.346  0.00  0.00    -0.027 C 
BRANCH  48  50
ATOM     50  C   UNL     1      27.460   1.687   0.921  0.00  0.00    +0.026 C 
BRANCH  50  52
ATOM     51  C   UNL     1      28.512   3.957   0.658  0.00  0.00    +0.004 C 
ATOM     52  C   UNL     1      27.558   3.106   1.481  0.00  0.00    +0.001 C 
ENDBRANCH  50  52
ENDBRANCH  48  50
ENDBRANCH  47  49
ENDBRANCH  45  47
ENDBRANCH  44  46
ENDBRANCH  43  44
ENDBRANCH  42  43
ENDBRANCH  41  42
ENDBRANCH  40  41
ENDBRANCH  39  40
ENDBRANCH  38  39
ENDBRANCH  36  38
ENDBRANCH  35  36
ENDBRANCH   1  35
TORSDOF 38
