REMARK  Name = 
REMARK  7 active torsions:
REMARK  status: ('A' for Active; 'I' for Inactive)
REMARK    1  A    between atoms: C_1  and  C_2
REMARK    2  A    between atoms: C_2  and  C_4
REMARK    3  A    between atoms: C_4  and  S_5
REMARK    4  A    between atoms: S_5  and  C_6
REMARK    5  A    between atoms: C_6  and  C_7
REMARK    6  A    between atoms: C_7  and  S_8
REMARK    7  A    between atoms: S_8  and  O_9
REMARK                            x       y       z     vdW  Elec       q    Type
REMARK                         _______ _______ _______ _____ _____    ______ ____
ROOT
ATOM      1  C   UNL     1       5.845   1.446   1.952  0.00  0.00    +0.094 C 
ENDROOT
BRANCH   1   2
ATOM      2  S   UNL     1       5.079   0.503   0.590  0.00  0.00    -0.151 S 
BRANCH   2   3
ATOM      3  C   UNL     1       3.327   0.735   1.012  0.00  0.00    +0.143 C 
BRANCH   3   5
ATOM      4  C   UNL     1       2.118   0.693  -1.268  0.00  0.00    +0.087 C 
ATOM      5  C   UNL     1       2.467  -0.018   0.015  0.00  0.00    +0.140 C 
ATOM      6  O   UNL     1       2.072  -1.164   0.235  0.00  0.00    -0.297 OA
ENDBRANCH   3   5
ENDBRANCH   2   3
ENDBRANCH   1   2
BRANCH   1   7
ATOM      7  C   UNL     1       7.353   1.334   1.820  0.00  0.00    +0.208 C 
BRANCH   7   8
ATOM      8  S   UNL     1       8.160   2.302   3.078  0.00  0.00    +0.081 S 
ATOM      9  O   UNL     1       7.909   1.722   4.376  0.00  0.00    -0.147 OA
ATOM     10  O   UNL     1       7.968   3.708   2.801  0.00  0.00    -0.147 OA
BRANCH   8  11
ATOM     11  O   UNL     1       9.684   1.975   2.662  0.00  0.00    -0.254 OA
ATOM     12  H   UNL     1      10.126   2.816   2.414  0.00  0.00    +0.244 HD
ENDBRANCH   8  11
ENDBRANCH   7   8
ENDBRANCH   1   7
TORSDOF 6
