REMARK  Name = 
REMARK  13 active torsions:
REMARK  status: ('A' for Active; 'I' for Inactive)
REMARK    1  A    between atoms: C_1  and  C_2
REMARK    2  A    between atoms: N_4  and  C_5
REMARK    3  A    between atoms: C_5  and  C_7
REMARK    4  A    between atoms: C_5  and  C_21
REMARK    5  A    between atoms: C_7  and  C_8
REMARK    6  A    between atoms: C_11  and  C_14
REMARK    7  A    between atoms: C_14  and  P_17
REMARK    8  A    between atoms: P_17  and  O_18
REMARK    9  A    between atoms: P_17  and  O_19
REMARK   10  A    between atoms: N_23  and  C_24
REMARK   11  A    between atoms: N_30  and  C_31
REMARK   12  A    between atoms: C_31  and  C_32
REMARK   13  A    between atoms: C_35  and  C_38
REMARK                            x       y       z     vdW  Elec       q    Type
REMARK                         _______ _______ _______ _____ _____    ______ ____
ROOT
ATOM      1  C   UNL     1       6.190   0.508   4.909  0.00  0.00    +0.234 C 
ATOM      2  N   UNL     1       6.531   1.837   4.805  0.00  0.00    -0.302 N 
ATOM      3  H   UNL     1       6.328   2.479   5.559  0.00  0.00    +0.150 HD
ATOM      4  O   UNL     1       6.437  -0.316   4.031  0.00  0.00    -0.274 OA
ENDROOT
BRANCH   2   5
ATOM      5  C   UNL     1       7.306   2.394   3.691  0.00  0.00    +0.159 C 
ATOM      6  C   UNL     1       6.914   3.865   3.492  0.00  0.00    +0.236 C 
ATOM      7  O   UNL     1       7.027   4.445   2.418  0.00  0.00    -0.274 OA
ATOM      8  N   UNL     1       6.797   4.527   4.723  0.00  0.00    -0.296 N 
ATOM      9  C   UNL     1       7.942   5.351   5.096  0.00  0.00    +0.108 C 
ATOM     10  C   UNL     1       9.305   4.681   4.853  0.00  0.00    +0.019 C 
ATOM     11  C   UNL     1       9.322   3.181   5.142  0.00  0.00    +0.004 C 
ATOM     12  C   UNL     1       8.814   2.310   3.972  0.00  0.00    +0.032 C 
BRANCH   8  13
ATOM     13  C   UNL     1       5.459   5.002   5.106  0.00  0.00    +0.143 C 
BRANCH  13  14
ATOM     14  C   UNL     1       5.137   6.404   4.661  0.00  0.00    -0.030 A 
ATOM     15  C   UNL     1       4.989   7.440   5.588  0.00  0.00    +0.006 A 
ATOM     16  C   UNL     1       4.902   8.768   5.155  0.00  0.00    +0.009 A 
ATOM     17  C   UNL     1       4.998   9.102   3.792  0.00  0.00    -0.018 A 
ATOM     18  C   UNL     1       5.003   8.037   2.876  0.00  0.00    +0.009 A 
ATOM     19  C   UNL     1       5.052   6.710   3.302  0.00  0.00    +0.006 A 
BRANCH  17  20
ATOM     20  C   UNL     1       5.231  10.495   3.338  0.00  0.00    -0.018 A 
ATOM     21  C   UNL     1       5.963  11.397   4.137  0.00  0.00    +0.008 A 
ATOM     22  C   UNL     1       6.337  12.659   3.667  0.00  0.00    +0.001 A 
ATOM     23  C   UNL     1       5.991  13.051   2.379  0.00  0.00    +0.000 A 
ATOM     24  C   UNL     1       5.245  12.195   1.576  0.00  0.00    +0.001 A 
ATOM     25  C   UNL     1       4.859  10.938   2.056  0.00  0.00    +0.008 A 
ENDBRANCH  17  20
ENDBRANCH  13  14
ENDBRANCH   8  13
ENDBRANCH   2   5
BRANCH   1  26
ATOM     26  C   UNL     1       5.447   0.128   6.211  0.00  0.00    +0.163 C 
BRANCH  26  29
ATOM     27  C   UNL     1       4.068  -3.339   6.924  0.00  0.00    +0.109 C 
ATOM     28  C   UNL     1       4.275  -1.862   7.118  0.00  0.00    +0.211 C 
ATOM     29  N   UNL     1       5.066  -1.279   6.162  0.00  0.00    -0.304 N 
ATOM     30  H   UNL     1       5.417  -1.817   5.373  0.00  0.00    +0.149 HD
ATOM     31  O   UNL     1       3.786  -1.253   8.056  0.00  0.00    -0.276 OA
ENDBRANCH  26  29
BRANCH  26  32
ATOM     32  C   UNL     1       6.267   0.493   7.461  0.00  0.00    +0.067 C 
BRANCH  32  33
ATOM     33  C   UNL     1       7.540  -0.296   7.644  0.00  0.00    -0.045 A 
ATOM     34  C   UNL     1       7.550  -1.470   8.396  0.00  0.00    +0.004 A 
ATOM     35  C   UNL     1       8.752  -2.119   8.656  0.00  0.00    +0.010 A 
ATOM     36  C   UNL     1       9.958  -1.594   8.168  0.00  0.00    +0.033 A 
ATOM     37  C   UNL     1       9.943  -0.469   7.351  0.00  0.00    +0.010 A 
ATOM     38  C   UNL     1       8.738   0.164   7.095  0.00  0.00    +0.004 A 
BRANCH  36  39
ATOM     39  C   UNL     1      11.248  -2.246   8.516  0.00  0.00    +0.371 C 
ATOM     40  F   UNL     1      11.383  -2.484   9.858  0.00  0.00    -0.187 F 
ATOM     41  F   UNL     1      12.386  -1.570   8.169  0.00  0.00    -0.187 F 
BRANCH  39  42
ATOM     42  P   UNL     1      11.488  -3.937   7.859  0.00  0.00    +0.401 P 
ATOM     43  O   UNL     1      11.691  -5.368   7.303  0.00  0.00    -0.252 OA
BRANCH  42  44
ATOM     44  O   UNL     1      12.953  -4.002   8.667  0.00  0.00    -0.320 OA
ATOM     45  H   UNL     1      13.074  -3.339   9.378  0.00  0.00    +0.220 HD
ENDBRANCH  42  44
BRANCH  42  46
ATOM     46  O   UNL     1      12.115  -3.222   6.493  0.00  0.00    -0.320 OA
ATOM     47  H   UNL     1      13.022  -2.899   6.676  0.00  0.00    +0.220 HD
ENDBRANCH  42  46
ENDBRANCH  39  42
ENDBRANCH  36  39
ENDBRANCH  32  33
ENDBRANCH  26  32
ENDBRANCH   1  26
TORSDOF 12
