REMARK  Name = 
REMARK  7 active torsions:
REMARK  status: ('A' for Active; 'I' for Inactive)
REMARK    1  A    between atoms: C_1  and  C_2
REMARK    2  A    between atoms: C_2  and  C_3
REMARK    3  A    between atoms: C_3  and  C_4
REMARK    4  A    between atoms: C_4  and  C_5
REMARK    5  A    between atoms: C_5  and  C_6
REMARK    6  A    between atoms: C_6  and  C_8
REMARK    7  A    between atoms: C_6  and  N_9
REMARK                            x       y       z     vdW  Elec       q    Type
REMARK                         _______ _______ _______ _____ _____    ______ ____
ROOT
ATOM      1  C   UNL     1       6.711  -0.602   2.804  0.00  0.00    +0.070 C 
ATOM      2  C   UNL     1       7.947  -0.192   3.603  0.00  0.00    +0.028 C 
ENDROOT
BRANCH   1   3
ATOM      3  N   UNL     1       5.665  -1.058   3.711  0.00  0.00    -0.315 N 
ATOM      4  H   UNL     1       5.702  -2.005   4.063  0.00  0.00    +0.149 HD
ATOM      5  C   UNL     1       4.708  -0.214   4.210  0.00  0.00    +0.325 C 
ATOM      6  O   UNL     1       4.593   0.974   3.953  0.00  0.00    -0.280 OA
ENDBRANCH   1   3
BRANCH   1   7
ATOM      7  C   UNL     1       7.056  -1.697   1.779  0.00  0.00    +0.022 C 
BRANCH   7   8
ATOM      8  C   UNL     1       5.835  -2.096   0.943  0.00  0.00    +0.002 C 
BRANCH   8   9
ATOM      9  C   UNL     1       6.172  -3.160  -0.101  0.00  0.00    -0.000 C 
BRANCH   9  11
ATOM     10  C   UNL     1       5.214  -4.623  -1.924  0.00  0.00    +0.004 C 
ATOM     11  C   UNL     1       4.918  -3.558  -0.882  0.00  0.00    -0.003 C 
ENDBRANCH   9  11
ENDBRANCH   8   9
ENDBRANCH   7   8
ENDBRANCH   1   7
TORSDOF 5
