REMARK  Name = 
REMARK  11 active torsions:
REMARK  status: ('A' for Active; 'I' for Inactive)
REMARK    1  A    between atoms: C_1  and  C_2
REMARK    2  A    between atoms: C_7  and  C_8
REMARK    3  A    between atoms: C_13  and  C_33
REMARK    4  A    between atoms: C_19  and  O_21
REMARK    5  A    between atoms: C_22  and  C_23
REMARK    6  A    between atoms: C_22  and  C_24
REMARK    7  A    between atoms: C_27  and  C_29
REMARK    8  A    between atoms: C_30  and  O_32
REMARK    9  A    between atoms: C_33  and  C_34
REMARK   10  A    between atoms: C_35  and  C_36
REMARK   11  A    between atoms: C_39  and  C_40
REMARK                            x       y       z     vdW  Elec       q    Type
REMARK                         _______ _______ _______ _____ _____    ______ ____
ROOT
ATOM      1  C   UNL     1       0.000   0.000   0.000  0.00  0.00    +0.010 C 
ATOM      2  C   UNL     1      -0.000  -0.000  -0.000  0.00  0.00    +0.015 C 
ATOM      3  C   UNL     1      -0.000  -0.000   0.000  0.00  0.00    +0.127 C 
ATOM      4  C   UNL     1      -0.000  -0.000  -0.000  0.00  0.00    +0.081 C 
ATOM      5  C   UNL     1      -0.000  -0.000  -0.000  0.00  0.00    +0.018 C 
ATOM      6  C   UNL     1      -0.000  -0.000  -0.000  0.00  0.00    +0.147 C 
ATOM      7  O   UNL     1      -0.000  -0.000  -0.000  0.00  0.00    -0.296 OA
ATOM      8  C   UNL     1      -0.000  -0.000  -0.000  0.00  0.00    +0.050 C 
ATOM      9  C   UNL     1      -0.000  -0.000  -0.000  0.00  0.00    +0.021 C 
ATOM     10  C   UNL     1      -0.000  -0.000  -0.000  0.00  0.00    +0.021 C 
ATOM     11  C   UNL     1      -0.000  -0.000   0.000  0.00  0.00    +0.138 C 
ATOM     12  C   UNL     1      -0.000  -0.000  -0.000  0.00  0.00    +0.152 C 
ATOM     13  C   UNL     1      -0.000  -0.000  -0.000  0.00  0.00    +0.310 C 
ATOM     14  O   UNL     1      -0.000  -0.000  -0.000  0.00  0.00    -0.251 OA
ATOM     15  O   UNL     1      -0.000  -0.000  -0.000  0.00  0.00    -0.457 OA
ATOM     16  C   UNL     1      -0.000  -0.000  -0.000  0.00  0.00    +0.205 C 
ATOM     17  C   UNL     1      -0.000  -0.000  -0.000  0.00  0.00    +0.083 C 
ATOM     18  C   UNL     1      -0.000  -0.000  -0.000  0.00  0.00    +0.154 C 
ATOM     19  C   UNL     1      -0.000  -0.000  -0.000  0.00  0.00    +0.093 C 
ATOM     20  C   UNL     1      -0.000  -0.000  -0.000  0.00  0.00    +0.044 C 
ATOM     21  C   UNL     1      -0.000  -0.000  -0.000  0.00  0.00    +0.037 C 
ATOM     22  C   UNL     1      -0.000  -0.000   0.000  0.00  0.00    +0.003 C 
ATOM     23  O   UNL     1      -0.000  -0.000  -0.000  0.00  0.00    -0.365 OA
ATOM     24  C   UNL     1      -0.000  -0.000  -0.000  0.00  0.00    +0.006 C 
ENDROOT
BRANCH  16  25
ATOM     25  C   UNL     1      -0.000  -0.000   0.000  0.00  0.00    -0.031 C 
ATOM     26  C   UNL     1      -0.000  -0.000   0.000  0.00  0.00    +0.031 C 
ATOM     27  C   UNL     1      -0.000  -0.000   0.000  0.00  0.00    +0.043 C 
BRANCH  26  28
ATOM     28  C   UNL     1      -0.000  -0.000  -0.000  0.00  0.00    +0.071 A 
ATOM     29  N   UNL     1      -0.000  -0.000   0.000  0.00  0.00    -0.245 NA
ATOM     30  C   UNL     1      -0.000  -0.000  -0.000  0.00  0.00    +0.076 A 
ATOM     31  C   UNL     1      -0.000  -0.000   0.000  0.00  0.00    +0.073 C 
ATOM     32  S   UNL     1      -0.000  -0.000   0.000  0.00  0.00    -0.080 S 
ATOM     33  C   UNL     1      -0.000  -0.000   0.000  0.00  0.00    +0.074 A 
ENDBRANCH  26  28
ENDBRANCH  16  25
BRANCH   3  34
ATOM     34  O   UNL     1      -0.000  -0.000   0.000  0.00  0.00    -0.391 OA
ATOM     35  H   UNL     1       0.000   0.000   0.000  0.00  0.00    +0.210 HD
ENDBRANCH   3  34
BRANCH  11  36
ATOM     36  O   UNL     1      -0.000  -0.000   0.000  0.00  0.00    -0.390 OA
ATOM     37  H   UNL     1       0.000   0.000   0.000  0.00  0.00    +0.210 HD
ENDBRANCH  11  36
TORSDOF 4
