REMARK  Name = 
REMARK  6 active torsions:
REMARK  status: ('A' for Active; 'I' for Inactive)
REMARK    1  A    between atoms: N_1  and  C_2
REMARK    2  A    between atoms: C_2  and  C_4
REMARK    3  A    between atoms: C_2  and  C_9
REMARK    4  A    between atoms: C_4  and  S_5
REMARK    5  A    between atoms: S_5  and  O_6
REMARK    6  A    between atoms: C_9  and  O_10
REMARK                            x       y       z     vdW  Elec       q    Type
REMARK                         _______ _______ _______ _____ _____    ______ ____
ROOT
ATOM      1  C   UNK     1       2.340   0.119   0.102  0.00  0.00    +0.184 C 
ENDROOT
BRANCH   1   2
ATOM      2  N   UNK     1       0.851   0.020   0.222  0.00  0.00    -0.317 NA
ATOM      3  H   UNK     1       0.505   0.723   0.893  0.00  0.00    +0.119 HD
ATOM      4  H   UNK     1       0.434   0.314  -0.667  0.00  0.00    +0.119 HD
ENDBRANCH   1   2
BRANCH   1   5
ATOM      5  C   UNK     1       3.002  -0.801   1.133  0.00  0.00    +0.323 C 
ATOM      6  O   UNK     1       4.208  -0.918   1.276  0.00  0.00    -0.249 OA
BRANCH   5   7
ATOM      7  O   UNK     1       2.084  -1.511   1.833  0.00  0.00    -0.479 OA
ATOM      8  H   UNK     1       1.198  -1.270   1.466  0.00  0.00    +0.295 HD
ENDBRANCH   5   7
ENDBRANCH   1   5
BRANCH   1   9
ATOM      9  C   UNK     1       2.922   1.524   0.171  0.00  0.00    +0.227 C 
BRANCH   9  10
ATOM     10  S   UNK     1       2.602   2.320   1.731  0.00  0.00    +0.082 S 
ATOM     11  O   UNK     1       3.396   1.750   2.786  0.00  0.00    -0.147 OA
ATOM     12  O   UNK     1       1.172   2.513   1.855  0.00  0.00    -0.147 OA
BRANCH  10  13
ATOM     13  O   UNK     1       3.212   3.770   1.371  0.00  0.00    -0.254 OA
ATOM     14  H   UNK     1       2.585   4.458   1.683  0.00  0.00    +0.244 HD
ENDBRANCH  10  13
ENDBRANCH   9  10
ENDBRANCH   1   9
TORSDOF 6
