REMARK  Name = 
REMARK  6 active torsions:
REMARK  status: ('A' for Active; 'I' for Inactive)
REMARK    1  A    between atoms: O_1  and  C_2
REMARK    2  A    between atoms: C_2  and  C_3
REMARK    3  A    between atoms: C_6  and  O_8
REMARK    4  A    between atoms: C_9  and  O_11
REMARK    5  A    between atoms: C_12  and  O_14
REMARK    6  A    between atoms: C_15  and  O_17
REMARK                            x       y       z     vdW  Elec       q    Type
REMARK                         _______ _______ _______ _____ _____    ______ ____
ROOT
ATOM      1  C   UNL     1       2.829   1.300  -0.674  0.00  0.00    +0.178 C 
ATOM      2  C   UNL     1       3.677   1.798   0.507  0.00  0.00    +0.177 C 
ATOM      3  C   UNL     1       2.786   2.485   1.545  0.00  0.00    +0.179 C 
ATOM      4  C   UNL     1       1.880   3.533   0.905  0.00  0.00    +0.201 C 
ATOM      5  C   UNL     1       1.144   2.911  -0.290  0.00  0.00    +0.279 C 
ATOM      6  O   UNL     1       2.067   2.389  -1.229  0.00  0.00    -0.341 OA
ENDROOT
BRANCH   2   7
ATOM      7  O   UNL     1       4.358   0.708   1.136  0.00  0.00    -0.386 OA
ATOM      8  H   UNL     1       4.649   1.050   2.007  0.00  0.00    +0.210 HD
ENDBRANCH   2   7
BRANCH   3   9
ATOM      9  O   UNL     1       3.616   3.087   2.550  0.00  0.00    -0.386 OA
ATOM     10  H   UNL     1       3.021   3.678   3.057  0.00  0.00    +0.210 HD
ENDBRANCH   3   9
BRANCH   4  11
ATOM     11  O   UNL     1       0.960   4.013   1.898  0.00  0.00    -0.384 OA
ATOM     12  H   UNL     1       0.289   4.520   1.397  0.00  0.00    +0.210 HD
ENDBRANCH   4  11
BRANCH   5  13
ATOM     13  O   UNL     1       0.395   3.934  -0.928  0.00  0.00    -0.365 OA
ATOM     14  H   UNL     1       0.134   3.530  -1.775  0.00  0.00    +0.213 HD
ENDBRANCH   5  13
BRANCH   1  15
ATOM     15  C   UNL     1       3.705   0.701  -1.781  0.00  0.00    +0.190 C 
BRANCH  15  16
ATOM     16  O   UNL     1       2.877   0.027  -2.732  0.00  0.00    -0.392 OA
ATOM     17  H   UNL     1       3.473  -0.380  -3.385  0.00  0.00    +0.210 HD
ENDBRANCH  15  16
ENDBRANCH   1  15
TORSDOF 6
