REMARK  Name = 
REMARK  7 active torsions:
REMARK  status: ('A' for Active; 'I' for Inactive)
REMARK    1  A    between atoms: C_2  and  C_3
REMARK    2  A    between atoms: C_2  and  N_10
REMARK    3  A    between atoms: C_2  and  C_15
REMARK    4  A    between atoms: C_3  and  C_4
REMARK    5  A    between atoms: N_10  and  S_11
REMARK    6  A    between atoms: S_11  and  N_12
REMARK    7  A    between atoms: C_15  and  O_16
REMARK                            x       y       z     vdW  Elec       q    Type
REMARK                         _______ _______ _______ _____ _____    ______ ____
ROOT
ATOM      1  C   UNL     1       2.096  -0.105   0.041  0.00  0.00    +0.190 C 
ENDROOT
BRANCH   1   2
ATOM      2  C   UNL     1       2.674  -1.395  -0.570  0.00  0.00    +0.324 C 
ATOM      3  O   UNL     1       3.399  -1.475  -1.548  0.00  0.00    -0.249 OA
BRANCH   2   4
ATOM      4  O   UNL     1       2.344  -2.489   0.171  0.00  0.00    -0.479 OA
ATOM      5  H   UNL     1       1.897  -2.213   0.999  0.00  0.00    +0.295 HD
ENDBRANCH   2   4
ENDBRANCH   1   2
BRANCH   1   6
ATOM      6  N   UNL     1       2.643  -0.136   1.452  0.00  0.00    -0.166 NA
ATOM      7  H   UNL     1       3.668  -0.162   1.429  0.00  0.00    +0.150 HD
BRANCH   6   8
ATOM      8  S   UNL     1       2.203   1.110   2.457  0.00  0.00    +0.093 S 
ATOM      9  O   UNL     1       0.788   1.022   2.699  0.00  0.00    -0.142 OA
ATOM     10  O   UNL     1       2.877   2.313   2.055  0.00  0.00    -0.142 OA
BRANCH   8  11
ATOM     11  N   UNL     1       2.979   0.556   3.810  0.00  0.00    -0.193 NA
ATOM     12  H   UNL     1       2.326   0.044   4.402  0.00  0.00    +0.145 HD
ATOM     13  H   UNL     1       3.391   1.349   4.309  0.00  0.00    +0.145 HD
ENDBRANCH   8  11
ENDBRANCH   6   8
ENDBRANCH   1   6
BRANCH   1  14
ATOM     14  C   UNL     1       2.512   1.157  -0.727  0.00  0.00    +0.067 C 
BRANCH  14  15
ATOM     15  C   UNL     1       2.138   1.254  -2.191  0.00  0.00    -0.045 A 
ATOM     16  C   UNL     1       3.015   1.925  -3.060  0.00  0.00    +0.004 A 
ATOM     17  C   UNL     1       2.711   2.071  -4.413  0.00  0.00    +0.000 A 
ATOM     18  C   UNL     1       1.522   1.556  -4.917  0.00  0.00    +0.000 A 
ATOM     19  C   UNL     1       0.631   0.908  -4.063  0.00  0.00    +0.000 A 
ATOM     20  C   UNL     1       0.931   0.767  -2.707  0.00  0.00    +0.004 A 
ENDBRANCH  14  15
ENDBRANCH   1  14
TORSDOF 7
