REMARK  Name = 
REMARK  16 active torsions:
REMARK  status: ('A' for Active; 'I' for Inactive)
REMARK    1  A    between atoms: C_1  and  C_2
REMARK    2  A    between atoms: C_2  and  C_3
REMARK    3  A    between atoms: C_3  and  C_4
REMARK    4  A    between atoms: C_4  and  C_5
REMARK    5  A    between atoms: C_5  and  C_6
REMARK    6  A    between atoms: C_6  and  C_7
REMARK    7  A    between atoms: C_7  and  C_8
REMARK    8  A    between atoms: C_8  and  C_9
REMARK    9  A    between atoms: C_10  and  C_11
REMARK   10  A    between atoms: C_11  and  C_12
REMARK   11  A    between atoms: C_12  and  C_13
REMARK   12  A    between atoms: C_13  and  C_14
REMARK   13  A    between atoms: C_14  and  C_15
REMARK   14  A    between atoms: C_15  and  C_16
REMARK   15  A    between atoms: C_16  and  C_17
REMARK   16  A    between atoms: C_17  and  C_18
REMARK                            x       y       z     vdW  Elec       q    Type
REMARK                         _______ _______ _______ _____ _____    ______ ____
ROOT
ATOM      1  C   UNL     1      11.030  -5.242   5.154  0.00  0.00    +0.027 C 
ENDROOT
BRANCH   1   3
ATOM      2  C   UNL     1       9.199  -4.060   3.928  0.00  0.00    -0.031 C 
ATOM      3  C   UNL     1      10.505  -4.240   4.171  0.00  0.00    -0.031 C 
BRANCH   2   4
ATOM      4  C   UNL     1       8.677  -3.051   2.951  0.00  0.00    +0.027 C 
BRANCH   4   5
ATOM      5  C   UNL     1       7.351  -2.460   3.426  0.00  0.00    +0.004 C 
BRANCH   5   6
ATOM      6  C   UNL     1       6.819  -1.444   2.419  0.00  0.00    +0.000 C 
BRANCH   6   7
ATOM      7  C   UNL     1       5.472  -0.883   2.867  0.00  0.00    +0.000 C 
BRANCH   7   8
ATOM      8  C   UNL     1       4.941   0.133   1.859  0.00  0.00    -0.000 C 
BRANCH   8   9
ATOM      9  C   UNL     1       3.595   0.696   2.308  0.00  0.00    -0.000 C 
BRANCH   9  11
ATOM     10  C   UNL     1       1.721   2.275   1.754  0.00  0.00    +0.004 C 
ATOM     11  C   UNL     1       3.059   1.713   1.305  0.00  0.00    -0.003 C 
ENDBRANCH   9  11
ENDBRANCH   8   9
ENDBRANCH   7   8
ENDBRANCH   6   7
ENDBRANCH   5   6
ENDBRANCH   4   5
ENDBRANCH   2   4
ENDBRANCH   1   3
BRANCH   1  12
ATOM     12  C   UNL     1      11.871  -4.553   6.225  0.00  0.00    +0.004 C 
BRANCH  12  13
ATOM     13  C   UNL     1      12.392  -5.563   7.244  0.00  0.00    +0.000 C 
BRANCH  13  14
ATOM     14  C   UNL     1      13.242  -4.871   8.307  0.00  0.00    +0.000 C 
BRANCH  14  15
ATOM     15  C   UNL     1      13.772  -5.870   9.333  0.00  0.00    +0.000 C 
BRANCH  15  16
ATOM     16  C   UNL     1      14.621  -5.157  10.385  0.00  0.00    +0.009 C 
BRANCH  16  17
ATOM     17  C   UNL     1      15.166  -6.129  11.426  0.00  0.00    +0.095 C 
BRANCH  17  18
ATOM     18  C   UNL     1      16.008  -5.421  12.466  0.00  0.00    +0.210 C 
ATOM     19  O   UNL     1      16.236  -4.218  12.486  0.00  0.00    -0.276 OA
ATOM     20  N   UNL     1      16.521  -6.246  13.423  0.00  0.00    -0.329 N 
ATOM     21  H   UNL     1      17.091  -5.828  14.145  0.00  0.00    +0.145 HD
ATOM     22  H   UNL     1      16.356  -7.243  13.441  0.00  0.00    +0.145 HD
ENDBRANCH  17  18
ENDBRANCH  16  17
ENDBRANCH  15  16
ENDBRANCH  14  15
ENDBRANCH  13  14
ENDBRANCH  12  13
ENDBRANCH   1  12
TORSDOF 15
