REMARK  Name = 
REMARK  4 active torsions:
REMARK  status: ('A' for Active; 'I' for Inactive)
REMARK    1  A    between atoms: C_4  and  C_8
REMARK    2  A    between atoms: C_9  and  C_17
REMARK    3  A    between atoms: N_12  and  C_13
REMARK    4  A    between atoms: C_13  and  C_14
REMARK                            x       y       z     vdW  Elec       q    Type
REMARK                         _______ _______ _______ _____ _____    ______ ____
ROOT
ATOM      1  C   UNL     1       5.113   2.394  -0.066  0.00  0.00    +0.095 A 
ATOM      2  N   UNL     1       6.475   2.720  -0.003  0.00  0.00    -0.328 N 
ATOM      3  C   UNL     1       6.584   4.078   0.038  0.00  0.00    +0.200 A 
ATOM      4  N   UNL     1       5.418   4.661  -0.072  0.00  0.00    -0.235 NA
ATOM      5  C   UNL     1       4.498   3.643  -0.204  0.00  0.00    +0.098 A 
ENDROOT
BRANCH   1  13
ATOM      6  N   UNL     1       6.046  -2.166  -0.566  0.00  0.00    -0.327 N 
ATOM      7  H   UNL     1       5.839  -2.999  -0.032  0.00  0.00    +0.145 HD
ATOM      8  H   UNL     1       6.968  -1.771  -0.446  0.00  0.00    +0.145 HD
ATOM      9  C   UNL     1       5.094  -1.207  -0.287  0.00  0.00    +0.213 A 
ATOM     10  N   UNL     1       3.911  -1.616   0.165  0.00  0.00    -0.223 NA
ATOM     11  C   UNL     1       3.059  -0.651   0.550  0.00  0.00    +0.116 A 
ATOM     12  C   UNL     1       3.365   0.689   0.529  0.00  0.00    +0.050 A 
ATOM     13  C   UNL     1       4.600   1.015   0.018  0.00  0.00    +0.094 A 
ATOM     14  N   UNL     1       5.467   0.068  -0.389  0.00  0.00    -0.213 NA
ENDBRANCH   1  13
BRANCH   5  15
ATOM     15  C   UNL     1       3.094   3.975  -0.450  0.00  0.00    +0.003 A 
ATOM     16  C   UNL     1       2.261   3.175  -1.246  0.00  0.00    +0.013 A 
ATOM     17  C   UNL     1       0.931   3.542  -1.478  0.00  0.00    +0.039 A 
ATOM     18  C   UNL     1       0.440   4.735  -0.952  0.00  0.00    +0.123 A 
ATOM     19  F   UNL     1      -0.827   5.090  -1.195  0.00  0.00    -0.205 F 
ATOM     20  C   UNL     1       1.258   5.562  -0.199  0.00  0.00    +0.039 A 
ATOM     21  C   UNL     1       2.578   5.180   0.056  0.00  0.00    +0.013 A 
ENDBRANCH   5  15
BRANCH   2  22
ATOM     22  C   UNL     1       7.586   1.764   0.025  0.00  0.00    +0.127 C 
BRANCH  22  23
ATOM     23  C   UNL     1       8.976   2.322   0.151  0.00  0.00    +0.009 C 
ATOM     24  C   UNL     1       9.914   2.362  -1.033  0.00  0.00    +0.005 C 
ATOM     25  C   UNL     1      10.137   1.356   0.058  0.00  0.00    +0.005 C 
ENDBRANCH  22  23
ENDBRANCH   2  22
TORSDOF 4
