REMARK  Name = 
REMARK  7 active torsions:
REMARK  status: ('A' for Active; 'I' for Inactive)
REMARK    1  A    between atoms: N_1  and  CA_2
REMARK    2  A    between atoms: CA_2  and  C_4
REMARK    3  A    between atoms: CA_2  and  C_8
REMARK    4  A    between atoms: C_4  and  C_5
REMARK    5  A    between atoms: C_5  and  C_6
REMARK    6  A    between atoms: C_6  and  O_7
REMARK    7  A    between atoms: C_8  and  O_9
REMARK                            x       y       z     vdW  Elec       q    Type
REMARK                         _______ _______ _______ _____ _____    ______ ____
ROOT
ATOM      1  CA  UNL     1       2.372  -0.125   0.167  0.00  0.00    +0.161 C 
ENDROOT
BRANCH   1   2
ATOM      2  N   UNL     1       2.974  -1.054   1.184  0.00  0.00    -0.318 NA
ATOM      3  H1  UNL     1       3.865  -0.659   1.503  0.00  0.00    +0.119 HD
ATOM      4  H2  UNL     1       2.375  -1.010   2.016  0.00  0.00    +0.119 HD
ENDBRANCH   1   2
BRANCH   1   5
ATOM      5  C   UNL     1       2.768  -0.632  -1.237  0.00  0.00    +0.322 C 
ATOM      6  OXT UNL     1       2.491  -0.088  -2.295  0.00  0.00    -0.249 OA
BRANCH   5   7
ATOM      7  O   UNL     1       3.460  -1.799  -1.158  0.00  0.00    -0.480 OA
ATOM      8  H   UNL     1       3.477  -2.023  -0.192  0.00  0.00    +0.295 HD
ENDBRANCH   5   7
ENDBRANCH   1   5
BRANCH   1   9
ATOM      9  C   UNL     1       2.850   1.309   0.438  0.00  0.00    +0.032 C 
BRANCH   9  10
ATOM     10  C   UNL     1       2.360   2.404  -0.523  0.00  0.00    +0.030 C 
BRANCH  10  11
ATOM     11  C   UNL     1       0.847   2.560  -0.607  0.00  0.00    +0.156 C 
BRANCH  11  12
ATOM     12  O   UNL     1       0.228   1.396  -1.128  0.00  0.00    -0.395 OA
ATOM     13  H   UNL     1       0.675   1.171  -1.970  0.00  0.00    +0.209 HD
ENDBRANCH  11  12
ENDBRANCH  10  11
ENDBRANCH   9  10
ENDBRANCH   1   9
TORSDOF 7
