REMARK  Name = 
REMARK  7 active torsions:
REMARK  status: ('A' for Active; 'I' for Inactive)
REMARK    1  A    between atoms: C_2  and  C_3
REMARK    2  A    between atoms: C_3  and  C_4
REMARK    3  A    between atoms: C_4  and  C_5
REMARK    4  A    between atoms: C_5  and  C_6
REMARK    5  A    between atoms: C_6  and  C_7
REMARK    6  A    between atoms: N_9  and  C_10
REMARK    7  A    between atoms: C_13  and  N_16
REMARK                            x       y       z     vdW  Elec       q    Type
REMARK                         _______ _______ _______ _____ _____    ______ ____
ROOT
ATOM      1  C   UNL     1      -1.504  -1.578  -0.009  0.00  0.00    +0.009 C 
ENDROOT
BRANCH   1   2
ATOM      2  C   UNL     1       0.030  -1.588  -0.027  0.00  0.00    +0.002 C 
BRANCH   2   3
ATOM      3  C   UNL     1       0.594  -0.164   0.012  0.00  0.00    +0.016 C 
BRANCH   3   4
ATOM      4  C   UNL     1       2.136  -0.093   0.023  0.00  0.00    +0.069 C 
ATOM      5  C   UNL     1       2.748   1.333   0.005  0.00  0.00    +0.108 C 
ATOM      6  C   UNL     1       3.108   1.739   1.438  0.00  0.00    +0.105 C 
ATOM      7  N   UNL     1       1.892   2.373   1.892  0.00  0.00    -0.294 N 
ATOM      8  H   UNL     1       1.744   2.798   2.799  0.00  0.00    +0.151 HD
ATOM      9  C   UNL     1       1.225   2.907   0.797  0.00  0.00    +0.300 C 
ATOM     10  O   UNL     1       0.294   3.687   0.831  0.00  0.00    -0.253 OA
ATOM     11  C   UNL     1       3.601   0.543   2.220  0.00  0.00    +0.093 C 
ATOM     12  N   UNL     1       1.811   2.379  -0.346  0.00  0.00    -0.294 N 
ATOM     13  H   UNL     1       1.396   2.543  -1.254  0.00  0.00    +0.151 HD
ATOM     14  S   UNL     1       2.830  -0.923   1.502  0.00  0.00    -0.154 S 
ENDBRANCH   3   4
ENDBRANCH   2   3
ENDBRANCH   1   2
BRANCH   1  15
ATOM     15  C   UNL     1      -2.096  -2.985  -0.014  0.00  0.00    +0.096 C 
BRANCH  15  16
ATOM     16  C   UNL     1      -1.638  -3.799   1.179  0.00  0.00    +0.217 C 
ATOM     17  N   UNL     1      -2.334  -3.530   2.349  0.00  0.00    -0.285 N 
ATOM     18  H   UNL     1      -3.228  -3.066   2.256  0.00  0.00    +0.155 HD
ATOM     19  O   UNL     1      -0.723  -4.609   1.057  0.00  0.00    -0.275 OA
BRANCH  17  20
ATOM     20  C   UNL     1      -2.035  -4.119   3.597  0.00  0.00    +0.034 A 
ATOM     21  C   UNL     1      -3.064  -4.246   4.538  0.00  0.00    +0.030 A 
ATOM     22  C   UNL     1      -2.835  -4.921   5.747  0.00  0.00    +0.086 A 
ATOM     23  C   UNL     1      -1.560  -5.432   6.022  0.00  0.00    +0.273 A 
ATOM     24  C   UNL     1      -0.510  -5.241   5.120  0.00  0.00    +0.086 A 
ATOM     25  C   UNL     1      -0.755  -4.581   3.915  0.00  0.00    +0.030 A 
BRANCH  23  26
ATOM     26  N   UNL     1      -1.323  -6.192   7.255  0.00  0.00    +0.080 N 
ATOM     27  O   UNL     1      -2.282  -6.353   8.024  0.00  0.00    +0.041 OA
ATOM     28  O   UNL     1      -0.182  -6.633   7.453  0.00  0.00    -0.576 OA
ENDBRANCH  23  26
ENDBRANCH  17  20
ENDBRANCH  15  16
ENDBRANCH   1  15
TORSDOF 7
