REMARK  Name = 
REMARK  4 active torsions:
REMARK  status: ('A' for Active; 'I' for Inactive)
REMARK    1  A    between atoms: O_1  and  C_2
REMARK    2  A    between atoms: C_2  and  C_4
REMARK    3  A    between atoms: C_4  and  C_6
REMARK    4  A    between atoms: C_6  and  C_7
REMARK                            x       y       z     vdW  Elec       q    Type
REMARK                         _______ _______ _______ _____ _____    ______ ____
ROOT
ATOM      1  C   UNL     1       4.608  -0.119   1.305  0.00  0.00    +0.121 C 
ENDROOT
BRANCH   1   2
ATOM      2  C   UNL     1       5.221  -0.151   2.683  0.00  0.00    -0.040 A 
ATOM      3  C   UNL     1       5.476  -1.374   3.320  0.00  0.00    +0.004 A 
ATOM      4  C   UNL     1       6.056  -1.403   4.589  0.00  0.00    +0.000 A 
ATOM      5  C   UNL     1       6.391  -0.213   5.231  0.00  0.00    +0.000 A 
ATOM      6  C   UNL     1       6.148   1.008   4.605  0.00  0.00    +0.000 A 
ATOM      7  C   UNL     1       5.568   1.040   3.336  0.00  0.00    +0.004 A 
ENDBRANCH   1   2
BRANCH   1   8
ATOM      8  C   UNL     1       5.620  -0.146   0.187  0.00  0.00    +0.243 C 
ATOM      9  O   UNL     1       6.844  -0.189   0.279  0.00  0.00    -0.285 OA
BRANCH   8  10
ATOM     10  C   UNL     1       5.045  -0.116  -1.223  0.00  0.00    +0.373 C 
ATOM     11  O   UNL     1       3.855  -0.074  -1.458  0.00  0.00    -0.242 OA
BRANCH  10  12
ATOM     12  O   UNL     1       6.034  -0.142  -2.137  0.00  0.00    -0.475 OA
ATOM     13  H   UNL     1       6.903  -0.176  -1.668  0.00  0.00    +0.295 HD
ENDBRANCH  10  12
ENDBRANCH   8  10
ENDBRANCH   1   8
TORSDOF 4
