REMARK  Name = 
REMARK  6 active torsions:
REMARK  status: ('A' for Active; 'I' for Inactive)
REMARK    1  A    between atoms: N_1  and  C_2
REMARK    2  A    between atoms: C_2  and  C_4
REMARK    3  A    between atoms: C_2  and  C_8
REMARK    4  A    between atoms: C_4  and  S_5
REMARK    5  A    between atoms: S_5  and  SE_6
REMARK    6  A    between atoms: C_8  and  O_9
REMARK                            x       y       z     vdW  Elec       q    Type
REMARK                         _______ _______ _______ _____ _____    ______ ____
ROOT
ATOM      1  C   UNK     1       2.492   0.083   0.032  0.00  0.00    +0.000 C 
ENDROOT
BRANCH   1   2
ATOM      2  N   UNK     1       1.029   0.094  -0.013  0.00  0.00    +0.000 NA
ATOM      3  H   UNK     1       0.631  -0.415   0.810  0.00  0.00    +0.000 HD
ATOM      4  H   UNK     1       0.683   1.080   0.012  0.00  0.00    +0.000 HD
ENDBRANCH   1   2
BRANCH   1   5
ATOM      5  C   UNK     1       2.991  -1.335  -0.131  0.00  0.00    +0.000 C 
ATOM      6  O   UNK     1       3.693  -1.621  -1.092  0.00  0.00    +0.000 OA
BRANCH   5   7
ATOM      7  O   UNK     1       2.685  -2.300   0.763  0.00  0.00    +0.000 OA
ATOM      8  H   UNK     1       2.138  -2.127   1.541  0.00  0.00    +0.000 HD
ENDBRANCH   5   7
ENDBRANCH   1   5
BRANCH   1   9
ATOM      9  C   UNK     1       3.003   0.723   1.338  0.00  0.00    +0.000 C 
BRANCH   9  10
ATOM     10  S   UNK     1       4.829   0.740   1.375  0.00  0.00    +0.000 S 
BRANCH  10  11
ATOM     11 SE   UNK     1       4.929   1.617   3.451  0.00  0.00    +0.000 Se
ATOM     12  H   UNK     1       6.351   2.132   3.177  0.00  0.00    +0.000 HD
ENDBRANCH  10  11
ENDBRANCH   9  10
ENDBRANCH   1   9
TORSDOF 6
