REMARK  Name = 
REMARK  9 active torsions:
REMARK  status: ('A' for Active; 'I' for Inactive)
REMARK    1  A    between atoms: C_1  and  C_2
REMARK    2  A    between atoms: C_2  and  C_3
REMARK    3  A    between atoms: C_2  and  C_4
REMARK    4  A    between atoms: C_6  and  O_7
REMARK    5  A    between atoms: O_7  and  C_8
REMARK    6  A    between atoms: C_9  and  C_10
REMARK    7  A    between atoms: C_12  and  N_16
REMARK    8  A    between atoms: C_14  and  C_15
REMARK    9  A    between atoms: C_26  and  O_27
REMARK                            x       y       z     vdW  Elec       q    Type
REMARK                         _______ _______ _______ _____ _____    ______ ____
ROOT
ATOM      1  C   UNL     1       6.986  -1.818   1.265  0.00  0.00    +0.134 A 
ATOM      2  C   UNL     1       8.237  -2.126   1.859  0.00  0.00    -0.006 A 
ATOM      3  C   UNL     1       8.671  -3.554   2.083  0.00  0.00    +0.047 C 
ATOM      4  C   UNL     1       9.140  -1.090   2.211  0.00  0.00    +0.035 A 
ATOM      5  C   UNL     1       8.826   0.259   1.997  0.00  0.00    +0.071 A 
ATOM      6  C   UNL     1       7.650   0.518   1.296  0.00  0.00    +0.035 A 
ATOM      7  C   UNL     1       6.777  -0.495   0.847  0.00  0.00    -0.006 A 
ATOM      8  C   UNL     1       5.717  -0.023  -0.112  0.00  0.00    +0.047 C 
ENDROOT
BRANCH   5   9
ATOM      9  N   UNL     1       9.705   1.328   2.394  0.00  0.00    -0.182 N 
ATOM     10  C   UNL     1       9.265   2.662   2.532  0.00  0.00    +0.350 A 
ATOM     11  O   UNL     1       8.106   3.065   2.480  0.00  0.00    -0.245 OA
ATOM     12  N   UNL     1      10.229   3.599   2.764  0.00  0.00    -0.272 N 
ATOM     13  H   UNL     1       9.915   4.553   2.852  0.00  0.00    +0.174 HD
ATOM     14  C   UNL     1      11.545   3.318   2.926  0.00  0.00    +0.272 A 
ATOM     15  O   UNL     1      12.420   4.137   3.150  0.00  0.00    -0.266 OA
ATOM     16  C   UNL     1      11.892   1.869   2.832  0.00  0.00    +0.203 A 
ATOM     17  N   UNL     1      11.022   0.943   2.590  0.00  0.00    -0.165 NA
ENDBRANCH   5   9
BRANCH   1  18
ATOM     18  O   UNL     1       6.137  -2.892   1.047  0.00  0.00    -0.455 OA
BRANCH  18  23
ATOM     19  C   UNL     1       2.626  -4.007   0.808  0.00  0.00    +0.000 A 
ATOM     20  C   UNL     1       1.962  -2.783   0.955  0.00  0.00    +0.120 A 
ATOM     21  C   UNL     1       2.648  -1.651   1.374  0.00  0.00    +0.049 A 
ATOM     22  C   UNL     1       4.026  -1.717   1.595  0.00  0.00    +0.050 A 
ATOM     23  C   UNL     1       4.758  -2.815   1.157  0.00  0.00    +0.129 A 
ATOM     24  C   UNL     1       4.042  -3.972   0.799  0.00  0.00    +0.053 A 
BRANCH  19  26
ATOM     25  C   UNL     1       2.684  -6.586   0.816  0.00  0.00    +0.012 C 
ATOM     26  C   UNL     1       1.826  -5.314   0.755  0.00  0.00    +0.017 C 
ATOM     27  C   UNL     1       0.812  -5.382   1.922  0.00  0.00    +0.012 C 
ENDBRANCH  19  26
BRANCH  20  28
ATOM     28  O   UNL     1       0.618  -2.708   0.724  0.00  0.00    -0.506 OA
ATOM     29  H   UNL     1       0.328  -1.787   0.829  0.00  0.00    +0.292 HD
ENDBRANCH  20  28
ENDBRANCH  18  23
ENDBRANCH   1  18
TORSDOF 5
