REMARK  Name = 
REMARK  2 active torsions:
REMARK  status: ('A' for Active; 'I' for Inactive)
REMARK    1  A    between atoms: C_2  and  C_4
REMARK    2  A    between atoms: C_4  and  O_5
REMARK                            x       y       z     vdW  Elec       q    Type
REMARK                         _______ _______ _______ _____ _____    ______ ____
ROOT
ATOM      1  N   UNL     1       1.115   0.070   0.054  0.00  0.00    -0.320 N 
ATOM      2  H   UNL     1       0.648  -0.407   0.820  0.00  0.00    +0.145 HD
ATOM      3  H   UNL     1       0.567   0.518  -0.666  0.00  0.00    +0.145 HD
ATOM      4  C   UNL     1       2.478   0.105  -0.004  0.00  0.00    +0.319 C 
ATOM      5  O   UNL     1       3.134   0.651  -0.881  0.00  0.00    -0.263 OA
ENDROOT
BRANCH   4   6
ATOM      6  C   UNL     1       3.218  -0.609   1.144  0.00  0.00    +0.392 C 
ATOM      7  O   UNL     1       2.640  -1.174   2.053  0.00  0.00    -0.240 OA
BRANCH   6   8
ATOM      8  O   UNL     1       4.550  -0.510   0.982  0.00  0.00    -0.474 OA
ATOM      9  H   UNL     1       4.731   0.002   0.159  0.00  0.00    +0.296 HD
ENDBRANCH   6   8
ENDBRANCH   4   6
TORSDOF 2
