REMARK  Name = 
REMARK  2 active torsions:
REMARK  status: ('A' for Active; 'I' for Inactive)
REMARK    1  A    between atoms: O_1  and  C_2
REMARK    2  A    between atoms: C_2  and  CA_4
REMARK                            x       y       z     vdW  Elec       q    Type
REMARK                         _______ _______ _______ _____ _____    ______ ____
ROOT
ATOM      1  CA  UNL     1       3.297   0.872  -0.755  0.00  0.00    +0.164 C 
ATOM      2  N   UNL     1       3.364   2.055   0.188  0.00  0.00    -0.301 NA
ATOM      3  H   UNL     1       2.525   2.015   0.776  0.00  0.00    +0.123 HD
ATOM      4  C   UNL     1       3.237   3.226  -0.694  0.00  0.00    +0.058 C 
ATOM      5  C   UNL     1       2.211   2.778  -1.721  0.00  0.00    +0.008 C 
ATOM      6  C   UNL     1       2.153   3.786  -2.861  0.00  0.00    +0.005 C 
ATOM      7  C   UNL     1       1.765   5.164  -2.308  0.00  0.00    +0.000 C 
ATOM      8  C   UNL     1       2.627   5.606  -1.114  0.00  0.00    +0.002 C 
ATOM      9  C   UNL     1       2.773   4.521  -0.038  0.00  0.00    +0.019 C 
ATOM     10  C   UNL     1       2.666   1.372  -2.059  0.00  0.00    +0.035 C 
ENDROOT
BRANCH   1  11
ATOM     11  C   UNL     1       4.713   0.332  -0.994  0.00  0.00    +0.322 C 
ATOM     12  OXT UNL     1       4.997  -0.575  -1.760  0.00  0.00    -0.249 OA
BRANCH  11  13
ATOM     13  O   UNL     1       5.634   0.988  -0.242  0.00  0.00    -0.480 OA
ATOM     14  H   UNL     1       5.124   1.660   0.277  0.00  0.00    +0.295 HD
ENDBRANCH  11  13
ENDBRANCH   1  11
TORSDOF 2
