REMARK  Name = 
REMARK  9 active torsions:
REMARK  status: ('A' for Active; 'I' for Inactive)
REMARK    1  A    between atoms: C_2  and  C_3
REMARK    2  A    between atoms: C_2  and  C_7
REMARK    3  A    between atoms: C_2  and  C_12
REMARK    4  A    between atoms: C_3  and  C_4
REMARK    5  A    between atoms: C_4  and  C_5
REMARK    6  A    between atoms: C_4  and  C_6
REMARK    7  A    between atoms: C_7  and  N_8
REMARK    8  A    between atoms: N_8  and  O_9
REMARK    9  A    between atoms: C_12  and  O_13
REMARK                            x       y       z     vdW  Elec       q    Type
REMARK                         _______ _______ _______ _____ _____    ______ ____
ROOT
ATOM      1  C   UNL     1       2.125  -0.117  -0.023  0.00  0.00    +0.117 C 
ENDROOT
BRANCH   1   2
ATOM      2  C   UNL     1       2.617  -0.815   1.227  0.00  0.00    +0.309 C 
ATOM      3  O   UNL     1       3.793  -0.912   1.542  0.00  0.00    -0.251 OA
BRANCH   2   4
ATOM      4  O   UNL     1       1.629  -1.327   1.994  0.00  0.00    -0.480 OA
ATOM      5  H   UNL     1       0.727  -1.212   1.642  0.00  0.00    +0.295 HD
ENDBRANCH   2   4
ENDBRANCH   1   2
BRANCH   1   6
ATOM      6  C   UNL     1       2.572   1.351   0.090  0.00  0.00    +0.154 C 
BRANCH   6   7
ATOM      7  N   UNL     1       2.188   2.182  -1.047  0.00  0.00    -0.186 N 
ATOM      8  C   UNL     1       3.072   2.617  -2.003  0.00  0.00    +0.352 C 
ATOM      9  O   UNL     1       4.293   2.599  -1.914  0.00  0.00    -0.277 OA
BRANCH   7  10
ATOM     10  O   UNL     1       0.852   2.008  -1.468  0.00  0.00    -0.293 OA
ATOM     11  H   UNL     1       0.429   2.821  -1.132  0.00  0.00    +0.242 HD
ENDBRANCH   7  10
ENDBRANCH   6   7
ENDBRANCH   1   6
BRANCH   1  12
ATOM     12  C   UNL     1       2.663  -0.813  -1.285  0.00  0.00    +0.019 C 
BRANCH  12  13
ATOM     13  C   UNL     1       2.217  -2.280  -1.461  0.00  0.00    -0.016 C 
ATOM     14  C   UNL     1       2.853  -2.854  -2.731  0.00  0.00    +0.007 C 
ATOM     15  C   UNL     1       0.696  -2.434  -1.540  0.00  0.00    +0.007 C 
ENDBRANCH  12  13
ENDBRANCH   1  12
TORSDOF 7
