REMARK  Name = 
REMARK  6 active torsions:
REMARK  status: ('A' for Active; 'I' for Inactive)
REMARK    1  A    between atoms: O_1  and  C_2
REMARK    2  A    between atoms: C_2  and  C_3
REMARK    3  A    between atoms: C_6  and  O_8
REMARK    4  A    between atoms: C_9  and  O_11
REMARK    5  A    between atoms: C_12  and  O_14
REMARK    6  A    between atoms: C_15  and  S_17
REMARK                            x       y       z     vdW  Elec       q    Type
REMARK                         _______ _______ _______ _____ _____    ______ ____
ROOT
ATOM      1  C   UNL     1       2.630  -1.682  -0.219  0.00  0.00    +0.162 C 
ATOM      2  C   UNL     1       2.519  -3.160   0.216  0.00  0.00    +0.105 C 
ATOM      3  C   UNL     1       2.211  -3.245   1.721  0.00  0.00    +0.163 C 
ATOM      4  C   UNL     1       3.178  -2.390   2.548  0.00  0.00    +0.200 C 
ATOM      5  C   UNL     1       3.242  -0.966   1.968  0.00  0.00    +0.279 C 
ATOM      6  O   UNL     1       3.609  -1.005   0.598  0.00  0.00    -0.342 OA
ENDROOT
BRANCH   2   7
ATOM      7  S   UNL     1       1.237  -4.065  -0.748  0.00  0.00    -0.170 S 
ATOM      8  H   UNL     1       0.215  -3.235  -0.492  0.00  0.00    +0.102 HD
ENDBRANCH   2   7
BRANCH   3   9
ATOM      9  O   UNL     1       2.299  -4.598   2.193  0.00  0.00    -0.388 OA
ATOM     10  H   UNL     1       2.366  -4.538   3.168  0.00  0.00    +0.210 HD
ENDBRANCH   3   9
BRANCH   4  11
ATOM     11  O   UNL     1       2.734  -2.450   3.913  0.00  0.00    -0.384 OA
ATOM     12  H   UNL     1       2.223  -1.644   4.107  0.00  0.00    +0.210 HD
ENDBRANCH   4  11
BRANCH   5  13
ATOM     13  O   UNL     1       4.218  -0.220   2.673  0.00  0.00    -0.365 OA
ATOM     14  H   UNL     1       4.204   0.665   2.273  0.00  0.00    +0.213 HD
ENDBRANCH   5  13
BRANCH   1  15
ATOM     15  C   UNL     1       3.066  -1.531  -1.691  0.00  0.00    +0.188 C 
BRANCH  15  16
ATOM     16  O   UNL     1       3.042  -0.155  -2.072  0.00  0.00    -0.392 OA
ATOM     17  H   UNL     1       3.473  -0.096  -2.942  0.00  0.00    +0.210 HD
ENDBRANCH  15  16
ENDBRANCH   1  15
TORSDOF 6
