REMARK  Name = 
REMARK  17 active torsions:
REMARK  status: ('A' for Active; 'I' for Inactive)
REMARK    1  A    between atoms: C_2  and  C_4
REMARK    2  A    between atoms: C_7  and  C_9
REMARK    3  A    between atoms: C_12  and  C_14
REMARK    4  A    between atoms: C_14  and  O_15
REMARK    5  A    between atoms: O_15  and  P_16
REMARK    6  A    between atoms: P_16  and  O_17
REMARK    7  A    between atoms: P_16  and  O_19
REMARK    8  A    between atoms: O_19  and  P_20
REMARK    9  A    between atoms: P_20  and  O_21
REMARK   10  A    between atoms: P_20  and  O_23
REMARK   11  A    between atoms: O_23  and  C_24
REMARK   12  A    between atoms: C_24  and  C_25
REMARK   13  A    between atoms: C_28  and  N_36
REMARK   14  A    between atoms: C_30  and  O_32
REMARK   15  A    between atoms: C_33  and  O_35
REMARK   16  A    between atoms: C_46  and  O_48
REMARK   17  A    between atoms: C_49  and  O_51
REMARK                            x       y       z     vdW  Elec       q    Type
REMARK                         _______ _______ _______ _____ _____    ______ ____
ROOT
ATOM      1  P   UNL     1      -6.156 -11.764  -1.071  0.00  0.00    +0.000 P 
ATOM      2  O   UNL     1      -5.494 -13.017  -1.706  0.00  0.00    +0.000 OA
ENDROOT
BRANCH   1   3
ATOM      3  O   UNL     1      -5.344 -11.707   0.467  0.00  0.00    +0.000 OA
ATOM      4  H   UNL     1      -5.837 -11.018   0.983  0.00  0.00    +0.000 HD
ENDBRANCH   1   3
BRANCH   1   5
ATOM      5  O   UNL     1      -7.355 -12.762  -0.324  0.00  0.00    +0.000 OA
BRANCH   5   6
ATOM      6  P   UNL     1      -6.729 -14.251   0.426  0.00  0.00    +0.000 P 
ATOM      7  O   UNL     1      -7.968 -14.991   1.002  0.00  0.00    +0.000 OA
BRANCH   6   8
ATOM      8  O   UNL     1      -5.738 -13.906   1.814  0.00  0.00    +0.000 OA
ATOM      9  H   UNL     1      -5.828 -14.695   2.405  0.00  0.00    +0.000 HD
ENDBRANCH   6   8
BRANCH   6  10
ATOM     10  O   UNL     1      -5.883 -15.347  -0.667  0.00  0.00    +0.000 OA
BRANCH  10  11
ATOM     11  C   UNL     1      -6.776 -16.292  -1.208  0.00  0.00    +0.000 C 
BRANCH  11  15
ATOM     12  C   UNL     1      -5.244 -17.463  -4.258  0.00  0.00    +0.000 C 
ATOM     13  C   UNL     1      -6.448 -18.405  -4.204  0.00  0.00    +0.000 C 
ATOM     14  C   UNL     1      -6.906 -18.322  -2.753  0.00  0.00    +0.000 C 
ATOM     15  C   UNL     1      -6.007 -17.226  -2.158  0.00  0.00    +0.000 C 
ATOM     16  O   UNL     1      -5.425 -16.511  -3.229  0.00  0.00    +0.000 OA
BRANCH  12  19
ATOM     17  C   UNL     1      -2.285 -19.443  -3.272  0.00  0.00    +0.000 A 
ATOM     18  N   UNL     1      -3.521 -18.924  -3.108  0.00  0.00    +0.000 NA
ATOM     19  C   UNL     1      -3.904 -18.165  -4.158  0.00  0.00    +0.000 A 
ATOM     20 SE   UNL     1      -2.690 -18.040  -5.511  0.00  0.00    +0.000 Se
ATOM     21  C   UNL     1      -1.673 -19.102  -4.462  0.00  0.00    +0.000 A 
BRANCH  17  25
ATOM     22  N   UNL     1      -2.256 -20.635  -1.103  0.00  0.00    +0.000 N 
ATOM     23  H   UNL     1      -3.204 -20.295  -0.894  0.00  0.00    +0.000 HD
ATOM     24  H   UNL     1      -1.782 -21.236  -0.413  0.00  0.00    +0.000 HD
ATOM     25  C   UNL     1      -1.631 -20.308  -2.260  0.00  0.00    +0.000 C 
ATOM     26  O   UNL     1      -0.506 -20.736  -2.470  0.00  0.00    +0.000 OA
ENDBRANCH  17  25
ENDBRANCH  12  19
BRANCH  14  27
ATOM     27  O   UNL     1      -6.725 -19.543  -2.087  0.00  0.00    +0.000 OA
ATOM     28  H   UNL     1      -7.205 -19.461  -1.221  0.00  0.00    +0.000 HD
ENDBRANCH  14  27
BRANCH  13  29
ATOM     29  O   UNL     1      -7.471 -17.927  -5.053  0.00  0.00    +0.000 OA
ATOM     30  H   UNL     1      -7.642 -16.970  -4.844  0.00  0.00    +0.000 HD
ENDBRANCH  13  29
ENDBRANCH  11  15
ENDBRANCH  10  11
ENDBRANCH   6  10
ENDBRANCH   5   6
ENDBRANCH   1   5
BRANCH   1  31
ATOM     31  O   UNL     1      -4.957 -10.765  -1.818  0.00  0.00    +0.000 OA
BRANCH  31  32
ATOM     32  C   UNL     1      -3.612 -11.161  -1.496  0.00  0.00    +0.000 C 
BRANCH  32  33
ATOM     33  C   UNL     1      -2.561 -10.237  -2.132  0.00  0.00    +0.000 C 
ATOM     34  C   UNL     1      -1.133 -10.646  -1.729  0.00  0.00    +0.000 C 
ATOM     35  C   UNL     1      -0.664 -11.523  -2.884  0.00  0.00    +0.000 C 
ATOM     36  C   UNL     1      -1.798 -11.379  -3.912  0.00  0.00    +0.000 C 
ATOM     37  O   UNL     1      -2.600 -10.273  -3.544  0.00  0.00    +0.000 OA
BRANCH  36  38
ATOM     38  N   UNL     1      -1.272 -11.212  -5.266  0.00  0.00    +0.000 N 
ATOM     39  C   UNL     1      -0.496 -10.225  -5.746  0.00  0.00    +0.000 A 
ATOM     40  N   UNL     1      -0.012  -9.147  -5.082  0.00  0.00    +0.000 NA
ATOM     41  C   UNL     1       0.766  -8.264  -5.775  0.00  0.00    +0.000 A 
ATOM     42  N   UNL     1       1.043  -8.471  -7.102  0.00  0.00    +0.000 NA
ATOM     43  C   UNL     1       0.555  -9.560  -7.772  0.00  0.00    +0.000 A 
ATOM     44  N   UNL     1       0.851  -9.755  -9.140  0.00  0.00    +0.000 N 
ATOM     45  H   UNL     1       0.483 -10.572  -9.649  0.00  0.00    +0.000 HD
ATOM     46  H   UNL     1       1.439  -9.076  -9.643  0.00  0.00    +0.000 HD
ATOM     47  C   UNL     1      -0.237 -10.453  -7.055  0.00  0.00    +0.000 A 
ATOM     48  N   UNL     1      -0.835 -11.590  -7.454  0.00  0.00    +0.000 NA
ATOM     49  C   UNL     1      -1.465 -12.031  -6.331  0.00  0.00    +0.000 A 
ENDBRANCH  36  38
BRANCH  35  50
ATOM     50  O   UNL     1      -0.507 -12.862  -2.493  0.00  0.00    +0.000 OA
ATOM     51  H   UNL     1       0.039 -13.297  -3.200  0.00  0.00    +0.000 HD
ENDBRANCH  35  50
BRANCH  34  52
ATOM     52  O   UNL     1      -0.308  -9.507  -1.625  0.00  0.00    +0.000 OA
ATOM     53  H   UNL     1      -0.436  -8.944  -2.429  0.00  0.00    +0.000 HD
ENDBRANCH  34  52
ENDBRANCH  32  33
ENDBRANCH  31  32
ENDBRANCH   1  31
TORSDOF 17
