REMARK  Name = 
REMARK  11 active torsions:
REMARK  status: ('A' for Active; 'I' for Inactive)
REMARK    1  A    between atoms: C_10  and  C_12
REMARK    2  A    between atoms: C_12  and  N_13
REMARK    3  A    between atoms: N_13  and  C_14
REMARK    4  A    between atoms: C_17  and  C_20
REMARK    5  A    between atoms: N_22  and  CA_23
REMARK    6  A    between atoms: CA_23  and  CB_25
REMARK    7  A    between atoms: CA_23  and  C_30
REMARK    8  A    between atoms: CB_25  and  CG_26
REMARK    9  A    between atoms: CG_26  and  CD_27
REMARK   10  A    between atoms: CD_27  and  OE1_28
REMARK   11  A    between atoms: C_30  and  O_31
REMARK                            x       y       z     vdW  Elec       q    Type
REMARK                         _______ _______ _______ _____ _____    ______ ____
ROOT
ATOM      1  N   UNK A   0      12.129   2.552   4.090  0.00  0.00    -0.342 N 
ATOM      2  H   UNK A   0      11.454   1.824   4.324  0.00  0.00    +0.146 HD
ENDROOT
BRANCH   1   3
ATOM      3  C   UNK A   0      12.915   2.859   5.210  0.00  0.00    +0.027 A 
ATOM      4  C   UNK A   0      12.343   2.684   6.479  0.00  0.00    +0.023 A 
ATOM      5  C   UNK A   0      13.005   3.064   7.656  0.00  0.00    +0.015 A 
ATOM      6  C   UNK A   0      14.262   3.667   7.590  0.00  0.00    +0.037 A 
ATOM      7  C   UNK A   0      14.836   3.867   6.326  0.00  0.00    +0.015 A 
ATOM      8  C   UNK A   0      14.165   3.479   5.153  0.00  0.00    +0.023 A 
BRANCH   6   9
ATOM      9  C   UNK A   0      14.981   4.203   8.791  0.00  0.00    +0.245 C 
ATOM     10  N   GLU A   1      14.411   4.000  10.036  0.00  0.00    -0.298 N 
ATOM     11  H   GLU A   1      13.748   3.245  10.164  0.00  0.00    +0.150 HD
ATOM     12  O   UNK A   0      16.031   4.823   8.657  0.00  0.00    -0.270 OA
BRANCH  10  13
ATOM     13  CA  GLU A   1      14.992   4.593  11.260  0.00  0.00    +0.182 C 
BRANCH  13  14
ATOM     14  C   GLU A   1      13.845   5.067  12.174  0.00  0.00    +0.325 C 
ATOM     15  OXT GLU A   1      13.946   5.309  13.366  0.00  0.00    -0.249 OA
BRANCH  14  16
ATOM     16  O   GLU A   1      12.687   5.274  11.492  0.00  0.00    -0.479 OA
ATOM     17  H   GLU A   1      12.847   5.173  10.532  0.00  0.00    +0.295 HD
ENDBRANCH  14  16
ENDBRANCH  13  14
BRANCH  13  18
ATOM     18  CB  GLU A   1      15.912   3.629  12.015  0.00  0.00    +0.045 C 
BRANCH  18  19
ATOM     19  CG  GLU A   1      17.126   3.181  11.203  0.00  0.00    +0.123 C 
BRANCH  19  20
ATOM     20  CD  GLU A   1      18.027   2.270  12.001  0.00  0.00    +0.305 C 
ATOM     21  OE2 GLU A   1      17.819   1.897  13.145  0.00  0.00    -0.251 OA
BRANCH  20  22
ATOM     22  OE1 GLU A   1      19.108   1.868  11.294  0.00  0.00    -0.481 OA
ATOM     23  HE1 GLU A   1      19.144   2.238  10.391  0.00  0.00    +0.295 HD
ENDBRANCH  20  22
ENDBRANCH  19  20
ENDBRANCH  18  19
ENDBRANCH  13  18
ENDBRANCH  10  13
ENDBRANCH   6   9
ENDBRANCH   1   3
BRANCH   1  24
ATOM     24  C   UNK A   0      12.771   2.289   2.794  0.00  0.00    +0.126 C 
BRANCH  24  35
ATOM     25  N   UNK A   0      14.810   5.515  -2.435  0.00  0.00    -0.329 N 
ATOM     26  H   UNK A   0      14.181   6.209  -2.819  0.00  0.00    +0.145 HD
ATOM     27  H   UNK A   0      15.499   5.226  -3.124  0.00  0.00    +0.145 HD
ATOM     28  C   UNK A   0      14.216   4.441  -1.862  0.00  0.00    +0.195 A 
ATOM     29  N   UNK A   0      13.175   4.747  -1.064  0.00  0.00    -0.315 N 
ATOM     30  H   UNK A   0      12.954   5.710  -0.872  0.00  0.00    +0.170 HD
ATOM     31  C   UNK A   0      12.545   3.804  -0.306  0.00  0.00    +0.126 A 
ATOM     32  N   UNK A   0      11.553   4.202   0.570  0.00  0.00    -0.327 N 
ATOM     33  H   UNK A   0      11.618   5.149   0.926  0.00  0.00    +0.148 HD
ATOM     34  C   UNK A   0      10.836   3.243   1.399  0.00  0.00    +0.127 C 
ATOM     35  C   UNK A   0      11.714   2.011   1.688  0.00  0.00    +0.115 C 
ATOM     36  N   UNK A   0      12.367   1.526   0.441  0.00  0.00    -0.261 N 
ATOM     37  C   UNK A   0      12.505   0.155   0.299  0.00  0.00    +0.333 C 
ATOM     38  O   UNK A   0      12.154  -0.665   1.143  0.00  0.00    -0.279 OA
ATOM     39  C   UNK A   0      12.919   2.500  -0.417  0.00  0.00    +0.142 A 
ATOM     40  C   UNK A   0      14.019   2.196  -1.436  0.00  0.00    +0.298 A 
ATOM     41  O   UNK A   0      14.374   1.040  -1.645  0.00  0.00    -0.264 OA
ATOM     42  N   UNK A   0      14.652   3.246  -2.068  0.00  0.00    -0.176 NA
ENDBRANCH  24  35
ENDBRANCH   1  24
TORSDOF 11
