REMARK  Name = 
REMARK  11 active torsions:
REMARK  status: ('A' for Active; 'I' for Inactive)
REMARK    1  A    between atoms: C_1  and  C_2
REMARK    2  A    between atoms: C_2  and  C_4
REMARK    3  A    between atoms: C_2  and  C_15
REMARK    4  A    between atoms: C_4  and  P_5
REMARK    5  A    between atoms: P_5  and  O_6
REMARK    6  A    between atoms: P_5  and  C_8
REMARK    7  A    between atoms: C_8  and  N_10
REMARK    8  A    between atoms: C_8  and  C_11
REMARK    9  A    between atoms: C_11  and  C_12
REMARK   10  A    between atoms: C_12  and  O_13
REMARK   11  A    between atoms: C_15  and  O_16
REMARK                            x       y       z     vdW  Elec       q    Type
REMARK                         _______ _______ _______ _____ _____    ______ ____
ROOT
ATOM      1  P   UNL     1       2.951   2.714  -4.023  0.00  0.00    +0.220 P 
ATOM      2  O   UNL     1       2.967   2.210  -5.438  0.00  0.00    -0.289 OA
ENDROOT
BRANCH   1   3
ATOM      3  O   UNL     1       3.104   4.324  -3.905  0.00  0.00    -0.343 OA
ATOM      4  H   UNL     1       2.561   4.668  -3.156  0.00  0.00    +0.218 HD
ENDBRANCH   1   3
BRANCH   1   5
ATOM      5  C   UNL     1       4.351   2.155  -3.067  0.00  0.00    +0.113 C 
BRANCH   5   7
ATOM      6  C   UNL     1       5.771   1.139  -4.971  0.00  0.00    +0.020 C 
ATOM      7  C   UNL     1       5.089   0.928  -3.618  0.00  0.00    +0.104 C 
BRANCH   7   8
ATOM      8  C   UNL     1       4.157  -0.260  -3.610  0.00  0.00    +0.308 C 
ATOM      9  O   UNL     1       4.113  -1.058  -2.682  0.00  0.00    -0.251 OA
BRANCH   8  10
ATOM     10  O   UNL     1       3.253  -0.296  -4.609  0.00  0.00    -0.480 OA
ATOM     11  H   UNL     1       3.280   0.446  -5.267  0.00  0.00    +0.295 HD
ENDBRANCH   8  10
ENDBRANCH   7   8
ENDBRANCH   5   7
ENDBRANCH   1   5
BRANCH   1  12
ATOM     12  C   UNL     1       1.343   2.412  -3.218  0.00  0.00    +0.149 C 
BRANCH  12  13
ATOM     13  N   UNL     1       1.001   3.696  -2.540  0.00  0.00    -0.319 NA
ATOM     14  H   UNL     1       0.656   4.334  -3.272  0.00  0.00    +0.119 HD
ATOM     15  H   UNL     1       0.131   3.523  -2.008  0.00  0.00    +0.119 HD
ENDBRANCH  12  13
BRANCH  12  16
ATOM     16  C   UNL     1       1.306   1.191  -2.312  0.00  0.00    +0.148 C 
BRANCH  16  17
ATOM     17  C   UNL     1      -0.068   0.890  -1.787  0.00  0.00    +0.307 C 
ATOM     18  O   UNL     1      -1.038   1.623  -1.902  0.00  0.00    -0.251 OA
BRANCH  17  19
ATOM     19  O   UNL     1      -0.124  -0.291  -1.123  0.00  0.00    -0.481 OA
ATOM     20  H   UNL     1       0.724  -0.786  -1.105  0.00  0.00    +0.295 HD
ENDBRANCH  17  19
ENDBRANCH  16  17
ENDBRANCH  12  16
ENDBRANCH   1  12
TORSDOF 10
