REMARK  Name = 
REMARK  12 active torsions:
REMARK  status: ('A' for Active; 'I' for Inactive)
REMARK    1  A    between atoms: C_1  and  C_2
REMARK    2  A    between atoms: N_4  and  C_5
REMARK    3  A    between atoms: C_5  and  C_19
REMARK    4  A    between atoms: C_6  and  C_7
REMARK    5  A    between atoms: C_10  and  C_11
REMARK    6  A    between atoms: C_11  and  C_12
REMARK    7  A    between atoms: C_12  and  O_13
REMARK    8  A    between atoms: C_15  and  C_16
REMARK    9  A    between atoms: N_21  and  C_22
REMARK   10  A    between atoms: N_28  and  C_29
REMARK   11  A    between atoms: C_29  and  C_30
REMARK   12  A    between atoms: C_33  and  C_36
REMARK                            x       y       z     vdW  Elec       q    Type
REMARK                         _______ _______ _______ _____ _____    ______ ____
ROOT
ATOM      1  C   UNL     1       7.261   2.041   3.476  0.00  0.00    +0.259 C 
ATOM      2  N   UNL     1       7.799   3.210   2.993  0.00  0.00    -0.299 N 
ATOM      3  H   UNL     1       8.165   3.914   3.613  0.00  0.00    +0.150 HD
ATOM      4  O   UNL     1       6.609   1.258   2.790  0.00  0.00    -0.269 OA
ENDROOT
BRANCH   2   5
ATOM      5  C   UNL     1       7.864   3.515   1.560  0.00  0.00    +0.159 C 
ATOM      6  C   UNL     1       7.159   4.840   1.207  0.00  0.00    +0.236 C 
ATOM      7  O   UNL     1       6.612   5.001   0.117  0.00  0.00    -0.274 OA
ATOM      8  N   UNL     1       7.545   5.910   2.032  0.00  0.00    -0.296 N 
ATOM      9  C   UNL     1       8.562   6.783   1.454  0.00  0.00    +0.108 C 
ATOM     10  C   UNL     1       9.745   6.041   0.817  0.00  0.00    +0.019 C 
ATOM     11  C   UNL     1      10.155   4.759   1.548  0.00  0.00    +0.004 C 
ATOM     12  C   UNL     1       9.333   3.536   1.102  0.00  0.00    +0.032 C 
BRANCH   8  13
ATOM     13  C   UNL     1       6.501   6.571   2.835  0.00  0.00    +0.143 C 
BRANCH  13  14
ATOM     14  C   UNL     1       5.737   7.693   2.161  0.00  0.00    -0.030 A 
ATOM     15  C   UNL     1       5.769   9.013   2.634  0.00  0.00    +0.006 A 
ATOM     16  C   UNL     1       5.140  10.054   1.920  0.00  0.00    +0.009 A 
ATOM     17  C   UNL     1       4.482   9.815   0.702  0.00  0.00    -0.018 A 
ATOM     18  C   UNL     1       4.378   8.474   0.304  0.00  0.00    +0.009 A 
ATOM     19  C   UNL     1       4.967   7.434   1.029  0.00  0.00    +0.006 A 
BRANCH  17  20
ATOM     20  C   UNL     1       3.990  10.896  -0.195  0.00  0.00    -0.018 A 
ATOM     21  C   UNL     1       4.648  12.137  -0.284  0.00  0.00    +0.008 A 
ATOM     22  C   UNL     1       4.286  13.091  -1.244  0.00  0.00    +0.001 A 
ATOM     23  C   UNL     1       3.257  12.828  -2.143  0.00  0.00    +0.000 A 
ATOM     24  C   UNL     1       2.567  11.625  -2.059  0.00  0.00    +0.001 A 
ATOM     25  C   UNL     1       2.919  10.683  -1.086  0.00  0.00    +0.008 A 
ENDBRANCH  17  20
ENDBRANCH  13  14
ENDBRANCH   8  13
ENDBRANCH   2   5
BRANCH   1  26
ATOM     26  C   UNL     1       7.428   1.768   4.953  0.00  0.00    +0.096 C 
ATOM     27  C   UNL     1       8.376   2.398   5.684  0.00  0.00    +0.036 C 
BRANCH  27  28
ATOM     28  C   UNL     1       8.422   2.436   7.147  0.00  0.00    -0.022 A 
ATOM     29  C   UNL     1       9.051   1.459   7.914  0.00  0.00    +0.019 A 
ATOM     30  C   UNL     1       9.063   1.556   9.314  0.00  0.00    +0.018 A 
ATOM     31  C   UNL     1       8.468   2.654   9.966  0.00  0.00    -0.027 A 
ATOM     32  C   UNL     1       7.857   3.641   9.176  0.00  0.00    +0.005 A 
ATOM     33  C   UNL     1       7.825   3.528   7.786  0.00  0.00    +0.008 A 
BRANCH  30  34
ATOM     34  C   UNL     1       9.717   0.448  10.042  0.00  0.00    +0.259 C 
ATOM     35  O   UNL     1      10.177   0.600  11.169  0.00  0.00    -0.296 OA
ENDBRANCH  30  34
BRANCH  31  36
ATOM     36  C   UNL     1       8.447   2.831  11.467  0.00  0.00    +0.156 C 
BRANCH  36  37
ATOM     37  C   UNL     1       9.629   3.610  11.999  0.00  0.00    +0.309 C 
ATOM     38  O   UNL     1       9.614   4.822  12.168  0.00  0.00    -0.251 OA
BRANCH  37  39
ATOM     39  O   UNL     1      10.722   2.859  12.256  0.00  0.00    -0.480 OA
ATOM     40  H   UNL     1      10.608   1.906  12.010  0.00  0.00    +0.295 HD
ENDBRANCH  37  39
ENDBRANCH  36  37
ENDBRANCH  31  36
ENDBRANCH  27  28
BRANCH  26  43
ATOM     41  C   UNL     1       5.977  -1.393   6.319  0.00  0.00    +0.109 C 
ATOM     42  C   UNL     1       7.049  -0.423   5.897  0.00  0.00    +0.214 C 
ATOM     43  N   UNL     1       6.563   0.809   5.472  0.00  0.00    -0.282 N 
ATOM     44  H   UNL     1       5.717   0.701   4.916  0.00  0.00    +0.155 HD
ATOM     45  O   UNL     1       8.235  -0.740   5.948  0.00  0.00    -0.276 OA
ENDBRANCH  26  43
ENDBRANCH   1  26
TORSDOF 11
