REMARK  Name = 
REMARK  1 active torsions:
REMARK  status: ('A' for Active; 'I' for Inactive)
REMARK    1  A    between atoms: O_1  and  C_2
REMARK                            x       y       z     vdW  Elec       q    Type
REMARK                         _______ _______ _______ _____ _____    ______ ____
ROOT
ATOM      1  C   UNL     1       2.446   0.075   0.013  0.00  0.00    +0.135 A 
ATOM      2  C   UNL     1       3.164  -1.124  -0.051  0.00  0.00    +0.082 A 
ATOM      3 CL   UNL     1       2.371  -2.655   0.017  0.00  0.00    -0.080 Cl
ATOM      4  C   UNL     1       4.554  -1.096  -0.174  0.00  0.00    +0.023 A 
ATOM      5  C   UNL     1       5.225   0.127  -0.231  0.00  0.00    +0.002 A 
ATOM      6  C   UNL     1       4.507   1.321  -0.165  0.00  0.00    +0.004 A 
ATOM      7  C   UNL     1       3.115   1.298  -0.043  0.00  0.00    +0.047 A 
ENDROOT
BRANCH   1   8
ATOM      8  O   UNL     1       1.083   0.051   0.131  0.00  0.00    -0.505 OA
ATOM      9  H   UNL     1       0.746   0.961   0.148  0.00  0.00    +0.292 HD
ENDBRANCH   1   8
TORSDOF 1
