REMARK  Name = 
REMARK  17 active torsions:
REMARK  status: ('A' for Active; 'I' for Inactive)
REMARK    1  A    between atoms: C_1  and  O_2
REMARK    2  A    between atoms: O_2  and  C_3
REMARK    3  A    between atoms: C_5  and  C_6
REMARK    4  A    between atoms: C_7  and  S_12
REMARK    5  A    between atoms: C_8  and  C_9
REMARK    6  A    between atoms: C_10  and  C_11
REMARK    7  A    between atoms: S_12  and  N_15
REMARK    8  A    between atoms: N_15  and  C_16
REMARK    9  A    between atoms: C_16  and  C_18
REMARK   10  A    between atoms: C_16  and  C_22
REMARK   11  A    between atoms: C_18  and  C_19
REMARK   12  A    between atoms: C_19  and  O_20
REMARK   13  A    between atoms: N_24  and  C_25
REMARK   14  A    between atoms: C_25  and  C_27
REMARK   15  A    between atoms: C_25  and  C_37
REMARK   16  A    between atoms: C_27  and  C_28
REMARK   17  A    between atoms: C_31  and  C_34
REMARK                            x       y       z     vdW  Elec       q    Type
REMARK                         _______ _______ _______ _____ _____    ______ ____
ROOT
ATOM      1  C   UNL     1       9.101   6.329  -1.449  0.00  0.00    +0.233 C 
ATOM      2  N   UNL     1       9.827   7.136  -2.290  0.00  0.00    -0.302 N 
ATOM      3  H   UNL     1       9.535   8.082  -2.511  0.00  0.00    +0.150 HD
ATOM      4  O   UNL     1       9.565   5.246  -1.075  0.00  0.00    -0.274 OA
ENDROOT
BRANCH   1   5
ATOM      5  C   UNL     1       7.707   6.781  -0.936  0.00  0.00    +0.173 C 
BRANCH   5   6
ATOM      6  N   UNL     1       7.272   8.123  -1.444  0.00  0.00    -0.178 NA
ATOM      7  H   UNL     1       7.598   8.326  -2.394  0.00  0.00    +0.149 HD
BRANCH   6   8
ATOM      8  S   UNL     1       5.577   8.448  -1.532  0.00  0.00    +0.060 S 
ATOM      9  O   UNL     1       5.424   9.236  -2.737  0.00  0.00    -0.153 OA
ATOM     10  O   UNL     1       4.913   7.176  -1.418  0.00  0.00    -0.153 OA
BRANCH   8  16
ATOM     11  C   UNL     1       4.825  11.437   1.964  0.00  0.00    +0.124 A 
ATOM     12  C   UNL     1       4.049  10.267   1.916  0.00  0.00    -0.004 A 
ATOM     13  C   UNL     1       3.004  10.102   3.006  0.00  0.00    +0.048 C 
ATOM     14  C   UNL     1       4.247   9.306   0.867  0.00  0.00    -0.018 A 
ATOM     15  C   UNL     1       3.360   8.084   0.925  0.00  0.00    +0.046 C 
ATOM     16  C   UNL     1       5.236   9.564  -0.135  0.00  0.00    +0.112 A 
ATOM     17  C   UNL     1       5.976  10.780  -0.083  0.00  0.00    -0.020 A 
ATOM     18  C   UNL     1       6.941  11.235  -1.154  0.00  0.00    +0.046 C 
ATOM     19  C   UNL     1       5.773  11.680   0.979  0.00  0.00    +0.051 A 
BRANCH  11  21
ATOM     20  C   UNL     1       4.845  13.647   2.831  0.00  0.00    +0.277 C 
ATOM     21  O   UNL     1       4.634  12.257   3.049  0.00  0.00    -0.495 OA
ENDBRANCH  11  21
ENDBRANCH   8  16
ENDBRANCH   6   8
ENDBRANCH   5   6
BRANCH   5  22
ATOM     22  C   UNL     1       7.867   6.749   0.583  0.00  0.00    +0.150 C 
BRANCH  22  23
ATOM     23  C   UNL     1       6.611   6.860   1.380  0.00  0.00    +0.307 C 
ATOM     24  O   UNL     1       5.701   6.048   1.345  0.00  0.00    -0.251 OA
BRANCH  23  25
ATOM     25  O   UNL     1       6.597   7.926   2.210  0.00  0.00    -0.481 OA
ATOM     26  H   UNL     1       7.340   8.551   2.113  0.00  0.00    +0.295 HD
ENDBRANCH  23  25
ENDBRANCH  22  23
ENDBRANCH   5  22
ENDBRANCH   1   5
BRANCH   2  27
ATOM     27  C   UNL     1      11.208   6.784  -2.734  0.00  0.00    +0.163 C 
BRANCH  27  28
ATOM     28  C   UNL     1      11.816   8.012  -3.473  0.00  0.00    +0.236 C 
ATOM     29  N   UNL     1      13.154   7.994  -3.862  0.00  0.00    -0.300 N 
ATOM     30  C   UNL     1      14.122   6.933  -3.580  0.00  0.00    +0.108 C 
ATOM     31  C   UNL     1      15.372   7.471  -2.896  0.00  0.00    +0.019 C 
ATOM     32  C   UNL     1      15.971   8.649  -3.652  0.00  0.00    +0.003 C 
ATOM     33  C   UNL     1      14.912   9.717  -3.915  0.00  0.00    +0.019 C 
ATOM     34  C   UNL     1      13.698   9.121  -4.627  0.00  0.00    +0.108 C 
ATOM     35  O   UNL     1      11.099   9.003  -3.666  0.00  0.00    -0.274 OA
ENDBRANCH  27  28
BRANCH  27  36
ATOM     36  C   UNL     1      11.267   5.478  -3.562  0.00  0.00    +0.067 C 
BRANCH  36  37
ATOM     37  C   UNL     1      10.400   5.488  -4.791  0.00  0.00    -0.045 A 
ATOM     38  C   UNL     1       9.087   5.020  -4.698  0.00  0.00    +0.004 A 
ATOM     39  C   UNL     1       8.236   5.096  -5.794  0.00  0.00    +0.016 A 
ATOM     40  C   UNL     1       8.695   5.631  -6.998  0.00  0.00    +0.065 A 
ATOM     41  C   UNL     1      10.027   6.049  -7.120  0.00  0.00    +0.016 A 
ATOM     42  C   UNL     1      10.878   5.979  -6.014  0.00  0.00    +0.004 A 
BRANCH  40  43
ATOM     43  C   UNL     1       7.756   5.794  -8.137  0.00  0.00    +0.308 C 
ATOM     44  N   UNL     1       6.488   6.000  -7.973  0.00  0.00    -0.099 NA
ATOM     45  H   UNL     1       6.246   6.084  -6.982  0.00  0.00    +0.363 HD
ATOM     46  N   UNL     1       8.199   5.739  -9.422  0.00  0.00    -0.247 N 
ATOM     47  H   UNL     1       7.406   5.691 -10.057  0.00  0.00    +0.288 HD
ATOM     48  H   UNL     1       8.887   5.022  -9.615  0.00  0.00    +0.288 HD
ENDBRANCH  40  43
ENDBRANCH  36  37
ENDBRANCH  27  36
ENDBRANCH   2  27
TORSDOF 13
