REMARK  Name = 
REMARK  11 active torsions:
REMARK  status: ('A' for Active; 'I' for Inactive)
REMARK    1  A    between atoms: C_1  and  C_2
REMARK    2  A    between atoms: C_2  and  C_3
REMARK    3  A    between atoms: C_5  and  CA_13
REMARK    4  A    between atoms: CA_8  and  C_10
REMARK    5  A    between atoms: C_10  and  O_11
REMARK    6  A    between atoms: CA_13  and  N_15
REMARK    7  A    between atoms: CA_13  and  C_28
REMARK    8  A    between atoms: C_16  and  CA_18
REMARK    9  A    between atoms: CA_18  and  N_20
REMARK   10  A    between atoms: CA_18  and  C_21
REMARK   11  A    between atoms: C_24  and  O_25
REMARK                            x       y       z     vdW  Elec       q    Type
REMARK                         _______ _______ _______ _____ _____    ______ ____
ROOT
ATOM      1  N   UNL     1       5.903   2.447   1.964  0.00  0.00    -0.302 N 
ATOM      2  H   UNL     1       5.510   3.154   1.342  0.00  0.00    +0.150 HD
ATOM      3  C   UNL     1       6.994   2.868   2.701  0.00  0.00    +0.235 C 
ATOM      4  O   UNL     1       7.359   2.274   3.714  0.00  0.00    -0.274 OA
ENDROOT
BRANCH   1   5
ATOM      5  CA  UNL     1       5.080   1.318   2.397  0.00  0.00    +0.163 C 
BRANCH   5  11
ATOM      6  C   UNL     1       3.520  -3.150   0.124  0.00  0.00    +0.024 C 
ATOM      7  C   UNL     1       3.593  -1.624   0.039  0.00  0.00    +0.038 C 
ATOM      8  CA  UNL     1       4.900  -1.038  -0.537  0.00  0.00    +0.180 C 
ATOM      9  N   UNL     1       5.253   0.270   0.099  0.00  0.00    -0.290 NA
ATOM     10  H   UNL     1       6.235   0.299   0.381  0.00  0.00    +0.124 HD
ATOM     11  C   UNL     1       4.362   0.613   1.217  0.00  0.00    +0.141 C 
ATOM     12  S   UNL     1       3.576  -0.941   1.731  0.00  0.00    -0.131 S 
ATOM     13  C   UNL     1       2.371  -1.099  -0.731  0.00  0.00    +0.024 C 
BRANCH   8  14
ATOM     14  C   UNL     1       6.094  -2.001  -0.460  0.00  0.00    +0.323 C 
ATOM     15  OXT UNL     1       6.571  -2.573  -1.426  0.00  0.00    -0.249 OA
BRANCH  14  16
ATOM     16  O   UNL     1       6.587  -2.156   0.790  0.00  0.00    -0.479 OA
ATOM     17  H   UNL     1       6.027  -1.729   1.468  0.00  0.00    +0.295 HD
ENDBRANCH  14  16
ENDBRANCH   8  14
ENDBRANCH   5  11
BRANCH   5  18
ATOM     18  C   UNL     1       4.047   1.798   3.410  0.00  0.00    +0.247 C 
ATOM     19  O   UNL     1       3.494   2.894   3.371  0.00  0.00    -0.299 OA
ENDBRANCH   5  18
ENDBRANCH   1   5
BRANCH   3  20
ATOM     20  CA  UNL     1       7.719   4.127   2.147  0.00  0.00    +0.168 C 
BRANCH  20  21
ATOM     21  C   UNL     1       7.370   5.439   2.836  0.00  0.00    -0.022 A 
ATOM     22  C   UNL     1       8.063   6.611   2.465  0.00  0.00    +0.009 A 
ATOM     23  C   UNL     1       7.754   7.847   3.035  0.00  0.00    +0.046 A 
ATOM     24  C   UNL     1       6.760   7.928   3.997  0.00  0.00    +0.117 A 
ATOM     25  C   UNL     1       6.086   6.787   4.415  0.00  0.00    +0.046 A 
ATOM     26  C   UNL     1       6.388   5.548   3.835  0.00  0.00    +0.009 A 
BRANCH  24  27
ATOM     27  O   UNL     1       6.470   9.157   4.510  0.00  0.00    -0.507 OA
ATOM     28  H   UNL     1       5.689   9.073   5.081  0.00  0.00    +0.292 HD
ENDBRANCH  24  27
ENDBRANCH  20  21
BRANCH  20  29
ATOM     29  N   UNL     1       7.464   4.215   0.685  0.00  0.00    -0.316 NA
ATOM     30  H1  UNL     1       8.021   4.980   0.308  0.00  0.00    +0.119 HD
ATOM     31  H2  UNL     1       7.836   3.370   0.253  0.00  0.00    +0.119 HD
ENDBRANCH  20  29
ENDBRANCH   3  20
TORSDOF 9
