REMARK  Name = 
REMARK  16 active torsions:
REMARK  status: ('A' for Active; 'I' for Inactive)
REMARK    1  A    between atoms: C_2  and  C_3
REMARK    2  A    between atoms: C_2  and  O_8
REMARK    3  A    between atoms: C_2  and  C_10
REMARK    4  A    between atoms: C_3  and  C_4
REMARK    5  A    between atoms: C_4  and  C_5
REMARK    6  A    between atoms: C_5  and  C_6
REMARK    7  A    between atoms: C_6  and  C_7
REMARK    8  A    between atoms: O_8  and  O_9
REMARK    9  A    between atoms: C_11  and  C_12
REMARK   10  A    between atoms: C_21  and  C_23
REMARK   11  A    between atoms: C_23  and  C_24
REMARK   12  A    between atoms: C_25  and  C_26
REMARK   13  A    between atoms: C_26  and  C_27
REMARK   14  A    between atoms: C_27  and  C_28
REMARK   15  A    between atoms: C_28  and  C_29
REMARK   16  A    between atoms: C_29  and  O_30
REMARK                            x       y       z     vdW  Elec       q    Type
REMARK                         _______ _______ _______ _____ _____    ______ ____
ROOT
ATOM      1  C   UNL     1       4.192  -2.309  -2.055  0.00  0.00    +0.049 C 
ATOM      2  C   UNL     1       3.949  -1.977  -3.557  0.00  0.00    +0.034 C 
ATOM      3  C   UNL     1       3.101  -3.184  -4.011  0.00  0.00    +0.163 C 
ATOM      4  O   UNL     1       3.944  -4.349  -4.033  0.00  0.00    -0.231 OA
ATOM      5  O   UNL     1       4.175  -4.640  -2.597  0.00  0.00    -0.230 OA
ATOM      6  C   UNL     1       2.211  -3.488  -2.834  0.00  0.00    +0.070 C 
ATOM      7  C   UNL     1       3.402  -3.628  -1.915  0.00  0.00    +0.166 C 
ENDROOT
BRANCH   1   9
ATOM      8  C   UNL     1       2.611  -1.025  -0.513  0.00  0.00    +0.003 C 
ATOM      9  C   UNL     1       3.778  -1.152  -1.169  0.00  0.00    -0.022 C 
BRANCH   8  10
ATOM     10  C   UNL     1       2.207   0.145   0.347  0.00  0.00    +0.179 C 
BRANCH  10  11
ATOM     11  O   UNL     1       0.818   0.376   0.054  0.00  0.00    -0.230 OA
BRANCH  11  12
ATOM     12  O   UNL     1       0.467   1.658   0.648  0.00  0.00    -0.250 OA
ATOM     13  H   UNL     1      -0.499   1.547   0.569  0.00  0.00    +0.253 HD
ENDBRANCH  11  12
ENDBRANCH  10  11
BRANCH  10  14
ATOM     14  C   UNL     1       2.373  -0.175   1.839  0.00  0.00    +0.039 C 
BRANCH  14  15
ATOM     15  C   UNL     1       3.827  -0.431   2.241  0.00  0.00    +0.003 C 
BRANCH  15  16
ATOM     16  C   UNL     1       3.942  -0.690   3.740  0.00  0.00    -0.000 C 
BRANCH  16  17
ATOM     17  C   UNL     1       5.389  -0.957   4.147  0.00  0.00    -0.003 C 
ATOM     18  C   UNL     1       5.494  -1.230   5.638  0.00  0.00    +0.004 C 
ENDBRANCH  16  17
ENDBRANCH  15  16
ENDBRANCH  14  15
ENDBRANCH  10  14
ENDBRANCH   8  10
ENDBRANCH   1   9
BRANCH   2  19
ATOM     19  C   UNL     1       5.258  -1.823  -4.339  0.00  0.00    +0.033 C 
BRANCH  19  20
ATOM     20  C   UNL     1       5.017  -1.479  -5.787  0.00  0.00    -0.031 C 
ATOM     21  C   UNL     1       5.447  -0.382  -6.429  0.00  0.00    -0.031 C 
BRANCH  21  22
ATOM     22  C   UNL     1       6.256   0.720  -5.815  0.00  0.00    +0.027 C 
BRANCH  22  23
ATOM     23  C   UNL     1       5.985   2.085  -6.444  0.00  0.00    +0.015 C 
BRANCH  23  24
ATOM     24  C   UNL     1       6.818   3.149  -5.738  0.00  0.00    +0.121 C 
BRANCH  24  25
ATOM     25  C   UNL     1       6.615   4.527  -6.312  0.00  0.00    +0.305 C 
ATOM     26  O   UNL     1       5.873   4.808  -7.240  0.00  0.00    -0.251 OA
BRANCH  25  27
ATOM     27  O   UNL     1       7.363   5.459  -5.677  0.00  0.00    -0.481 OA
ATOM     28  H   UNL     1       7.910   5.098  -4.954  0.00  0.00    +0.295 HD
ENDBRANCH  25  27
ENDBRANCH  24  25
ENDBRANCH  23  24
ENDBRANCH  22  23
ENDBRANCH  21  22
ENDBRANCH  19  20
ENDBRANCH   2  19
TORSDOF 15
