REMARK  Name = 
REMARK  13 active torsions:
REMARK  status: ('A' for Active; 'I' for Inactive)
REMARK    1  A    between atoms: C_2  and  O_3
REMARK    2  A    between atoms: C_4  and  O_6
REMARK    3  A    between atoms: C_7  and  C_9
REMARK    4  A    between atoms: C_9  and  O_10
REMARK    5  A    between atoms: C_12  and  O_14
REMARK    6  A    between atoms: O_14  and  C_15
REMARK    7  A    between atoms: C_15  and  C_16
REMARK    8  A    between atoms: C_16  and  C_17
REMARK    9  A    between atoms: C_17  and  C_18
REMARK   10  A    between atoms: C_18  and  C_19
REMARK   11  A    between atoms: C_19  and  C_20
REMARK   12  A    between atoms: C_20  and  C_21
REMARK   13  A    between atoms: C_22  and  O_24
REMARK                            x       y       z     vdW  Elec       q    Type
REMARK                         _______ _______ _______ _____ _____    ______ ____
ROOT
ATOM      1  C   UNL     1       3.232   2.776  -1.911  0.00  0.00    +0.179 C 
ATOM      2  C   UNL     1       2.853   1.727  -2.960  0.00  0.00    +0.201 C 
ATOM      3  C   UNL     1       2.002   0.588  -2.354  0.00  0.00    +0.282 C 
ATOM      4  O   UNL     1       2.520   0.044  -1.143  0.00  0.00    -0.341 OA
ATOM      5  C   UNL     1       2.972   0.956  -0.138  0.00  0.00    +0.178 C 
ATOM      6  C   UNL     1       3.861   2.086  -0.691  0.00  0.00    +0.177 C 
ENDROOT
BRANCH   1   7
ATOM      7  O   UNL     1       2.121   3.586  -1.535  0.00  0.00    -0.386 OA
ATOM      8  H   UNL     1       1.743   3.964  -2.354  0.00  0.00    +0.210 HD
ENDBRANCH   1   7
BRANCH   2   9
ATOM      9  O   UNL     1       4.044   1.178  -3.552  0.00  0.00    -0.384 OA
ATOM     10  H   UNL     1       4.648   0.956  -2.805  0.00  0.00    +0.210 HD
ENDBRANCH   2   9
BRANCH   6  11
ATOM     11  O   UNL     1       5.115   1.506  -1.121  0.00  0.00    -0.386 OA
ATOM     12  H   UNL     1       5.447   0.968  -0.378  0.00  0.00    +0.210 HD
ENDBRANCH   6  11
BRANCH   3  13
ATOM     13  O   UNL     1       0.624   0.968  -2.251  0.00  0.00    -0.349 OA
BRANCH  13  14
ATOM     14  C   UNL     1      -0.219  -0.185  -2.170  0.00  0.00    +0.163 C 
BRANCH  14  15
ATOM     15  C   UNL     1      -1.682   0.174  -2.424  0.00  0.00    +0.028 C 
BRANCH  15  16
ATOM     16  C   UNL     1      -1.956   0.586  -3.877  0.00  0.00    +0.002 C 
BRANCH  16  17
ATOM     17  C   UNL     1      -3.462   0.747  -4.133  0.00  0.00    +0.000 C 
BRANCH  17  18
ATOM     18  C   UNL     1      -3.758   1.190  -5.568  0.00  0.00    -0.000 C 
BRANCH  18  19
ATOM     19  C   UNL     1      -5.260   1.348  -5.804  0.00  0.00    -0.003 C 
ATOM     20  C   UNL     1      -5.564   1.807  -7.223  0.00  0.00    +0.004 C 
ENDBRANCH  18  19
ENDBRANCH  17  18
ENDBRANCH  16  17
ENDBRANCH  15  16
ENDBRANCH  14  15
ENDBRANCH  13  14
ENDBRANCH   3  13
BRANCH   5  21
ATOM     21  C   UNL     1       1.869   1.431   0.812  0.00  0.00    +0.190 C 
BRANCH  21  22
ATOM     22  O   UNL     1       2.478   1.940   2.004  0.00  0.00    -0.392 OA
ATOM     23  H   UNL     1       1.768   2.083   2.654  0.00  0.00    +0.210 HD
ENDBRANCH  21  22
ENDBRANCH   5  21
TORSDOF 12
