REMARK  Name = 
REMARK  7 active torsions:
REMARK  status: ('A' for Active; 'I' for Inactive)
REMARK    1  A    between atoms: C_1  and  C_2
REMARK    2  A    between atoms: C_3  and  C_4
REMARK    3  A    between atoms: C_4  and  C_5
REMARK    4  A    between atoms: C_5  and  O_6
REMARK    5  A    between atoms: O_6  and  P_7
REMARK    6  A    between atoms: P_7  and  O_8
REMARK    7  A    between atoms: P_7  and  O_9
REMARK                            x       y       z     vdW  Elec       q    Type
REMARK                         _______ _______ _______ _____ _____    ______ ____
ROOT
ATOM      1  C   UNL     1       3.842   3.447  -0.094  0.00  0.00    +0.177 C 
ENDROOT
BRANCH   1   2
ATOM      2  C   UNL     1       2.642   2.509  -0.160  0.00  0.00    +0.073 C 
BRANCH   2   8
ATOM      3  C   UNL     1       3.415   0.635  -2.718  0.00  0.00    +0.066 C 
ATOM      4  C   UNL     1       3.412   0.275  -1.274  0.00  0.00    +0.049 A 
ATOM      5  N   UNL     1       3.802  -1.014  -0.940  0.00  0.00    -0.252 NA
ATOM      6  C   UNL     1       3.756  -1.174   0.366  0.00  0.00    +0.156 A 
ATOM      7  S   UNL     1       3.243   0.185   1.266  0.00  0.00    -0.080 S 
ATOM      8  C   UNL     1       3.075   1.079  -0.192  0.00  0.00    +0.014 A 
ENDBRANCH   2   8
ENDBRANCH   1   2
BRANCH   1   9
ATOM      9  O   UNL     1       3.412   4.810  -0.121  0.00  0.00    -0.286 OA
BRANCH   9  10
ATOM     10  P   UNL     1       4.753   5.901  -0.043  0.00  0.00    +0.472 P 
ATOM     11  O   UNL     1       5.952   6.877   0.026  0.00  0.00    -0.228 OA
BRANCH  10  12
ATOM     12  O   UNL     1       3.611   7.053  -0.244  0.00  0.00    -0.303 OA
ATOM     13  H   UNL     1       2.793   6.771   0.202  0.00  0.00    +0.222 HD
ENDBRANCH  10  12
BRANCH  10  14
ATOM     14  O   UNL     1       4.975   5.605  -1.635  0.00  0.00    -0.303 OA
ATOM     15  H   UNL     1       5.385   6.424  -1.981  0.00  0.00    +0.222 HD
ENDBRANCH  10  14
ENDBRANCH   9  10
ENDBRANCH   1   9
TORSDOF 6
