REMARK  Name = 
REMARK  1 active torsions:
REMARK  status: ('A' for Active; 'I' for Inactive)
REMARK    1  A    between atoms: O_1  and  C_2
REMARK                            x       y       z     vdW  Elec       q    Type
REMARK                         _______ _______ _______ _____ _____    ______ ____
ROOT
ATOM      1  C   UNL     1       2.371   0.112   0.065  0.00  0.00    +0.117 A 
ATOM      2  C   UNL     1       3.075  -1.086  -0.003  0.00  0.00    +0.046 A 
ATOM      3  C   UNL     1       4.462  -1.067  -0.156  0.00  0.00    +0.018 A 
ATOM      4  C   UNL     1       5.130   0.156  -0.239  0.00  0.00    +0.014 A 
ATOM      5  I   UNL     1       7.195   0.190  -0.474  0.00  0.00    -0.044 I 
ATOM      6  C   UNL     1       4.420   1.356  -0.167  0.00  0.00    +0.018 A 
ATOM      7  C   UNL     1       3.032   1.334  -0.014  0.00  0.00    +0.046 A 
ENDROOT
BRANCH   1   8
ATOM      8  O   UNL     1       1.017   0.044   0.209  0.00  0.00    -0.507 OA
ATOM      9  H   UNL     1       0.659   0.947   0.215  0.00  0.00    +0.292 HD
ENDBRANCH   1   8
TORSDOF 1
