REMARK  Name = 
REMARK  9 active torsions:
REMARK  status: ('A' for Active; 'I' for Inactive)
REMARK    1  A    between atoms: N_6  and  C_12
REMARK    2  A    between atoms: C_9  and  O_10
REMARK    3  A    between atoms: C_16  and  C_18
REMARK    4  A    between atoms: N_20  and  C_21
REMARK    5  A    between atoms: C_21  and  C_22
REMARK    6  A    between atoms: C_27  and  S_28
REMARK    7  A    between atoms: S_28  and  C_29
REMARK    8  A    between atoms: C_34  and  C_35
REMARK    9  A    between atoms: C_35  and  O_36
REMARK                            x       y       z     vdW  Elec       q    Type
REMARK                         _______ _______ _______ _____ _____    ______ ____
ROOT
ATOM      1  C   UNL     1      10.479  -4.845   1.980  0.00  0.00    +0.244 C 
ATOM      2  N   UNL     1       9.719  -5.565   1.068  0.00  0.00    -0.307 N 
ATOM      3  H   UNL     1       9.115  -5.064   0.432  0.00  0.00    +0.149 HD
ATOM      4  O   UNL     1      11.413  -5.328   2.604  0.00  0.00    -0.270 OA
ENDROOT
BRANCH   1   7
ATOM      5  C   UNL     1       8.696  -1.446   1.939  0.00  0.00    +0.087 A 
ATOM      6  C   UNL     1       8.888  -2.843   1.878  0.00  0.00    +0.042 A 
ATOM      7  C   UNL     1      10.160  -3.386   2.121  0.00  0.00    +0.039 A 
ATOM      8  C   UNL     1      11.214  -2.534   2.485  0.00  0.00    +0.013 A 
ATOM      9  C   UNL     1      11.019  -1.154   2.564  0.00  0.00    +0.003 A 
ATOM     10  C   UNL     1       9.769  -0.607   2.279  0.00  0.00    +0.029 A 
BRANCH   5  20
ATOM     11  N   UNL     1       3.338   2.536  -0.075  0.00  0.00    -0.327 N 
ATOM     12  H   UNL     1       2.350   2.316  -0.084  0.00  0.00    +0.145 HD
ATOM     13  H   UNL     1       3.623   3.389   0.388  0.00  0.00    +0.145 HD
ATOM     14  C   UNL     1       4.081   1.445   0.332  0.00  0.00    +0.218 A 
ATOM     15  N   UNL     1       3.451   0.247   0.202  0.00  0.00    -0.178 NA
ATOM     16  C   UNL     1       4.120  -0.878   0.525  0.00  0.00    +0.247 A 
ATOM     17  C   UNL     1       5.430  -0.741   0.969  0.00  0.00    +0.193 A 
ATOM     18  C   UNL     1       5.999   0.564   1.100  0.00  0.00    +0.210 A 
ATOM     19  N   UNL     1       7.246   0.470   1.550  0.00  0.00    -0.127 NA
ATOM     20  N   UNL     1       7.430  -0.873   1.623  0.00  0.00    -0.148 N 
ATOM     21  N   UNL     1       6.354  -1.653   1.323  0.00  0.00    -0.140 NA
ATOM     22  N   UNL     1       5.324   1.696   0.793  0.00  0.00    -0.191 NA
BRANCH  16  23
ATOM     23  O   UNL     1       3.476  -2.079   0.383  0.00  0.00    -0.491 OA
ATOM     24  H   UNL     1       4.128  -2.748   0.656  0.00  0.00    +0.294 HD
ENDBRANCH  16  23
ENDBRANCH   5  20
ENDBRANCH   1   7
BRANCH   2  25
ATOM     25  C   UNL     1      10.145  -6.884   0.636  0.00  0.00    +0.141 C 
BRANCH  25  26
ATOM     26  C   UNL     1       9.024  -7.805   0.201  0.00  0.00    -0.017 A 
ATOM     27  C   UNL     1       7.907  -7.444  -0.579  0.00  0.00    +0.017 A 
ATOM     28  C   UNL     1       6.846  -8.358  -0.715  0.00  0.00    +0.015 A 
ATOM     29  C   UNL     1       6.957  -9.674  -0.272  0.00  0.00    +0.001 A 
ATOM     30  C   UNL     1       8.128 -10.088   0.341  0.00  0.00    +0.000 A 
ATOM     31  C   UNL     1       9.136  -9.159   0.598  0.00  0.00    +0.006 A 
BRANCH  27  32
ATOM     32  S   UNL     1       7.726  -5.913  -1.508  0.00  0.00    -0.089 S 
BRANCH  32  33
ATOM     33  C   UNL     1       8.649  -6.310  -3.006  0.00  0.00    +0.018 A 
ATOM     34  C   UNL     1       8.350  -7.346  -3.916  0.00  0.00    -0.008 A 
ATOM     35  C   UNL     1       9.320  -7.712  -4.874  0.00  0.00    +0.007 A 
ATOM     36  C   UNL     1      10.481  -6.966  -5.043  0.00  0.00    +0.000 A 
ATOM     37  C   UNL     1      10.677  -5.828  -4.273  0.00  0.00    +0.001 A 
ATOM     38  C   UNL     1       9.778  -5.513  -3.252  0.00  0.00    +0.015 A 
BRANCH  34  39
ATOM     39  C   UNL     1       7.021  -8.051  -4.007  0.00  0.00    +0.192 C 
BRANCH  39  40
ATOM     40  O   UNL     1       6.482  -7.906  -5.327  0.00  0.00    -0.390 OA
ATOM     41  H   UNL     1       6.843  -7.082  -5.701  0.00  0.00    +0.210 HD
ENDBRANCH  39  40
ENDBRANCH  34  39
ENDBRANCH  32  33
ENDBRANCH  27  32
ENDBRANCH  25  26
ENDBRANCH   2  25
TORSDOF 9
