REMARK  Name = 
REMARK  22 active torsions:
REMARK  status: ('A' for Active; 'I' for Inactive)
REMARK    1  A    between atoms: C_2  and  N_3
REMARK    2  A    between atoms: C_2  and  C_4
REMARK    3  A    between atoms: C_2  and  C_25
REMARK    4  A    between atoms: C_4  and  O_5
REMARK    5  A    between atoms: O_5  and  S_6
REMARK    6  A    between atoms: S_6  and  C_9
REMARK    7  A    between atoms: C_9  and  C_10
REMARK    8  A    between atoms: C_10  and  C_11
REMARK    9  A    between atoms: C_11  and  C_12
REMARK   10  A    between atoms: C_12  and  C_13
REMARK   11  A    between atoms: C_13  and  C_14
REMARK   12  A    between atoms: C_14  and  C_15
REMARK   13  A    between atoms: C_15  and  C_16
REMARK   14  A    between atoms: C_16  and  C_17
REMARK   15  A    between atoms: C_17  and  C_18
REMARK   16  A    between atoms: C_18  and  C_19
REMARK   17  A    between atoms: C_19  and  C_20
REMARK   18  A    between atoms: C_20  and  C_21
REMARK   19  A    between atoms: C_21  and  C_22
REMARK   20  A    between atoms: C_22  and  C_23
REMARK   21  A    between atoms: C_23  and  C_24
REMARK   22  A    between atoms: C_25  and  O_26
REMARK                            x       y       z     vdW  Elec       q    Type
REMARK                         _______ _______ _______ _____ _____    ______ ____
ROOT
ATOM      1  C   UNK     1       2.511   2.606   5.935  0.00  0.00    +0.025 C 
ENDROOT
BRANCH   1   2
ATOM      2  C   UNK     1       1.976   3.811   6.709  0.00  0.00    +0.002 C 
BRANCH   2   3
ATOM      3  C   UNK     1       2.486   3.858   8.149  0.00  0.00    +0.000 C 
BRANCH   3   4
ATOM      4  C   UNK     1       1.999   5.108   8.873  0.00  0.00    +0.000 C 
BRANCH   4   5
ATOM      5  C   UNK     1       2.502   5.114  10.315  0.00  0.00    +0.000 C 
BRANCH   5   6
ATOM      6  C   UNK     1       2.006   6.349  11.056  0.00  0.00    -0.000 C 
BRANCH   6   7
ATOM      7  C   UNK     1       2.510   6.356  12.495  0.00  0.00    -0.000 C 
BRANCH   7   8
ATOM      8  C   UNK     1       2.012   7.594  13.231  0.00  0.00    -0.000 C 
BRANCH   8   9
ATOM      9  C   UNK     1       2.513   7.611  14.670  0.00  0.00    -0.000 C 
BRANCH   9  10
ATOM     10  C   UNK     1       2.013   8.852  15.401  0.00  0.00    -0.000 C 
BRANCH  10  11
ATOM     11  C   UNK     1       2.513   8.872  16.841  0.00  0.00    -0.000 C 
BRANCH  11  12
ATOM     12  C   UNK     1       2.014  10.114  17.575  0.00  0.00    -0.000 C 
BRANCH  12  13
ATOM     13  C   UNK     1       2.517  10.130  19.016  0.00  0.00    -0.000 C 
BRANCH  13  14
ATOM     14  C   UNK     1       2.022  11.369  19.758  0.00  0.00    -0.003 C 
ATOM     15  C   UNK     1       2.524  11.386  21.192  0.00  0.00    +0.004 C 
ENDBRANCH  13  14
ENDBRANCH  12  13
ENDBRANCH  11  12
ENDBRANCH  10  11
ENDBRANCH   9  10
ENDBRANCH   8   9
ENDBRANCH   7   8
ENDBRANCH   6   7
ENDBRANCH   5   6
ENDBRANCH   4   5
ENDBRANCH   3   4
ENDBRANCH   2   3
ENDBRANCH   1   2
BRANCH   1  16
ATOM     16  C   UNK     1       2.063   1.271   6.520  0.00  0.00    +0.198 C 
BRANCH  16  17
ATOM     17  S   UNK     1       2.760  -0.130   5.659  0.00  0.00    +0.082 S 
ATOM     18  O   UNK     1       4.194   0.037   5.563  0.00  0.00    -0.147 OA
ATOM     19  O   UNK     1       2.168  -1.337   6.195  0.00  0.00    -0.147 OA
BRANCH  17  20
ATOM     20  O   UNK     1       2.115   0.152   4.186  0.00  0.00    -0.236 OA
BRANCH  20  21
ATOM     21  C   UNK     1       2.321  -0.868   3.210  0.00  0.00    +0.223 C 
BRANCH  21  22
ATOM     22  C   UNK     1       1.654  -0.505   1.879  0.00  0.00    +0.189 C 
BRANCH  22  23
ATOM     23  N   UNK     1       2.235   0.720   1.288  0.00  0.00    -0.317 NA
ATOM     24  H   UNK     1       1.897   0.928   0.352  0.00  0.00    +0.119 HD
ATOM     25  H   UNK     1       2.256   1.512   1.924  0.00  0.00    +0.119 HD
ENDBRANCH  22  23
BRANCH  22  26
ATOM     26  C   UNK     1       0.136  -0.407   2.081  0.00  0.00    +0.324 C 
ATOM     27  O   UNK     1      -0.558  -1.319   2.509  0.00  0.00    -0.249 OA
BRANCH  26  28
ATOM     28  O   UNK     1      -0.389   0.792   1.736  0.00  0.00    -0.479 OA
ATOM     29  H   UNK     1       0.314   1.393   1.428  0.00  0.00    +0.295 HD
ENDBRANCH  26  28
ENDBRANCH  22  26
ENDBRANCH  21  22
ENDBRANCH  20  21
ENDBRANCH  17  20
ENDBRANCH  16  17
ENDBRANCH   1  16
TORSDOF 21
