REMARK  Name = 
REMARK  16 active torsions:
REMARK  status: ('A' for Active; 'I' for Inactive)
REMARK    1  A    between atoms: C_1  and  C_2
REMARK    2  A    between atoms: C_2  and  C_3
REMARK    3  A    between atoms: C_2  and  C_4
REMARK    4  A    between atoms: C_2  and  C_10
REMARK    5  A    between atoms: C_4  and  O_5
REMARK    6  A    between atoms: O_5  and  P_6
REMARK    7  A    between atoms: P_6  and  O_7
REMARK    8  A    between atoms: P_6  and  O_8
REMARK    9  A    between atoms: C_10  and  O_12
REMARK   10  A    between atoms: C_10  and  C_13
REMARK   11  A    between atoms: N_15  and  C_16
REMARK   12  A    between atoms: C_16  and  C_17
REMARK   13  A    between atoms: C_17  and  C_18
REMARK   14  A    between atoms: N_20  and  C_21
REMARK   15  A    between atoms: C_21  and  C_22
REMARK   16  A    between atoms: C_22  and  S_23
REMARK                            x       y       z     vdW  Elec       q    Type
REMARK                         _______ _______ _______ _____ _____    ______ ____
ROOT
ATOM      1  C   UNL     1       3.182  -1.540  -0.057  0.00  0.00    +0.208 C 
ENDROOT
BRANCH   1   2
ATOM      2  C   UNL     1       4.721  -1.638  -0.157  0.00  0.00    +0.242 C 
ATOM      3  N   UNL     1       5.251  -2.776   0.444  0.00  0.00    -0.313 N 
ATOM      4  H   UNL     1       4.698  -3.609   0.287  0.00  0.00    +0.149 HD
ATOM      5  O   UNL     1       5.445  -0.825  -0.725  0.00  0.00    -0.273 OA
BRANCH   3   6
ATOM      6  C   UNL     1       6.697  -2.884   0.456  0.00  0.00    +0.113 C 
BRANCH   6   7
ATOM      7  C   UNL     1       7.227  -3.946   1.404  0.00  0.00    +0.114 C 
BRANCH   7   8
ATOM      8  C   UNL     1       8.741  -3.860   1.463  0.00  0.00    +0.215 C 
ATOM      9  N   UNL     1       9.321  -4.818   2.260  0.00  0.00    -0.314 N 
ATOM     10  H   UNL     1       8.741  -5.420   2.831  0.00  0.00    +0.149 HD
ATOM     11  O   UNL     1       9.397  -3.020   0.854  0.00  0.00    -0.276 OA
BRANCH   9  12
ATOM     12  C   UNL     1      10.761  -4.843   2.465  0.00  0.00    +0.114 C 
BRANCH  12  13
ATOM     13  C   UNL     1      11.238  -3.899   3.572  0.00  0.00    +0.084 C 
BRANCH  13  14
ATOM     14  S   UNL     1      10.575  -4.391   5.197  0.00  0.00    -0.177 S 
ATOM     15  H   UNL     1       9.296  -4.097   4.923  0.00  0.00    +0.102 HD
ENDBRANCH  13  14
ENDBRANCH  12  13
ENDBRANCH   9  12
ENDBRANCH   7   8
ENDBRANCH   6   7
ENDBRANCH   3   6
ENDBRANCH   1   2
BRANCH   1  17
ATOM     16  C   UNL     1       1.031  -0.163  -0.140  0.00  0.00    +0.016 C 
ATOM     17  C   UNL     1       2.577  -0.109  -0.226  0.00  0.00    +0.024 C 
ATOM     18  C   UNL     1       2.921   0.511  -1.595  0.00  0.00    +0.016 C 
BRANCH  17  19
ATOM     19  C   UNL     1       3.045   0.815   0.926  0.00  0.00    +0.181 C 
BRANCH  19  20
ATOM     20  O   UNL     1       4.453   0.921   0.991  0.00  0.00    -0.286 OA
BRANCH  20  21
ATOM     21  P   UNL     1       5.006   1.927   2.285  0.00  0.00    +0.472 P 
ATOM     22  O   UNL     1       5.501   2.828   3.443  0.00  0.00    -0.228 OA
BRANCH  21  23
ATOM     23  O   UNL     1       6.228   2.370   1.293  0.00  0.00    -0.303 OA
ATOM     24  H   UNL     1       6.253   3.339   1.205  0.00  0.00    +0.222 HD
ENDBRANCH  21  23
BRANCH  21  25
ATOM     25  O   UNL     1       5.767   0.576   2.807  0.00  0.00    -0.303 OA
ATOM     26  H   UNL     1       6.470   0.417   2.144  0.00  0.00    +0.222 HD
ENDBRANCH  21  25
ENDBRANCH  20  21
ENDBRANCH  19  20
ENDBRANCH  17  19
ENDBRANCH   1  17
BRANCH   1  27
ATOM     27  O   UNL     1       2.658  -2.475  -1.009  0.00  0.00    -0.382 OA
ATOM     28  H   UNL     1       1.696  -2.524  -0.893  0.00  0.00    +0.210 HD
ENDBRANCH   1  27
TORSDOF 14
