REMARK  Name = 
REMARK  3 active torsions:
REMARK  status: ('A' for Active; 'I' for Inactive)
REMARK    1  A    between atoms: O_1  and  C_2
REMARK    2  A    between atoms: C_2  and  C_3
REMARK    3  A    between atoms: C_3  and  O_4
REMARK                            x       y       z     vdW  Elec       q    Type
REMARK                         _______ _______ _______ _____ _____    ______ ____
ROOT
ATOM      1  C   UNL     1       3.066  -0.245  -1.403  0.00  0.00    +0.330 C 
ATOM      2  O   UNL     1       4.256  -0.287  -1.673  0.00  0.00    -0.248 OA
ENDROOT
BRANCH   1   3
ATOM      3  O   UNL     1       2.081  -0.393  -2.325  0.00  0.00    -0.479 OA
ATOM      4  H   UNL     1       1.223  -0.317  -1.840  0.00  0.00    +0.295 HD
ENDBRANCH   1   3
BRANCH   1   5
ATOM      5  C   UNL     1       2.496  -0.024  -0.010  0.00  0.00    +0.276 C 
BRANCH   5   6
ATOM      6  O   UNL     1       1.064  -0.036  -0.083  0.00  0.00    -0.384 OA
ATOM      7  H   UNL     1       0.746   0.109   0.828  0.00  0.00    +0.210 HD
ENDBRANCH   5   6
ENDBRANCH   1   5
TORSDOF 3
