REMARK  Name = 
REMARK  8 active torsions:
REMARK  status: ('A' for Active; 'I' for Inactive)
REMARK    1  A    between atoms: N_1  and  S_2
REMARK    2  A    between atoms: S_2  and  C_5
REMARK    3  A    between atoms: C_8  and  N_9
REMARK    4  A    between atoms: N_9  and  C_10
REMARK    5  A    between atoms: C_10  and  O_12
REMARK    6  A    between atoms: O_12  and  C_13
REMARK    7  A    between atoms: C_13  and  C_14
REMARK    8  A    between atoms: C_14  and  C_15
REMARK                            x       y       z     vdW  Elec       q    Type
REMARK                         _______ _______ _______ _____ _____    ______ ____
ROOT
ATOM      1  C   UNL     1       2.699   0.381   1.866  0.00  0.00    +0.105 A 
ATOM      2  C   UNL     1       3.483   1.471   2.244  0.00  0.00    +0.030 A 
ATOM      3  C   UNL     1       4.288   1.376   3.385  0.00  0.00    +0.025 A 
ATOM      4  C   UNL     1       4.340   0.191   4.135  0.00  0.00    +0.034 A 
ATOM      5  C   UNL     1       3.543  -0.886   3.734  0.00  0.00    +0.025 A 
ATOM      6  C   UNL     1       2.736  -0.804   2.596  0.00  0.00    +0.030 A 
ENDROOT
BRANCH   1   7
ATOM      7  S   UNL     1       1.579   0.518   0.509  0.00  0.00    +0.056 S 
ATOM      8  O   UNL     1       1.572   1.886   0.029  0.00  0.00    -0.153 OA
ATOM      9  O   UNL     1       1.753  -0.618  -0.364  0.00  0.00    -0.153 OA
BRANCH   7  10
ATOM     10  N   UNL     1       0.097   0.311   1.278  0.00  0.00    -0.204 NA
ATOM     11  H   UNL     1      -0.397   1.200   1.343  0.00  0.00    +0.144 HD
ATOM     12  H   UNL     1      -0.433  -0.430   0.818  0.00  0.00    +0.144 HD
ENDBRANCH   7  10
ENDBRANCH   1   7
BRANCH   4  13
ATOM     13  N   UNL     1       5.192   0.179   5.263  0.00  0.00    -0.279 N 
ATOM     14  H   UNL     1       5.552   1.079   5.558  0.00  0.00    +0.156 HD
BRANCH  13  15
ATOM     15  C   UNL     1       5.762  -0.860   5.961  0.00  0.00    +0.232 C 
ATOM     16  S   UNL     1       5.625  -2.508   5.729  0.00  0.00    +0.006 S 
BRANCH  15  17
ATOM     17  O   UNL     1       6.597  -0.341   6.916  0.00  0.00    -0.474 OA
BRANCH  17  18
ATOM     18  C   UNL     1       7.552  -1.188   7.611  0.00  0.00    +0.236 C 
BRANCH  18  19
ATOM     19  C   UNL     1       8.575  -0.358   8.381  0.00  0.00    +0.076 C 
BRANCH  19  20
ATOM     20  C   UNL     1       8.048   0.218   9.664  0.00  0.00    -0.037 A 
ATOM     21  C   UNL     1       8.011  -0.480  10.918  0.00  0.00    +0.011 A 
ATOM     22  C   UNL     1       7.502   0.292  11.938  0.00  0.00    +0.045 A 
ATOM     23  S   UNL     1       7.070   1.856  11.404  0.00  0.00    -0.105 S 
ATOM     24  C   UNL     1       7.562   1.504   9.806  0.00  0.00    +0.049 A 
ENDBRANCH  19  20
ENDBRANCH  18  19
ENDBRANCH  17  18
ENDBRANCH  15  17
ENDBRANCH  13  15
ENDBRANCH   4  13
TORSDOF 8
