REMARK  Name = 
REMARK  5 active torsions:
REMARK  status: ('A' for Active; 'I' for Inactive)
REMARK    1  A    between atoms: N_1  and  CA_2
REMARK    2  A    between atoms: CA_2  and  C_4
REMARK    3  A    between atoms: CA_2  and  C_15
REMARK    4  A    between atoms: C_4  and  C_5
REMARK    5  A    between atoms: C_15  and  O_16
REMARK                            x       y       z     vdW  Elec       q    Type
REMARK                         _______ _______ _______ _____ _____    ______ ____
ROOT
ATOM      1  C   UNL     1       2.333  -2.207  -1.299  0.00  0.00    -0.020 A 
ATOM      2  C   UNL     1       0.979  -2.683  -1.295  0.00  0.00    +0.006 A 
ATOM      3  C   UNL     1      -0.283  -2.056  -1.327  0.00  0.00    +0.048 A 
ATOM      4  C   UNL     1      -1.430  -2.847  -1.232  0.00  0.00    +0.124 A 
ATOM      5  C   UNL     1      -1.359  -4.228  -1.113  0.00  0.00    +0.040 A 
ATOM      6  C   UNL     1      -0.121  -4.874  -1.102  0.00  0.00    +0.029 A 
ATOM      7  F   UNL     1      -2.632  -2.254  -1.247  0.00  0.00    -0.205 F 
ATOM      8  C   UNL     1       1.026  -4.077  -1.198  0.00  0.00    +0.047 A 
ATOM      9  N   UNL     1       2.352  -4.436  -1.201  0.00  0.00    -0.360 N 
ATOM     10  H   UNL     1       2.686  -5.389  -1.137  0.00  0.00    +0.165 HD
ATOM     11  C   UNL     1       3.146  -3.324  -1.251  0.00  0.00    +0.087 A 
ENDROOT
BRANCH   1  12
ATOM     12  C   UNL     1       2.788  -0.778  -1.280  0.00  0.00    +0.067 C 
BRANCH  12  13
ATOM     13  CA  UNL     1       3.045  -0.169  -2.666  0.00  0.00    +0.165 C 
BRANCH  13  14
ATOM     14  N   UNL     1       4.075  -0.915  -3.466  0.00  0.00    -0.318 NA
ATOM     15  H1  UNL     1       4.750  -1.316  -2.805  0.00  0.00    +0.119 HD
ATOM     16  H2  UNL     1       3.601  -1.747  -3.837  0.00  0.00    +0.119 HD
ENDBRANCH  13  14
BRANCH  13  17
ATOM     17  C   UNL     1       3.540   1.276  -2.482  0.00  0.00    +0.322 C 
ATOM     18  OXT UNL     1       3.021   2.115  -1.763  0.00  0.00    -0.249 OA
BRANCH  17  19
ATOM     19  O   UNL     1       4.651   1.515  -3.228  0.00  0.00    -0.480 OA
ATOM     20  H   UNL     1       4.827   0.671  -3.717  0.00  0.00    +0.295 HD
ENDBRANCH  17  19
ENDBRANCH  13  17
ENDBRANCH  12  13
ENDBRANCH   1  12
TORSDOF 5
