REMARK  Name = 
REMARK  5 active torsions:
REMARK  status: ('A' for Active; 'I' for Inactive)
REMARK    1  A    between atoms: O_1  and  C_2
REMARK    2  A    between atoms: C_2  and  C_4
REMARK    3  A    between atoms: N_6  and  C_7
REMARK    4  A    between atoms: C_8  and  C_9
REMARK    5  A    between atoms: C_9  and  O_10
REMARK                            x       y       z     vdW  Elec       q    Type
REMARK                         _______ _______ _______ _____ _____    ______ ____
ROOT
ATOM      1  C   UNL     1       5.350   0.092   2.573  0.00  0.00    +0.087 A 
ATOM      2  S   UNL     1       5.930  -1.236   3.466  0.00  0.00    -0.076 S 
ATOM      3  C   UNL     1       6.542  -0.244   4.684  0.00  0.00    +0.009 A 
ATOM      4  C   UNL     1       7.316  -0.805   5.838  0.00  0.00    +0.124 C 
ATOM      5  N   UNL     1       7.489   0.203   6.896  0.00  0.00    -0.311 NA
ATOM      6  H   UNL     1       8.185  -0.139   7.556  0.00  0.00    +0.122 HD
ATOM      7  C   UNL     1       7.936   1.489   6.332  0.00  0.00    +0.086 C 
ATOM      8  C   UNL     1       6.860   2.113   5.414  0.00  0.00    +0.052 C 
ATOM      9  C   UNL     1       6.306   1.097   4.449  0.00  0.00    -0.019 A 
ATOM     10  C   UNL     1       5.538   1.302   3.235  0.00  0.00    +0.091 A 
ENDROOT
BRANCH   1  12
ATOM     11  C   UNL     1       4.751  -1.305   0.639  0.00  0.00    +0.326 C 
ATOM     12  N   UNL     1       4.706  -0.131   1.363  0.00  0.00    -0.270 N 
ATOM     13  H   UNL     1       4.240   0.665   0.920  0.00  0.00    +0.156 HD
ATOM     14  O   UNL     1       5.420  -2.321   0.805  0.00  0.00    -0.263 OA
BRANCH  11  15
ATOM     15  C   UNL     1       3.829  -1.323  -0.587  0.00  0.00    +0.393 C 
ATOM     16  O   UNL     1       3.097  -0.401  -0.887  0.00  0.00    -0.240 OA
BRANCH  15  17
ATOM     17  O   UNL     1       3.945  -2.498  -1.239  0.00  0.00    -0.474 OA
ATOM     18  H   UNL     1       4.609  -3.053  -0.760  0.00  0.00    +0.296 HD
ENDBRANCH  15  17
ENDBRANCH  11  15
ENDBRANCH   1  12
BRANCH  10  19
ATOM     19  C   UNL     1       5.066   2.570   2.680  0.00  0.00    +0.339 C 
ATOM     20  O   UNL     1       4.878   2.748   1.484  0.00  0.00    -0.245 OA
BRANCH  19  21
ATOM     21  O   UNL     1       4.791   3.536   3.592  0.00  0.00    -0.477 OA
ATOM     22  H   UNL     1       4.772   3.193   4.502  0.00  0.00    +0.295 HD
ENDBRANCH  19  21
ENDBRANCH  10  19
TORSDOF 5
