REMARK  Name = 
REMARK  33 active torsions:
REMARK  status: ('A' for Active; 'I' for Inactive)
REMARK    1  A    between atoms: C_1  and  O_2
REMARK    2  A    between atoms: O_2  and  C_3
REMARK    3  A    between atoms: C_3  and  C_5
REMARK    4  A    between atoms: C_3  and  C_59
REMARK    5  A    between atoms: C_5  and  C_6
REMARK    6  A    between atoms: C_12  and  O_54
REMARK    7  A    between atoms: C_15  and  C_17
REMARK    8  A    between atoms: C_19  and  O_21
REMARK    9  A    between atoms: C_22  and  C_24
REMARK   10  A    between atoms: C_25  and  O_27
REMARK   11  A    between atoms: O_27  and  C_28
REMARK   12  A    between atoms: C_46  and  O_48
REMARK   13  A    between atoms: O_48  and  C_49
REMARK   14  A    between atoms: C_50  and  C_52
REMARK   15  A    between atoms: O_54  and  C_55
REMARK   16  A    between atoms: C_55  and  N_57
REMARK   17  A    between atoms: C_55  and  O_58
REMARK   18  A    between atoms: C_59  and  C_61
REMARK   19  A    between atoms: C_59  and  C_62
REMARK   20  A    between atoms: C_62  and  C_63
REMARK   21  A    between atoms: C_63  and  C_64
REMARK   22  A    between atoms: C_64  and  C_66
REMARK   23  A    between atoms: C_66  and  C_68
REMARK   24  A    between atoms: C_66  and  C_69
REMARK   25  A    between atoms: C_69  and  O_71
REMARK   26  A    between atoms: C_69  and  C_73
REMARK   27  A    between atoms: O_71  and  C_72
REMARK   28  A    between atoms: C_73  and  C_75
REMARK   29  A    between atoms: C_73  and  C_76
REMARK   30  A    between atoms: C_77  and  N_78
REMARK   31  A    between atoms: N_78  and  C_79
REMARK   32  A    between atoms: N_78  and  C_80
REMARK   33  A    between atoms: C_80  and  O_81
REMARK                            x       y       z     vdW  Elec       q    Type
REMARK                         _______ _______ _______ _____ _____    ______ ____
ROOT
ATOM      1  C   UNL     1       1.422 -11.037  -3.017  0.00  0.00    +0.184 C 
ATOM      2  C   UNL     1       1.333 -11.702  -4.910  0.00  0.00    +0.056 C 
ATOM      3  C   UNL     1       1.040 -10.345  -5.521  0.00  0.00    +0.014 C 
ATOM      4  C   UNL     1       0.874 -13.096  -6.279  0.00  0.00    +0.128 C 
ATOM      5  C   UNL     1       1.681 -13.911  -7.836  0.00  0.00    +0.059 C 
ATOM      6  C   UNL     1       1.365 -14.564  -9.485  0.00  0.00    -0.019 C 
ATOM      7  C   UNL     1       1.091 -15.015 -10.790  0.00  0.00    +0.063 C 
ATOM      8  C   UNL     1       0.648 -14.187 -11.930  0.00  0.00    +0.220 A 
ATOM      9  N   UNL     1       0.445 -12.914 -11.762  0.00  0.00    -0.205 NA
ATOM     10  C   UNL     1       0.116 -12.353 -12.960  0.00  0.00    +0.164 A 
ATOM     11  C   UNL     1       0.038 -13.310 -13.926  0.00  0.00    +0.230 A 
ATOM     12  C   UNL     1      -0.025 -10.892 -12.897  0.00  0.00    +0.250 A 
ATOM     13  N   UNL     1       0.175 -10.366 -11.706  0.00  0.00    -0.203 NA
ATOM     14  C   UNL     1       0.116  -9.042 -11.898  0.00  0.00    +0.164 A 
ATOM     15  C   UNL     1      -0.171  -8.770 -13.208  0.00  0.00    +0.230 A 
ATOM     16  C   UNL     1       0.344  -8.089 -10.812  0.00  0.00    +0.249 A 
ATOM     17  N   UNL     1       0.571  -8.453  -9.559  0.00  0.00    -0.210 NA
ATOM     18  C   UNL     1       0.695  -7.266  -8.908  0.00  0.00    +0.109 A 
ATOM     19  C   UNL     1       0.582  -6.230  -9.800  0.00  0.00    +0.223 A 
ATOM     20  C   UNL     1       0.999  -7.155  -7.465  0.00  0.00    +0.175 C 
ATOM     21  C   UNL     1      -0.276  -6.740  -6.707  0.00  0.00    +0.049 C 
ATOM     22  C   UNL     1      -0.898  -5.417  -7.157  0.00  0.00    +0.013 C 
ATOM     23  C   UNL     1      -0.004  -6.700  -5.216  0.00  0.00    +0.120 C 
ATOM     24  C   UNL     1      -1.290  -6.398  -4.429  0.00  0.00    +0.035 C 
ATOM     25  C   UNL     1      -1.030  -6.798  -3.000  0.00  0.00    -0.009 C 
ATOM     26  C   UNL     1      -0.997  -8.295  -3.117  0.00  0.00    +0.007 C 
ATOM     27  C   UNL     1      -2.068  -6.404  -1.988  0.00  0.00    +0.035 C 
ATOM     28  C   UNL     1      -1.621  -6.697  -0.516  0.00  0.00    +0.134 C 
ATOM     29  C   UNL     1      -1.076  -8.256  -0.199  0.00  0.00    +0.152 C 
ATOM     30  C   UNL     1       0.254  -8.922  -1.007  0.00  0.00    +0.310 C 
ATOM     31  O   UNL     1       1.174  -8.098  -1.008  0.00  0.00    -0.251 OA
ATOM     32  O   UNL     1       0.342  -6.740 -11.019  0.00  0.00    -0.442 OA
ATOM     33  O   UNL     1      -0.265  -9.965 -13.879  0.00  0.00    -0.442 OA
ATOM     34  O   UNL     1       0.381 -14.517 -13.298  0.00  0.00    -0.443 OA
ATOM     35  O   UNL     1       0.234 -10.230  -1.916  0.00  0.00    -0.461 OA
ENDROOT
BRANCH  20  36
ATOM     36  O   UNL     1       2.061  -6.220  -7.257  0.00  0.00    -0.373 OA
ATOM     37  C   UNL     1       3.249  -6.662  -7.903  0.00  0.00    +0.194 C 
ENDBRANCH  20  36
BRANCH   4  38
ATOM     38  O   UNL     1      -0.540 -13.572  -6.372  0.00  0.00    -0.379 OA
ATOM     39  C   UNL     1      -1.243 -13.657  -7.653  0.00  0.00    +0.194 C 
ENDBRANCH   4  38
BRANCH  23  40
ATOM     40  O   UNL     1       1.000  -5.783  -4.808  0.00  0.00    -0.391 OA
ATOM     41  H   UNL     1       0.766  -4.900  -5.129  0.00  0.00    +0.210 HD
ENDBRANCH  23  40
BRANCH  28  42
ATOM     42  O   UNL     1      -2.840  -6.311   0.200  0.00  0.00    -0.335 OA
BRANCH  42  43
ATOM     43  C   UNL     1      -2.810  -6.001   1.576  0.00  0.00    +0.323 C 
BRANCH  43  44
ATOM     44  N   UNL     1      -2.635  -7.175   2.371  0.00  0.00    -0.283 NA
ATOM     45  H   UNL     1      -2.350  -6.849   3.289  0.00  0.00    +0.123 HD
ATOM     46  H   UNL     1      -3.533  -7.636   2.474  0.00  0.00    +0.123 HD
ENDBRANCH  43  44
BRANCH  43  47
ATOM     47  O   UNL     1      -1.826  -5.071   1.939  0.00  0.00    -0.355 OA
ATOM     48  H   UNL     1      -2.165  -4.205   1.662  0.00  0.00    +0.214 HD
ENDBRANCH  43  47
ENDBRANCH  42  43
ENDBRANCH  28  42
BRANCH   1  49
ATOM     49  C   UNL     1       2.602  -9.829  -2.786  0.00  0.00    +0.076 C 
BRANCH  49  50
ATOM     50  C   UNL     1       3.334  -9.249  -1.403  0.00  0.00    +0.124 C 
BRANCH  50  52
ATOM     51  C   UNL     1       5.176 -10.671  -1.703  0.00  0.00    +0.194 C 
ATOM     52  O   UNL     1       4.266 -10.146  -0.779  0.00  0.00    -0.379 OA
ENDBRANCH  50  52
BRANCH  50  53
ATOM     53  C   UNL     1       4.047  -7.794  -1.700  0.00  0.00    +0.015 C 
ATOM     54  C   UNL     1       4.687  -7.070  -0.487  0.00  0.00    +0.010 C 
BRANCH  53  55
ATOM     55  C   UNL     1       3.244  -6.767  -2.569  0.00  0.00    +0.013 C 
BRANCH  55  56
ATOM     56  C   UNL     1       4.048  -5.601  -3.178  0.00  0.00    +0.075 C 
BRANCH  56  57
ATOM     57  C   UNL     1       5.124  -5.983  -4.208  0.00  0.00    +0.139 C 
ATOM     58  O   UNL     1       5.323  -7.142  -4.571  0.00  0.00    -0.297 OA
BRANCH  57  59
ATOM     59  C   UNL     1       5.888  -4.802  -4.827  0.00  0.00    +0.081 C 
ATOM     60  C   UNL     1       5.257  -4.446  -6.175  0.00  0.00    +0.018 C 
BRANCH  59  61
ATOM     61  C   UNL     1       7.414  -5.000  -5.018  0.00  0.00    +0.134 C 
BRANCH  61  62
ATOM     62  O   UNL     1       7.984  -3.753  -5.537  0.00  0.00    -0.379 OA
ATOM     63  C   UNL     1       7.831  -2.586  -4.728  0.00  0.00    +0.194 C 
ENDBRANCH  61  62
BRANCH  61  64
ATOM     64  C   UNL     1       8.253  -5.494  -3.791  0.00  0.00    +0.039 C 
ATOM     65  C   UNL     1       9.754  -5.582  -4.172  0.00  0.00    +0.014 C 
BRANCH  64  66
ATOM     66  C   UNL     1       7.976  -6.850  -3.150  0.00  0.00    -0.006 C 
ATOM     67  C   UNL     1       8.099  -7.040  -1.824  0.00  0.00    +0.068 C 
BRANCH  67  68
ATOM     68  N   UNL     1       8.376  -8.200  -1.093  0.00  0.00    -0.317 N 
ATOM     69  C   UNL     1       8.848  -9.435  -1.742  0.00  0.00    +0.131 C 
BRANCH  68  70
ATOM     70  C   UNL     1       8.871  -8.056   0.283  0.00  0.00    +0.263 C 
BRANCH  70  71
ATOM     71  O   UNL     1       8.586  -9.228   1.015  0.00  0.00    -0.377 OA
ATOM     72  H   UNL     1       7.653  -9.400   0.806  0.00  0.00    +0.211 HD
ENDBRANCH  70  71
ENDBRANCH  68  70
ENDBRANCH  67  68
ENDBRANCH  64  66
ENDBRANCH  61  64
ENDBRANCH  59  61
ENDBRANCH  57  59
ENDBRANCH  56  57
ENDBRANCH  55  56
ENDBRANCH  53  55
ENDBRANCH  50  53
ENDBRANCH  49  50
ENDBRANCH   1  49
TORSDOF 22
