REMARK  Name = 
REMARK  13 active torsions:
REMARK  status: ('A' for Active; 'I' for Inactive)
REMARK    1  A    between atoms: C_1  and  C_2
REMARK    2  A    between atoms: C_2  and  C_3
REMARK    3  A    between atoms: C_7  and  N_9
REMARK    4  A    between atoms: C_10  and  C_12
REMARK    5  A    between atoms: C_12  and  C_13
REMARK    6  A    between atoms: C_13  and  C_14
REMARK    7  A    between atoms: C_14  and  C_15
REMARK    8  A    between atoms: C_15  and  C_16
REMARK    9  A    between atoms: C_16  and  N_18
REMARK   10  A    between atoms: C_16  and  C_26
REMARK   11  A    between atoms: C_19  and  C_21
REMARK   12  A    between atoms: C_21  and  N_22
REMARK   13  A    between atoms: C_32  and  C_34
REMARK                            x       y       z     vdW  Elec       q    Type
REMARK                         _______ _______ _______ _____ _____    ______ ____
ROOT
ATOM      1  N   UNK A   1       7.032  -1.965   1.190  0.00  0.00    -0.302 N 
ATOM      2  H   UNK A   1       7.478  -2.793   0.810  0.00  0.00    +0.150 HD
ATOM      3  C   UNK A   0       7.773  -1.067   1.915  0.00  0.00    +0.214 C 
ATOM      4  O   UNK A   0       7.296  -0.066   2.440  0.00  0.00    -0.276 OA
ENDROOT
BRANCH   1  10
ATOM      5  C   UNK A   1       1.115   0.002  -0.244  0.00  0.00    +0.025 C 
ATOM      6  C   UNK A   1       2.349  -0.850   0.069  0.00  0.00    +0.037 C 
ATOM      7  C   UNK A   1       3.099  -1.429  -1.157  0.00  0.00    +0.138 C 
ATOM      8  N   UNK A   1       4.495  -1.639  -0.728  0.00  0.00    -0.276 N 
ATOM      9  C   UNK A   1       5.030  -0.642   0.214  0.00  0.00    +0.164 C 
ATOM     10  C   UNK A   1       5.562  -1.819   1.069  0.00  0.00    +0.190 C 
ATOM     11  C   UNK A   1       4.892  -2.713   0.004  0.00  0.00    +0.240 C 
ATOM     12  O   UNK A   1       4.665  -3.898  -0.094  0.00  0.00    -0.273 OA
ATOM     13  S   UNK A   1       3.579   0.198   0.981  0.00  0.00    -0.127 S 
ATOM     14  C   UNK A   1       1.912  -1.962   1.047  0.00  0.00    +0.025 C 
BRANCH   7  15
ATOM     15  C   UNK A   1       2.957  -0.524  -2.417  0.00  0.00    +0.064 C 
ATOM     16  O   ACE A   2       1.935  -0.770  -3.125  0.00  0.00    -0.548 OA
ATOM     17  O   ACE A   2       3.858   0.347  -2.596  0.00  0.00    -0.548 OA
ENDBRANCH   7  15
ENDBRANCH   1  10
BRANCH   3  18
ATOM     18  C   UNK A   0       9.233  -1.427   2.027  0.00  0.00    +0.096 C 
BRANCH  18  19
ATOM     19  C   UNK A   0       9.658  -1.479   3.491  0.00  0.00    +0.009 C 
BRANCH  19  20
ATOM     20  C   UNK A   0      11.122  -1.899   3.581  0.00  0.00    +0.003 C 
BRANCH  20  21
ATOM     21  C   UNK A   0      11.601  -2.020   5.024  0.00  0.00    +0.028 C 
BRANCH  21  22
ATOM     22  C   UNK A   0      13.092  -2.347   5.130  0.00  0.00    +0.119 C 
BRANCH  22  23
ATOM     23  N   UNK A   0      13.507  -2.347   6.552  0.00  0.00    -0.303 N 
ATOM     24  H   UNK A   0      14.020  -3.221   6.690  0.00  0.00    +0.150 HD
ATOM     25  C   UNK A   1      13.528  -1.324   7.447  0.00  0.00    +0.259 C 
ATOM     26  O   UNK A   1      13.276  -0.153   7.201  0.00  0.00    -0.270 OA
BRANCH  25  27
ATOM     27  C   UNK A   1      13.839  -1.805   8.860  0.00  0.00    +0.225 C 
BRANCH  27  28
ATOM     28  N   UNK A   1      13.369  -3.215   9.090  0.00  0.00    +0.225 N 
ATOM     29  H   UNK A   1      13.355  -3.481  10.077  0.00  0.00    +0.200 HD
ATOM     30  H   UNK A   1      13.944  -3.890   8.563  0.00  0.00    +0.200 HD
ATOM     31  H   UNK A   1      12.424  -3.320   8.691  0.00  0.00    +0.200 HD
ENDBRANCH  27  28
ENDBRANCH  25  27
ENDBRANCH  22  23
BRANCH  22  32
ATOM     32  C   UNK A   0      13.448  -3.795   4.595  0.00  0.00    +0.062 C 
ATOM     33  O   ACE A   2      13.823  -4.556   5.563  0.00  0.00    -0.548 OA
ATOM     34  O   ACE A   2      13.401  -4.001   3.358  0.00  0.00    -0.548 OA
ENDBRANCH  22  32
ENDBRANCH  21  22
ENDBRANCH  20  21
ENDBRANCH  19  20
ENDBRANCH  18  19
ENDBRANCH   3  18
TORSDOF 11
