REMARK  Name = 
REMARK  5 active torsions:
REMARK  status: ('A' for Active; 'I' for Inactive)
REMARK    1  A    between atoms: O_1  and  C_2
REMARK    2  A    between atoms: C_2  and  C_4
REMARK    3  A    between atoms: C_4  and  C_5
REMARK    4  A    between atoms: C_6  and  O_7
REMARK    5  A    between atoms: C_16  and  O_17
REMARK                            x       y       z     vdW  Elec       q    Type
REMARK                         _______ _______ _______ _____ _____    ______ ____
ROOT
ATOM      1  C   UNL     1       4.655  -1.003   0.063  0.00  0.00    +0.005 A 
ATOM      2  C   UNL     1       5.230   0.277   0.085  0.00  0.00    +0.008 A 
ATOM      3  C   UNL     1       6.614   0.437   0.075  0.00  0.00    +0.013 A 
ATOM      4  C   UNL     1       7.455  -0.683   0.043  0.00  0.00    +0.037 A 
ATOM      5  C   UNL     1       8.917  -0.469   0.016  0.00  0.00    +0.195 C 
ATOM      6  C   UNL     1       9.819  -1.633  -0.004  0.00  0.00    +0.037 A 
ATOM      7  C   UNL     1      11.208  -1.431  -0.021  0.00  0.00    +0.012 A 
ATOM      8  C   UNL     1      12.075  -2.524  -0.031  0.00  0.00    +0.004 A 
ATOM      9  C   UNL     1      11.560  -3.818  -0.025  0.00  0.00    +0.046 A 
ATOM     10  C   UNL     1      10.181  -4.015  -0.011  0.00  0.00    +0.128 A 
ATOM     11  C   UNL     1       9.298  -2.923  -0.001  0.00  0.00    +0.075 A 
ATOM     12  C   UNL     1       7.837  -3.136   0.017  0.00  0.00    +0.202 C 
ATOM     13  O   UNL     1       7.439  -4.296   0.012  0.00  0.00    -0.286 OA
ATOM     14  O   UNL     1       9.372   0.668   0.017  0.00  0.00    -0.287 OA
ATOM     15  C   UNL     1       6.912  -1.970   0.041  0.00  0.00    +0.075 A 
ATOM     16  C   UNL     1       5.508  -2.124   0.063  0.00  0.00    +0.132 A 
ENDROOT
BRANCH  10  17
ATOM     17  O   UNL     1       9.760  -5.319  -0.006  0.00  0.00    -0.506 OA
ATOM     18  H   UNL     1       8.775  -5.320  -0.001  0.00  0.00    +0.292 HD
ENDBRANCH  10  17
BRANCH  16  19
ATOM     19  O   UNL     1       4.993  -3.388   0.102  0.00  0.00    -0.506 OA
ATOM     20  H   UNL     1       4.027  -3.434   0.097  0.00  0.00    +0.292 HD
ENDBRANCH  16  19
BRANCH   1  21
ATOM     21  C   UNL     1       3.144  -1.108   0.055  0.00  0.00    +0.159 C 
BRANCH  21  22
ATOM     22  C   UNL     1       2.457  -1.279   1.391  0.00  0.00    +0.309 C 
ATOM     23  O   UNL     1       1.249  -1.464   1.473  0.00  0.00    -0.251 OA
BRANCH  22  24
ATOM     24  O   UNL     1       3.227  -1.213   2.495  0.00  0.00    -0.480 OA
ATOM     25  H   UNL     1       4.180  -1.065   2.352  0.00  0.00    +0.295 HD
ENDBRANCH  22  24
ENDBRANCH  21  22
ENDBRANCH   1  21
TORSDOF 5
