REMARK  Name = 
REMARK  8 active torsions:
REMARK  status: ('A' for Active; 'I' for Inactive)
REMARK    1  A    between atoms: C_1  and  C_2
REMARK    2  A    between atoms: C_2  and  N_4
REMARK    3  A    between atoms: C_2  and  C_5
REMARK    4  A    between atoms: C_7  and  C_8
REMARK    5  A    between atoms: C_9  and  O_10
REMARK    6  A    between atoms: N_11  and  C_12
REMARK    7  A    between atoms: C_12  and  C_13
REMARK    8  A    between atoms: C_13  and  O_14
REMARK                            x       y       z     vdW  Elec       q    Type
REMARK                         _______ _______ _______ _____ _____    ______ ____
ROOT
ATOM      1  C   UNL     1       2.996  -1.235  -1.044  0.00  0.00    +0.130 A 
ATOM      2  N   UNL     1       2.618  -2.494  -0.625  0.00  0.00    -0.287 N 
ATOM      3  C   UNL     1       3.034  -3.388  -1.585  0.00  0.00    +0.216 A 
ATOM      4  C   UNL     1       3.673  -2.636  -2.546  0.00  0.00    +0.100 A 
ATOM      5  C   UNL     1       4.310  -3.077  -3.804  0.00  0.00    +0.071 C 
ATOM      6  N   UNL     1       3.663  -1.314  -2.185  0.00  0.00    -0.232 NA
ENDROOT
BRANCH   1   8
ATOM      7  C   UNL     1       3.102   1.285  -1.085  0.00  0.00    +0.032 C 
ATOM      8  C   UNL     1       2.674   0.040  -0.305  0.00  0.00    +0.115 C 
BRANCH   8   9
ATOM      9  N   UNL     1       3.322   0.036   1.011  0.00  0.00    -0.321 NA
ATOM     10  H   UNL     1       3.209   0.956   1.437  0.00  0.00    +0.119 HD
ATOM     11  H   UNL     1       4.328  -0.065   0.867  0.00  0.00    +0.119 HD
ENDBRANCH   8   9
ENDBRANCH   1   8
BRANCH   3  12
ATOM     12  O   UNL     1       2.817  -4.689  -1.446  0.00  0.00    -0.492 OA
ATOM     13  H   UNL     1       3.079  -5.121  -2.285  0.00  0.00    +0.294 HD
ENDBRANCH   3  12
BRANCH   2  14
ATOM     14  C   UNL     1       1.774  -2.837   0.513  0.00  0.00    +0.246 C 
BRANCH  14  15
ATOM     15  C   UNL     1       2.334  -3.779   1.554  0.00  0.00    +0.325 C 
ATOM     16  O   UNL     1       1.758  -3.958   2.625  0.00  0.00    -0.249 OA
BRANCH  15  17
ATOM     17  O   UNL     1       3.455  -4.471   1.270  0.00  0.00    -0.479 OA
ATOM     18  H   UNL     1       3.744  -4.410   0.338  0.00  0.00    +0.295 HD
ENDBRANCH  15  17
ENDBRANCH  14  15
ENDBRANCH   2  14
TORSDOF 6
