REMARK  Name = 
REMARK  5 active torsions:
REMARK  status: ('A' for Active; 'I' for Inactive)
REMARK    1  A    between atoms: N_1  and  CA_2
REMARK    2  A    between atoms: CA_2  and  C_4
REMARK    3  A    between atoms: CA_2  and  C_13
REMARK    4  A    between atoms: C_4  and  C_5
REMARK    5  A    between atoms: C_13  and  O_14
REMARK                            x       y       z     vdW  Elec       q    Type
REMARK                         _______ _______ _______ _____ _____    ______ ____
ROOT
ATOM      1  C   UNL     1       2.912   0.901   0.977  0.00  0.00    +0.000 C 
ENDROOT
BRANCH   1   2
ATOM      2  C   UNL     1       2.664   2.368   0.735  0.00  0.00    +0.000 A 
ATOM      3  C   UNL     1       3.626   3.343   0.587  0.00  0.00    +0.000 A 
ATOM      4  C   UNL     1       2.995   4.512   0.431  0.00  0.00    +0.000 A 
ATOM      5  C   UNL     1       3.795   5.611   0.290  0.00  0.00    +0.000 A 
ATOM      6  C   UNL     1       5.134   5.231   0.349  0.00  0.00    +0.000 A 
ATOM      7  N   UNL     1       1.660   4.374   0.454  0.00  0.00    +0.000 N 
ATOM      8  H   UNL     1       0.943   5.125   0.359  0.00  0.00    +0.000 HD
ATOM      9 SE   UNL     1       5.428   3.423   0.583  0.00  0.00    +0.000 Se
ATOM     10  C   UNL     1       1.443   3.047   0.646  0.00  0.00    +0.000 A 
ENDBRANCH   1   2
BRANCH   1  11
ATOM     11  CA  UNL     1       2.325  -0.053  -0.091  0.00  0.00    +0.000 C 
BRANCH  11  12
ATOM     12  N   UNL     1       2.915   0.193  -1.411  0.00  0.00    +0.000 NA
ATOM     13  H1  UNL     1       2.764   1.184  -1.708  0.00  0.00    +0.000 HD
ATOM     14  H2  UNL     1       3.943   0.001  -1.379  0.00  0.00    +0.000 HD
ENDBRANCH  11  12
BRANCH  11  15
ATOM     15  C   UNL     1       0.813   0.007  -0.149  0.00  0.00    +0.000 C 
ATOM     16  OXT UNL     1       0.244   0.289  -1.192  0.00  0.00    +0.000 OA
BRANCH  15  17
ATOM     17  O   UNL     1       0.072  -0.270   0.946  0.00  0.00    +0.000 OA
ATOM     18  H   UNL     1       0.476  -0.513   1.791  0.00  0.00    +0.000 HD
ENDBRANCH  15  17
ENDBRANCH  11  15
ENDBRANCH   1  11
TORSDOF 5
