REMARK  Name = 
REMARK  5 active torsions:
REMARK  status: ('A' for Active; 'I' for Inactive)
REMARK    1  A    between atoms: O_1  and  C_2
REMARK    2  A    between atoms: C_2  and  C_4
REMARK    3  A    between atoms: N_6  and  C_7
REMARK    4  A    between atoms: C_8  and  C_9
REMARK    5  A    between atoms: C_9  and  O_10
REMARK                            x       y       z     vdW  Elec       q    Type
REMARK                         _______ _______ _______ _____ _____    ______ ____
ROOT
ATOM      1  C   UNL     1       5.276  -0.641  -2.581  0.00  0.00    +0.087 A 
ATOM      2  S   UNL     1       5.109  -2.153  -3.339  0.00  0.00    -0.075 S 
ATOM      3  C   UNL     1       6.239  -1.729  -4.532  0.00  0.00    +0.021 A 
ATOM      4  C   UNL     1       6.698  -2.685  -5.589  0.00  0.00    +0.202 C 
ATOM      5  O   UNL     1       7.777  -2.088  -6.336  0.00  0.00    -0.374 OA
ATOM      6  C   UNL     1       7.495  -0.738  -6.740  0.00  0.00    +0.165 C 
ATOM      7  C   UNL     1       7.479   0.193  -5.517  0.00  0.00    +0.065 C 
ATOM      8  C   UNL     1       6.606  -0.399  -4.450  0.00  0.00    -0.017 A 
ATOM      9  C   UNL     1       6.066   0.255  -3.281  0.00  0.00    +0.091 A 
ENDROOT
BRANCH   1  11
ATOM     10  C   UNL     1       5.213  -0.083  -0.254  0.00  0.00    +0.326 C 
ATOM     11  N   UNL     1       4.589  -0.562  -1.390  0.00  0.00    -0.270 N 
ATOM     12  H   UNL     1       3.867  -1.261  -1.217  0.00  0.00    +0.156 HD
ATOM     13  O   UNL     1       6.331   0.398  -0.137  0.00  0.00    -0.263 OA
BRANCH  10  14
ATOM     14  C   UNL     1       4.382  -0.285   1.022  0.00  0.00    +0.393 C 
ATOM     15  O   UNL     1       3.221  -0.645   0.982  0.00  0.00    -0.240 OA
BRANCH  14  16
ATOM     16  O   UNL     1       5.109  -0.042   2.124  0.00  0.00    -0.474 OA
ATOM     17  H   UNL     1       6.018   0.239   1.863  0.00  0.00    +0.296 HD
ENDBRANCH  14  16
ENDBRANCH  10  14
ENDBRANCH   1  11
BRANCH   9  18
ATOM     18  C   UNL     1       6.298   1.663  -2.945  0.00  0.00    +0.339 C 
ATOM     19  O   UNL     1       7.306   2.275  -3.268  0.00  0.00    -0.245 OA
BRANCH  18  20
ATOM     20  O   UNL     1       5.254   2.284  -2.336  0.00  0.00    -0.477 OA
ATOM     21  H   UNL     1       4.477   1.703  -2.257  0.00  0.00    +0.295 HD
ENDBRANCH  18  20
ENDBRANCH   9  18
TORSDOF 5
