REMARK  Name = 
REMARK  4 active torsions:
REMARK  status: ('A' for Active; 'I' for Inactive)
REMARK    1  A    between atoms: C_2  and  C_6
REMARK    2  A    between atoms: C_11  and  C_13
REMARK    3  A    between atoms: C_17  and  C_20
REMARK    4  A    between atoms: C_18  and  O_19
REMARK                            x       y       z     vdW  Elec       q    Type
REMARK                         _______ _______ _______ _____ _____    ______ ____
ROOT
ATOM      1  C   UNL     1       3.084   0.945   1.112  0.00  0.00    +0.080 A 
ATOM      2  C   UNL     1       4.086   0.584   2.035  0.00  0.00    +0.058 A 
ATOM      3 CL   UNL     1       4.608  -1.060   2.208  0.00  0.00    -0.083 Cl
ATOM      4  C   UNL     1       4.727   1.529   2.855  0.00  0.00    +0.047 A 
ATOM      5  C   UNL     1       4.338   2.866   2.729  0.00  0.00    +0.048 A 
ATOM      6  N   UNL     1       4.810   4.003   3.346  0.00  0.00    -0.354 N 
ATOM      7  H   UNL     1       5.572   4.046   4.014  0.00  0.00    +0.166 HD
ATOM      8  C   UNL     1       4.186   5.132   2.856  0.00  0.00    +0.051 A 
ATOM      9  C   UNL     1       3.220   4.675   1.973  0.00  0.00    +0.036 A 
ATOM     10  C   UNL     1       3.339   3.267   1.854  0.00  0.00    +0.001 A 
ATOM     11  C   UNL     1       2.709   2.303   1.043  0.00  0.00    +0.027 A 
ENDROOT
BRANCH   1  15
ATOM     12  N   UNL     1       1.163   0.147  -0.137  0.00  0.00    -0.250 N 
ATOM     13  H   UNL     1       0.609   0.891   0.274  0.00  0.00    +0.288 HD
ATOM     14  H   UNL     1       0.691  -0.464  -0.790  0.00  0.00    +0.288 HD
ATOM     15  C   UNL     1       2.428  -0.021   0.200  0.00  0.00    +0.268 C 
ATOM     16  N   UNL     1       3.098  -1.027  -0.320  0.00  0.00    -0.288 N 
ATOM     17  H   UNL     1       2.686  -1.702  -0.948  0.00  0.00    +0.301 HD
ATOM     18  H   UNL     1       4.068  -1.179  -0.054  0.00  0.00    +0.301 HD
ENDBRANCH   1  15
BRANCH   8  19
ATOM     19  C   UNL     1       4.623   6.509   3.176  0.00  0.00    +0.040 A 
ATOM     20  C   UNL     1       5.770   6.805   3.955  0.00  0.00    +0.134 A 
ATOM     21  C   UNL     1       6.308   8.117   4.045  0.00  0.00    +0.024 A 
ATOM     22  C   UNL     1       5.561   9.147   3.438  0.00  0.00    +0.012 A 
ATOM     23  C   UNL     1       4.372   8.892   2.757  0.00  0.00    +0.001 A 
ATOM     24  C   UNL     1       3.924   7.584   2.609  0.00  0.00    +0.013 A 
BRANCH  21  25
ATOM     25  C   UNL     1       7.636   8.443   4.646  0.00  0.00    -0.014 A 
ATOM     26  C   UNL     1       8.733   7.566   4.536  0.00  0.00    +0.008 A 
ATOM     27  C   UNL     1       9.996   7.897   5.038  0.00  0.00    +0.001 A 
ATOM     28  C   UNL     1      10.209   9.135   5.632  0.00  0.00    +0.000 A 
ATOM     29  C   UNL     1       9.153  10.032   5.741  0.00  0.00    +0.001 A 
ATOM     30  C   UNL     1       7.881   9.683   5.270  0.00  0.00    +0.008 A 
ENDBRANCH  21  25
BRANCH  20  31
ATOM     31  O   UNL     1       6.348   5.769   4.664  0.00  0.00    -0.505 OA
ATOM     32  H   UNL     1       6.787   6.177   5.436  0.00  0.00    +0.292 HD
ENDBRANCH  20  31
ENDBRANCH   8  19
TORSDOF 4
