REMARK  Name = 
REMARK  15 active torsions:
REMARK  status: ('A' for Active; 'I' for Inactive)
REMARK    1  A    between atoms: O_1  and  C_2
REMARK    2  A    between atoms: C_2  and  C_4
REMARK    3  A    between atoms: C_4  and  C_5
REMARK    4  A    between atoms: C_5  and  N_6
REMARK    5  A    between atoms: C_7  and  C_9
REMARK    6  A    between atoms: N_14  and  S_15
REMARK    7  A    between atoms: S_15  and  C_18
REMARK    8  A    between atoms: C_21  and  C_24
REMARK    9  A    between atoms: N_26  and  CA_27
REMARK   10  A    between atoms: CA_27  and  CB_29
REMARK   11  A    between atoms: CA_27  and  C_34
REMARK   12  A    between atoms: CB_29  and  CG_30
REMARK   13  A    between atoms: CG_30  and  CD_31
REMARK   14  A    between atoms: CD_31  and  OE1_32
REMARK   15  A    between atoms: C_34  and  O_35
REMARK                            x       y       z     vdW  Elec       q    Type
REMARK                         _______ _______ _______ _____ _____    ______ ____
ROOT
ATOM      1  C   UNK A   0       6.405  -0.697  -0.640  0.00  0.00    +0.106 A 
ATOM      2  C   UNK A   0       6.424  -0.776  -2.037  0.00  0.00    +0.029 A 
ATOM      3  C   UNK A   0       7.099   0.188  -2.798  0.00  0.00    +0.015 A 
ATOM      4  C   UNK A   0       7.761   1.250  -2.169  0.00  0.00    +0.037 A 
ATOM      5  C   UNK A   0       7.760   1.300  -0.760  0.00  0.00    +0.015 A 
ATOM      6  C   UNK A   0       7.088   0.332   0.008  0.00  0.00    +0.029 A 
ENDROOT
BRANCH   4   7
ATOM      7  C   UNK A   0       8.441   2.358  -2.927  0.00  0.00    +0.245 C 
ATOM      8  N   GLU A   1       8.410   2.336  -4.310  0.00  0.00    -0.298 N 
ATOM      9  H   GLU A   1       7.870   1.632  -4.799  0.00  0.00    +0.150 HD
ATOM     10  O   UNK A   0       8.976   3.278  -2.316  0.00  0.00    -0.270 OA
BRANCH   8  11
ATOM     11  CA  GLU A   1       8.891   3.463  -5.138  0.00  0.00    +0.182 C 
BRANCH  11  12
ATOM     12  C   GLU A   1       9.487   2.876  -6.429  0.00  0.00    +0.325 C 
ATOM     13  OXT GLU A   1       9.339   3.327  -7.553  0.00  0.00    -0.249 OA
BRANCH  12  14
ATOM     14  O   GLU A   1      10.282   1.801  -6.182  0.00  0.00    -0.479 OA
ATOM     15  H   GLU A   1      10.367   1.643  -5.219  0.00  0.00    +0.295 HD
ENDBRANCH  12  14
ENDBRANCH  11  12
BRANCH  11  16
ATOM     16  CB  GLU A   1       7.803   4.498  -5.456  0.00  0.00    +0.045 C 
BRANCH  16  17
ATOM     17  CG  GLU A   1       7.220   5.157  -4.207  0.00  0.00    +0.123 C 
BRANCH  17  18
ATOM     18  CD  GLU A   1       6.222   6.241  -4.535  0.00  0.00    +0.305 C 
ATOM     19  OE2 GLU A   1       5.870   6.561  -5.657  0.00  0.00    -0.251 OA
BRANCH  18  20
ATOM     20  OE1 GLU A   1       5.727   6.827  -3.419  0.00  0.00    -0.481 OA
ATOM     21  HE1 GLU A   1       6.105   6.472  -2.591  0.00  0.00    +0.295 HD
ENDBRANCH  18  20
ENDBRANCH  17  18
ENDBRANCH  16  17
ENDBRANCH  11  16
ENDBRANCH   8  11
ENDBRANCH   4   7
BRANCH   1  22
ATOM     22  S   UNK A   0       5.451  -1.890   0.278  0.00  0.00    +0.062 S 
ATOM     23  O   UNK A   0       4.648  -2.628  -0.673  0.00  0.00    -0.153 OA
ATOM     24  O   UNK A   0       6.320  -2.568   1.214  0.00  0.00    -0.153 OA
BRANCH  22  26
ATOM     25  C   UNK A   0       3.521  -1.697   2.202  0.00  0.00    +0.165 C 
ATOM     26  N   UNK A   0       4.380  -0.974   1.196  0.00  0.00    -0.165 NA
ATOM     27  C   UNK A   0       3.543   0.032   0.494  0.00  0.00    +0.110 C 
ATOM     28  C   UNK A   0       2.135  -0.154   1.026  0.00  0.00    +0.019 C 
ATOM     29  C   UNK A   0       2.369  -0.698   2.423  0.00  0.00    +0.031 C 
BRANCH  25  32
ATOM     30  N   UNK A   0       3.804  -4.147   1.817  0.00  0.00    -0.313 N 
ATOM     31  H   UNK A   0       4.810  -3.970   1.808  0.00  0.00    +0.149 HD
ATOM     32  C   UNK A   0       2.932  -3.072   1.832  0.00  0.00    +0.232 C 
ATOM     33  O   UNK A   0       1.730  -3.239   1.610  0.00  0.00    -0.274 OA
BRANCH  30  34
ATOM     34  C   UNK A   0       3.300  -5.430   1.358  0.00  0.00    +0.115 C 
BRANCH  34  35
ATOM     35  C   UNK A   0       4.350  -6.506   1.177  0.00  0.00    +0.139 C 
BRANCH  35  36
ATOM     36  C   UNK A   0       5.247  -6.207   0.008  0.00  0.00    +0.306 C 
ATOM     37  O   UNK A   0       6.323  -5.638   0.110  0.00  0.00    -0.251 OA
BRANCH  36  38
ATOM     38  O   UNK A   0       4.764  -6.628  -1.182  0.00  0.00    -0.481 OA
ATOM     39  H   UNK A   0       3.885  -7.048  -1.143  0.00  0.00    +0.295 HD
ENDBRANCH  36  38
ENDBRANCH  35  36
ENDBRANCH  34  35
ENDBRANCH  30  34
ENDBRANCH  25  32
ENDBRANCH  22  26
ENDBRANCH   1  22
TORSDOF 15
