REMARK  Name = 
REMARK  8 active torsions:
REMARK  status: ('A' for Active; 'I' for Inactive)
REMARK    1  A    between atoms: N_1  and  C_2
REMARK    2  A    between atoms: C_2  and  C_4
REMARK    3  A    between atoms: C_2  and  C_10
REMARK    4  A    between atoms: C_4  and  S_5
REMARK    5  A    between atoms: S_5  and  AS_6
REMARK    6  A    between atoms: AS_6  and  O_7
REMARK    7  A    between atoms: AS_6  and  O_8
REMARK    8  A    between atoms: C_10  and  O_11
REMARK                            x       y       z     vdW  Elec       q    Type
REMARK                         _______ _______ _______ _____ _____    ______ ____
ROOT
ATOM      1  C   UNK     1       2.409   0.068  -0.033  0.00  0.00    +0.000 C 
ENDROOT
BRANCH   1   2
ATOM      2  N   UNK     1       2.854  -1.265  -0.443  0.00  0.00    +0.000 NA
ATOM      3  H   UNK     1       3.897  -1.333  -0.410  0.00  0.00    +0.000 HD
ATOM      4  H   UNK     1       2.452  -1.985   0.199  0.00  0.00    +0.000 HD
ENDBRANCH   1   2
BRANCH   1   5
ATOM      5  C   UNK     1       2.868   1.092  -1.048  0.00  0.00    +0.000 C 
ATOM      6  O   UNK     1       2.039   1.745  -1.661  0.00  0.00    +0.000 OA
BRANCH   5   7
ATOM      7  O   UNK     1       4.180   1.302  -1.292  0.00  0.00    +0.000 OA
ATOM      8  H   UNK     1       4.876   0.812  -0.833  0.00  0.00    +0.000 HD
ENDBRANCH   5   7
ENDBRANCH   1   5
BRANCH   1   9
ATOM      9  C   UNK     1       2.914   0.403   1.384  0.00  0.00    +0.000 C 
BRANCH   9  10
ATOM     10  S   UNK     1       2.270   2.026   1.920  0.00  0.00    +0.000 S 
BRANCH  10  11
ATOM     11 AS   UNK     1       3.272   1.954   3.952  0.00  0.00    +0.000 As
ATOM     12  O   UNK     1       2.756   3.280   4.778  0.00  0.00    +0.000 OA
BRANCH  11  13
ATOM     13  O   UNK     1       5.099   2.164   3.988  0.00  0.00    +0.000 OA
ATOM     14  H   UNK     1       5.455   1.325   3.603  0.00  0.00    +0.000 HD
ENDBRANCH  11  13
BRANCH  11  15
ATOM     15  O   UNK     1       2.770   0.587   5.074  0.00  0.00    +0.000 OA
ATOM     16  H   UNK     1       3.219  -0.215   4.707  0.00  0.00    +0.000 HD
ENDBRANCH  11  15
ENDBRANCH  10  11
ENDBRANCH   9  10
ENDBRANCH   1   9
TORSDOF 8
