REMARK  Name = 
REMARK  8 active torsions:
REMARK  status: ('A' for Active; 'I' for Inactive)
REMARK    1  A    between atoms: C_1  and  C_2
REMARK    2  A    between atoms: N_4  and  C_5
REMARK    3  A    between atoms: C_8  and  N_10
REMARK    4  A    between atoms: C_13  and  C_15
REMARK    5  A    between atoms: C_15  and  O_16
REMARK    6  A    between atoms: O_16  and  P_17
REMARK    7  A    between atoms: P_17  and  O_18
REMARK    8  A    between atoms: P_17  and  O_19
REMARK                            x       y       z     vdW  Elec       q    Type
REMARK                         _______ _______ _______ _____ _____    ______ ____
ROOT
ATOM      1  C   UNL     1       5.414   2.545  -0.387  0.00  0.00    +0.226 C 
ATOM      2  O   UNL     1       6.470   2.627   0.585  0.00  0.00    -0.349 OA
ATOM      3  C   UNL     1       6.684   4.021   0.901  0.00  0.00    +0.178 C 
ATOM      4  C   UNL     1       5.754   4.826  -0.019  0.00  0.00    +0.226 C 
ATOM      5  C   UNL     1       4.632   3.843  -0.263  0.00  0.00    +0.091 C 
ENDROOT
BRANCH   1  14
ATOM      6  C   UNL     1       3.468  -0.980   2.553  0.00  0.00    +0.051 C 
ATOM      7  C   UNL     1       3.672  -0.310   1.233  0.00  0.00    +0.030 A 
ATOM      8  C   UNL     1       2.949  -0.874   0.067  0.00  0.00    +0.257 A 
ATOM      9  O   UNL     1       2.207  -1.842   0.166  0.00  0.00    -0.267 OA
ATOM     10  N   UNL     1       3.153  -0.230  -1.123  0.00  0.00    -0.275 N 
ATOM     11  H   UNL     1       2.654  -0.587  -1.921  0.00  0.00    +0.173 HD
ATOM     12  C   UNL     1       3.906   0.895  -1.314  0.00  0.00    +0.331 A 
ATOM     13  O   UNL     1       3.934   1.444  -2.413  0.00  0.00    -0.246 OA
ATOM     14  N   UNL     1       4.596   1.357  -0.201  0.00  0.00    -0.274 N 
ATOM     15  C   UNL     1       4.452   0.762   1.038  0.00  0.00    +0.101 A 
ENDBRANCH   1  14
BRANCH   4  16
ATOM     16  N   UNL     1       5.273   6.043   0.643  0.00  0.00    +0.082 NA
ATOM     17  N   UNL     1       4.891   6.958  -0.112  0.00  0.00    -0.014 NA
ATOM     18  N   UNL     1       4.551   7.794  -0.808  0.00  0.00    -0.328 NA
ENDBRANCH   4  16
BRANCH   3  19
ATOM     19  C   UNL     1       8.148   4.408   0.686  0.00  0.00    +0.206 C 
BRANCH  19  20
ATOM     20  O   UNL     1       9.027   3.671   1.545  0.00  0.00    -0.284 OA
BRANCH  20  21
ATOM     21  P   UNL     1      10.679   4.118   1.287  0.00  0.00    +0.472 P 
ATOM     22  O   UNL     1      12.157   4.517   1.057  0.00  0.00    -0.228 OA
BRANCH  21  23
ATOM     23  O   UNL     1      10.616   3.050   0.048  0.00  0.00    -0.303 OA
ATOM     24  H   UNL     1      10.923   2.200   0.418  0.00  0.00    +0.222 HD
ENDBRANCH  21  23
BRANCH  21  25
ATOM     25  O   UNL     1      10.995   2.958   2.401  0.00  0.00    -0.303 OA
ATOM     26  H   UNL     1      10.635   3.203   3.271  0.00  0.00    +0.222 HD
ENDBRANCH  21  25
ENDBRANCH  20  21
ENDBRANCH  19  20
ENDBRANCH   3  19
TORSDOF 7
