REMARK  Name = 
REMARK  22 active torsions:
REMARK  status: ('A' for Active; 'I' for Inactive)
REMARK    1  A    between atoms: C_1  and  C_2
REMARK    2  A    between atoms: C_2  and  C_3
REMARK    3  A    between atoms: C_3  and  C_4
REMARK    4  A    between atoms: C_4  and  C_5
REMARK    5  A    between atoms: C_5  and  C_6
REMARK    6  A    between atoms: C_6  and  C_7
REMARK    7  A    between atoms: C_7  and  C_8
REMARK    8  A    between atoms: C_8  and  C_9
REMARK    9  A    between atoms: C_10  and  C_11
REMARK   10  A    between atoms: C_11  and  C_12
REMARK   11  A    between atoms: C_12  and  C_13
REMARK   12  A    between atoms: C_13  and  C_14
REMARK   13  A    between atoms: C_14  and  C_15
REMARK   14  A    between atoms: C_15  and  C_16
REMARK   15  A    between atoms: C_16  and  C_17
REMARK   16  A    between atoms: C_17  and  C_18
REMARK   17  A    between atoms: C_18  and  O_19
REMARK   18  A    between atoms: O_19  and  C_20
REMARK   19  A    between atoms: C_20  and  C_22
REMARK   20  A    between atoms: C_22  and  O_24
REMARK   21  A    between atoms: C_22  and  C_25
REMARK   22  A    between atoms: C_25  and  O_26
REMARK                            x       y       z     vdW  Elec       q    Type
REMARK                         _______ _______ _______ _____ _____    ______ ____
ROOT
ATOM      1  C   UNL     1      14.479   1.739   8.781  0.00  0.00    +0.000 C 
ENDROOT
BRANCH   1   2
ATOM      2  C   UNL     1      15.034   2.031  10.176  0.00  0.00    +0.000 C 
BRANCH   2   3
ATOM      3  C   UNL     1      16.565   2.040  10.214  0.00  0.00    +0.003 C 
BRANCH   3   4
ATOM      4  C   UNL     1      17.166   3.130   9.331  0.00  0.00    +0.041 C 
BRANCH   4   5
ATOM      5  C   UNL     1      18.690   3.119   9.354  0.00  0.00    +0.232 C 
BRANCH   5   6
ATOM      6  O   UNL     1      19.188   4.113   8.441  0.00  0.00    -0.463 OA
BRANCH   6   7
ATOM      7  C   UNL     1      19.215   3.728   7.129  0.00  0.00    +0.338 C 
ATOM      8  O   UNL     1      18.865   2.629   6.710  0.00  0.00    -0.248 OA
BRANCH   7   9
ATOM      9  C   UNL     1      19.664   4.889   6.240  0.00  0.00    +0.248 C 
BRANCH   9  10
ATOM     10  O   UNL     1      20.595   5.753   6.890  0.00  0.00    -0.379 OA
ATOM     11  H   UNL     1      20.195   5.989   7.748  0.00  0.00    +0.211 HD
ENDBRANCH   9  10
BRANCH   9  12
ATOM     12  C   UNL     1      20.303   4.321   4.972  0.00  0.00    +0.198 C 
BRANCH  12  13
ATOM     13  O   UNL     1      19.355   3.631   4.157  0.00  0.00    -0.392 OA
ATOM     14  H   UNL     1      19.048   2.858   4.671  0.00  0.00    +0.210 HD
ENDBRANCH  12  13
ENDBRANCH   9  12
ENDBRANCH   7   9
ENDBRANCH   6   7
ENDBRANCH   5   6
ENDBRANCH   4   5
ENDBRANCH   3   4
ENDBRANCH   2   3
ENDBRANCH   1   2
BRANCH   1  15
ATOM     15  C   UNL     1      12.954   1.724   8.775  0.00  0.00    +0.000 C 
BRANCH  15  16
ATOM     16  C   UNL     1      12.431   1.471   7.363  0.00  0.00    +0.004 C 
BRANCH  16  17
ATOM     17  C   UNL     1      10.907   1.485   7.340  0.00  0.00    +0.027 C 
BRANCH  17  19
ATOM     18  C   UNL     1       9.654   0.148   5.639  0.00  0.00    -0.031 C 
ATOM     19  C   UNL     1      10.399   1.217   5.956  0.00  0.00    -0.031 C 
BRANCH  18  20
ATOM     20  C   UNL     1       9.133  -0.119   4.260  0.00  0.00    +0.027 C 
BRANCH  20  21
ATOM     21  C   UNL     1       7.606  -0.107   4.251  0.00  0.00    +0.004 C 
BRANCH  21  22
ATOM     22  C   UNL     1       7.069  -0.368   2.847  0.00  0.00    +0.000 C 
BRANCH  22  23
ATOM     23  C   UNL     1       5.543  -0.365   2.833  0.00  0.00    +0.000 C 
BRANCH  23  24
ATOM     24  C   UNL     1       5.009  -0.627   1.427  0.00  0.00    -0.000 C 
BRANCH  24  25
ATOM     25  C   UNL     1       3.482  -0.627   1.413  0.00  0.00    -0.000 C 
BRANCH  25  27
ATOM     26  C   UNL     1       1.423  -0.890  -0.005  0.00  0.00    +0.004 C 
ATOM     27  C   UNL     1       2.942  -0.889   0.009  0.00  0.00    -0.003 C 
ENDBRANCH  25  27
ENDBRANCH  24  25
ENDBRANCH  23  24
ENDBRANCH  22  23
ENDBRANCH  21  22
ENDBRANCH  20  21
ENDBRANCH  18  20
ENDBRANCH  17  19
ENDBRANCH  16  17
ENDBRANCH  15  16
ENDBRANCH   1  15
TORSDOF 21
