REMARK  Name = 
REMARK  6 active torsions:
REMARK  status: ('A' for Active; 'I' for Inactive)
REMARK    1  A    between atoms: C_1  and  C_2
REMARK    2  A    between atoms: C_9  and  C_10
REMARK    3  A    between atoms: C_10  and  C_11
REMARK    4  A    between atoms: C_11  and  C_12
REMARK    5  A    between atoms: C_12  and  N_13
REMARK    6  A    between atoms: C_16  and  C_19
REMARK                            x       y       z     vdW  Elec       q    Type
REMARK                         _______ _______ _______ _____ _____    ______ ____
ROOT
ATOM      1  C   UNL     1       3.443  -5.881  -0.009  0.00  0.00    +0.023 C 
ENDROOT
BRANCH   1   2
ATOM      2  C   UNL     1       4.391  -5.383  -1.101  0.00  0.00    +0.075 C 
BRANCH   2   7
ATOM      3  C   UNL     1       8.429  -3.789   1.564  0.00  0.00    +0.046 C 
ATOM      4  C   UNL     1       7.579  -2.583   1.276  0.00  0.00    -0.024 A 
ATOM      5  C   UNL     1       6.425  -2.696   0.480  0.00  0.00    +0.081 A 
ATOM      6  N   UNL     1       6.018  -3.963   0.021  0.00  0.00    -0.233 NA
ATOM      7  C   UNL     1       4.934  -4.044  -0.679  0.00  0.00    +0.110 A 
ATOM      8  N   UNL     1       4.173  -2.961  -1.017  0.00  0.00    -0.310 N 
ATOM      9  H   UNL     1       3.342  -3.064  -1.581  0.00  0.00    +0.170 HD
ATOM     10  C   UNL     1       4.487  -1.682  -0.644  0.00  0.00    +0.259 A 
ATOM     11  O   UNL     1       3.802  -0.724  -0.982  0.00  0.00    -0.267 OA
ATOM     12  C   UNL     1       5.688  -1.540   0.196  0.00  0.00    +0.065 A 
ATOM     13  C   UNL     1       6.059  -0.290   0.699  0.00  0.00    +0.015 A 
ATOM     14  C   UNL     1       7.181  -0.191   1.515  0.00  0.00    +0.001 A 
ATOM     15  C   UNL     1       7.938  -1.329   1.800  0.00  0.00    +0.005 A 
ENDBRANCH   2   7
ENDBRANCH   1   2
BRANCH   1  16
ATOM     16  C   UNL     1       3.005  -7.340  -0.193  0.00  0.00    +0.085 C 
BRANCH  16  17
ATOM     17  N   UNL     1       4.087  -8.326  -0.275  0.00  0.00    -0.298 NA
ATOM     18  C   UNL     1       5.150  -8.149   0.700  0.00  0.00    +0.112 C 
ATOM     19  C   UNL     1       5.741  -9.354   1.331  0.00  0.00    -0.008 C 
ATOM     20  C   UNL     1       5.286 -10.604   1.179  0.00  0.00    -0.042 C 
ATOM     21  C   UNL     1       4.168 -10.888   0.220  0.00  0.00    +0.051 C 
ATOM     22  C   UNL     1       3.598  -9.677  -0.546  0.00  0.00    +0.089 C 
BRANCH  20  23
ATOM     23  C   UNL     1       5.882 -11.706   1.967  0.00  0.00    -0.022 A 
ATOM     24  C   UNL     1       6.046 -12.988   1.425  0.00  0.00    +0.011 A 
ATOM     25  C   UNL     1       6.635 -14.009   2.176  0.00  0.00    +0.039 A 
ATOM     26  C   UNL     1       7.056 -13.759   3.476  0.00  0.00    +0.123 A 
ATOM     27  F   UNL     1       7.636 -14.734   4.183  0.00  0.00    -0.205 F 
ATOM     28  C   UNL     1       6.881 -12.507   4.047  0.00  0.00    +0.039 A 
ATOM     29  C   UNL     1       6.287 -11.490   3.299  0.00  0.00    +0.011 A 
ENDBRANCH  20  23
ENDBRANCH  16  17
ENDBRANCH   1  16
TORSDOF 5
