REMARK  Name = 
REMARK  33 active torsions:
REMARK  status: ('A' for Active; 'I' for Inactive)
REMARK    1  A    between atoms: N_1  and  C_2
REMARK    2  A    between atoms: C_2  and  C_4
REMARK    3  A    between atoms: C_2  and  C_50
REMARK    4  A    between atoms: C_4  and  C_5
REMARK    5  A    between atoms: C_5  and  C_6
REMARK    6  A    between atoms: N_8  and  C_9
REMARK    7  A    between atoms: C_9  and  C_11
REMARK    8  A    between atoms: C_9  and  C_13
REMARK    9  A    between atoms: C_11  and  S_12
REMARK   10  A    between atoms: N_15  and  C_16
REMARK   11  A    between atoms: C_16  and  C_17
REMARK   12  A    between atoms: N_19  and  C_20
REMARK   13  A    between atoms: C_20  and  C_21
REMARK   14  A    between atoms: C_21  and  C_22
REMARK   15  A    between atoms: C_22  and  C_23
REMARK   16  A    between atoms: C_23  and  N_24
REMARK   17  A    between atoms: N_24  and  C_25
REMARK   18  A    between atoms: C_25  and  C_26
REMARK   19  A    between atoms: C_26  and  C_27
REMARK   20  A    between atoms: C_27  and  N_28
REMARK   21  A    between atoms: C_29  and  C_31
REMARK   22  A    between atoms: C_31  and  N_32
REMARK   23  A    between atoms: C_33  and  C_35
REMARK   24  A    between atoms: C_35  and  C_37
REMARK   25  A    between atoms: C_35  and  N_39
REMARK   26  A    between atoms: C_37  and  S_38
REMARK   27  A    between atoms: C_40  and  C_42
REMARK   28  A    between atoms: C_42  and  C_43
REMARK   29  A    between atoms: C_43  and  C_44
REMARK   30  A    between atoms: C_44  and  N_46
REMARK   31  A    between atoms: C_44  and  C_47
REMARK   32  A    between atoms: C_47  and  O_48
REMARK   33  A    between atoms: C_50  and  O_51
REMARK                            x       y       z     vdW  Elec       q    Type
REMARK                         _______ _______ _______ _____ _____    ______ ____
ROOT
ATOM      1  N   UNK     1       1.391 -27.592   7.136  0.00  0.00    -0.316 NA
ATOM      2  H   UNK     1       1.418 -28.583   7.373  0.00  0.00    +0.122 HD
ENDROOT
BRANCH   1   3
ATOM      3  C   UNK     1       0.931 -27.418   5.758  0.00  0.00    +0.082 C 
BRANCH   3   4
ATOM      4  C   UNK     1       1.835 -28.196   4.799  0.00  0.00    +0.034 C 
BRANCH   4   5
ATOM      5  C   UNK     1       1.399 -28.042   3.345  0.00  0.00    +0.105 C 
BRANCH   5   6
ATOM      6  N   UNK     1       0.057 -28.537   3.110  0.00  0.00    -0.314 N 
ATOM      7  H   UNK     1      -0.370 -29.168   3.783  0.00  0.00    +0.149 HD
ATOM      8  C   UNK     1      -0.514 -28.475   1.858  0.00  0.00    +0.230 C 
ATOM      9  O   UNK     1       0.065 -28.059   0.863  0.00  0.00    -0.274 OA
BRANCH   8  10
ATOM     10  C   UNK     1      -1.915 -29.084   1.795  0.00  0.00    +0.200 C 
BRANCH  10  11
ATOM     11  N   UNK     1      -1.835 -30.487   1.439  0.00  0.00    -0.305 N 
ATOM     12  H   UNK     1      -1.654 -30.705   0.462  0.00  0.00    +0.149 HD
ATOM     13  C   UNK     1      -1.785 -31.497   2.368  0.00  0.00    +0.235 C 
ATOM     14  O   UNK     1      -1.811 -31.275   3.580  0.00  0.00    -0.274 OA
BRANCH  13  15
ATOM     15  C   UNK     1      -1.632 -32.926   1.790  0.00  0.00    +0.168 C 
BRANCH  15  16
ATOM     16  N   UNK     1      -1.475 -33.849   2.928  0.00  0.00    -0.303 N 
ATOM     17  H   UNK     1      -1.666 -33.486   3.858  0.00  0.00    +0.149 HD
ATOM     18  C   UNK     1      -1.021 -35.127   2.736  0.00  0.00    +0.214 C 
ATOM     19  O   UNK     1      -0.783 -35.574   1.619  0.00  0.00    -0.276 OA
BRANCH  18  20
ATOM     20  C   UNK     1      -0.842 -35.952   3.992  0.00  0.00    +0.098 C 
BRANCH  20  21
ATOM     21  C   UNK     1       0.172 -37.080   3.755  0.00  0.00    +0.039 C 
BRANCH  21  22
ATOM     22  C   UNK     1       1.568 -36.582   3.343  0.00  0.00    +0.161 C 
BRANCH  22  23
ATOM     23  N   UNK     1       2.211 -35.824   4.457  0.00  0.00    -0.318 NA
ATOM     24  H   UNK     1       3.098 -35.451   4.098  0.00  0.00    +0.119 HD
ATOM     25  H   UNK     1       1.657 -34.981   4.627  0.00  0.00    +0.119 HD
ENDBRANCH  22  23
BRANCH  22  26
ATOM     26  C   UNK     1       2.461 -37.783   2.996  0.00  0.00    +0.322 C 
ATOM     27  O   UNK     1       2.497 -38.351   1.917  0.00  0.00    -0.249 OA
BRANCH  26  28
ATOM     28  O   UNK     1       3.217 -38.154   4.063  0.00  0.00    -0.480 OA
ATOM     29  H   UNK     1       3.011 -37.513   4.786  0.00  0.00    +0.295 HD
ENDBRANCH  26  28
ENDBRANCH  22  26
ENDBRANCH  21  22
ENDBRANCH  20  21
ENDBRANCH  18  20
ENDBRANCH  15  16
BRANCH  15  30
ATOM     30  C   UNK     1      -2.798 -33.383   0.892  0.00  0.00    +0.097 C 
BRANCH  30  31
ATOM     31  S   UNK     1      -3.099 -32.405  -0.616  0.00  0.00    -0.176 S 
ATOM     32  H   UNK     1      -4.047 -31.614  -0.087  0.00  0.00    +0.102 HD
ENDBRANCH  30  31
ENDBRANCH  15  30
ENDBRANCH  13  15
ENDBRANCH  10  11
ENDBRANCH   8  10
ENDBRANCH   5   6
ENDBRANCH   4   5
ENDBRANCH   3   4
ENDBRANCH   1   3
BRANCH   1  33
ATOM     33  C   UNK     1       0.511 -26.893   8.072  0.00  0.00    +0.081 C 
BRANCH  33  34
ATOM     34  C   UNK     1       1.028 -27.021   9.510  0.00  0.00    +0.017 C 
BRANCH  34  35
ATOM     35  C   UNK     1       2.443 -26.467   9.743  0.00  0.00    +0.020 C 
BRANCH  35  36
ATOM     36  C   UNK     1       2.546 -24.975   9.447  0.00  0.00    +0.104 C 
BRANCH  36  38
ATOM     37  C   UNK     1       4.124 -23.103   9.413  0.00  0.00    +0.230 C 
ATOM     38  N   UNK     1       3.869 -24.434   9.686  0.00  0.00    -0.314 N 
ATOM     39  H   UNK     1       4.512 -24.916  10.314  0.00  0.00    +0.149 HD
ATOM     40  O   UNK     1       3.279 -22.329   8.968  0.00  0.00    -0.274 OA
BRANCH  37  41
ATOM     41  C   UNK     1       5.532 -22.630   9.770  0.00  0.00    +0.200 C 
BRANCH  41  43
ATOM     42  C   UNK     1       6.004 -23.199  12.103  0.00  0.00    +0.235 C 
ATOM     43  N   UNK     1       5.637 -22.241  11.171  0.00  0.00    -0.305 N 
ATOM     44  H   UNK     1       5.057 -21.473  11.494  0.00  0.00    +0.149 HD
ATOM     45  O   UNK     1       6.162 -24.365  11.756  0.00  0.00    -0.274 OA
BRANCH  42  46
ATOM     46  C   UNK     1       6.047 -22.717  13.582  0.00  0.00    +0.168 C 
BRANCH  46  48
ATOM     47  C   UNK     1       6.372 -20.562  14.803  0.00  0.00    +0.214 C 
ATOM     48  N   UNK     1       6.448 -21.291  13.640  0.00  0.00    -0.303 N 
ATOM     49  H   UNK     1       6.901 -20.894  12.826  0.00  0.00    +0.149 HD
ATOM     50  O   UNK     1       5.950 -21.010  15.864  0.00  0.00    -0.276 OA
BRANCH  47  51
ATOM     51  C   UNK     1       6.844 -19.126  14.705  0.00  0.00    +0.098 C 
BRANCH  51  52
ATOM     52  C   UNK     1       5.888 -18.200  13.947  0.00  0.00    +0.039 C 
BRANCH  52  53
ATOM     53  C   UNK     1       4.494 -17.999  14.564  0.00  0.00    +0.161 C 
BRANCH  53  54
ATOM     54  N   UNK     1       4.535 -17.454  15.950  0.00  0.00    -0.318 NA
ATOM     55  H   UNK     1       5.274 -17.914  16.488  0.00  0.00    +0.119 HD
ATOM     56  H   UNK     1       4.832 -16.475  15.894  0.00  0.00    +0.119 HD
ENDBRANCH  53  54
BRANCH  53  57
ATOM     57  C   UNK     1       3.651 -19.287  14.531  0.00  0.00    +0.322 C 
ATOM     58  O   UNK     1       3.518 -20.004  13.549  0.00  0.00    -0.249 OA
BRANCH  57  59
ATOM     59  O   UNK     1       3.072 -19.535  15.732  0.00  0.00    -0.480 OA
ATOM     60  H   UNK     1       3.362 -18.808  16.336  0.00  0.00    +0.295 HD
ENDBRANCH  57  59
ENDBRANCH  53  57
ENDBRANCH  52  53
ENDBRANCH  51  52
ENDBRANCH  47  51
ENDBRANCH  46  48
BRANCH  46  61
ATOM     61  C   UNK     1       7.011 -23.580  14.424  0.00  0.00    +0.097 C 
BRANCH  61  62
ATOM     62  S   UNK     1       6.564 -25.335  14.659  0.00  0.00    -0.176 S 
ATOM     63  H   UNK     1       5.360 -25.129  15.208  0.00  0.00    +0.102 HD
ENDBRANCH  61  62
ENDBRANCH  46  61
ENDBRANCH  42  46
ENDBRANCH  41  43
ENDBRANCH  37  41
ENDBRANCH  36  38
ENDBRANCH  35  36
ENDBRANCH  34  35
ENDBRANCH  33  34
ENDBRANCH   1  33
TORSDOF 33
