REMARK  Name = 
REMARK  27 active torsions:
REMARK  status: ('A' for Active; 'I' for Inactive)
REMARK    1  A    between atoms: C_1  and  C_2
REMARK    2  A    between atoms: C_2  and  C_3
REMARK    3  A    between atoms: C_3  and  C_5
REMARK    4  A    between atoms: C_3  and  C_6
REMARK    5  A    between atoms: C_6  and  N_8
REMARK    6  A    between atoms: C_6  and  C_51
REMARK    7  A    between atoms: C_9  and  C_11
REMARK    8  A    between atoms: C_11  and  O_13
REMARK    9  A    between atoms: C_11  and  C_21
REMARK   10  A    between atoms: O_13  and  C_14
REMARK   11  A    between atoms: C_14  and  C_15
REMARK   12  A    between atoms: C_21  and  O_23
REMARK   13  A    between atoms: C_21  and  C_24
REMARK   14  A    between atoms: C_24  and  O_26
REMARK   15  A    between atoms: C_24  and  C_27
REMARK   16  A    between atoms: C_27  and  O_29
REMARK   17  A    between atoms: C_27  and  C_37
REMARK   18  A    between atoms: O_29  and  C_30
REMARK   19  A    between atoms: C_30  and  C_31
REMARK   20  A    between atoms: N_39  and  C_40
REMARK   21  A    between atoms: C_40  and  C_42
REMARK   22  A    between atoms: C_40  and  C_47
REMARK   23  A    between atoms: C_42  and  C_44
REMARK   24  A    between atoms: C_42  and  C_45
REMARK   25  A    between atoms: C_45  and  C_46
REMARK   26  A    between atoms: N_49  and  C_50
REMARK   27  A    between atoms: N_53  and  C_54
REMARK                            x       y       z     vdW  Elec       q    Type
REMARK                         _______ _______ _______ _____ _____    ______ ____
ROOT
ATOM      1  C   UNL     1       4.036   9.429   6.046  0.00  0.00    +0.184 C 
ENDROOT
BRANCH   1   2
ATOM      2  O   UNL     1       3.989  10.735   6.659  0.00  0.00    -0.386 OA
ATOM      3  H   UNL     1       3.414  10.659   7.453  0.00  0.00    +0.210 HD
ENDBRANCH   1   2
BRANCH   1   4
ATOM      4  C   UNL     1       5.153   8.635   6.784  0.00  0.00    +0.184 C 
BRANCH   4   5
ATOM      5  O   UNL     1       6.395   9.354   6.823  0.00  0.00    -0.386 OA
ATOM      6  H   UNL     1       6.758   9.369   5.920  0.00  0.00    +0.210 HD
ENDBRANCH   4   5
BRANCH   4   7
ATOM      7  C   UNL     1       4.763   8.176   8.226  0.00  0.00    +0.235 C 
BRANCH   7   8
ATOM      8  C   UNL     1       4.346   9.350   9.132  0.00  0.00    +0.245 C 
ATOM      9  N   UNL     1       5.250   9.763  10.087  0.00  0.00    -0.302 N 
ATOM     10  H   UNL     1       6.174   9.347  10.161  0.00  0.00    +0.150 HD
ATOM     11  O   UNL     1       3.245   9.900   9.011  0.00  0.00    -0.273 OA
BRANCH   9  12
ATOM     12  C   UNL     1       4.914  10.844  11.018  0.00  0.00    +0.162 C 
BRANCH  12  13
ATOM     13  C   UNL     1       5.699  10.658  12.341  0.00  0.00    +0.233 C 
ATOM     14  N   UNL     1       5.062  11.169  13.457  0.00  0.00    -0.317 N 
ATOM     15  H   UNL     1       4.094  11.451  13.367  0.00  0.00    +0.148 HD
ATOM     16  C   UNL     1       5.548  10.918  14.794  0.00  0.00    +0.128 C 
ATOM     17  O   UNL     1       6.791  10.095  12.384  0.00  0.00    -0.274 OA
ENDBRANCH  12  13
BRANCH  12  18
ATOM     18  C   UNL     1       5.064  12.236  10.345  0.00  0.00    +0.015 C 
ATOM     19  C   UNL     1       6.519  12.687  10.193  0.00  0.00    +0.010 C 
BRANCH  18  20
ATOM     20  C   UNL     1       4.190  13.299  11.042  0.00  0.00    +0.002 C 
ATOM     21  C   UNL     1       4.017  14.564  10.208  0.00  0.00    +0.004 C 
ENDBRANCH  18  20
ENDBRANCH  12  18
ENDBRANCH   9  12
ENDBRANCH   7   8
BRANCH   7  22
ATOM     22  O   UNL     1       3.662   7.236   8.242  0.00  0.00    -0.360 OA
BRANCH  22  23
ATOM     23  C   UNL     1       3.924   6.078   7.453  0.00  0.00    +0.196 C 
BRANCH  23  24
ATOM     24  C   UNL     1       3.110   4.861   7.807  0.00  0.00    -0.022 A 
ATOM     25  C   UNL     1       3.546   3.634   7.277  0.00  0.00    +0.006 A 
ATOM     26  C   UNL     1       2.886   2.447   7.578  0.00  0.00    +0.000 A 
ATOM     27  C   UNL     1       1.764   2.473   8.398  0.00  0.00    +0.000 A 
ATOM     28  C   UNL     1       1.286   3.691   8.887  0.00  0.00    +0.000 A 
ATOM     29  C   UNL     1       1.951   4.885   8.588  0.00  0.00    +0.006 A 
ENDBRANCH  23  24
ENDBRANCH  22  23
ENDBRANCH   7  22
ENDBRANCH   4   7
ENDBRANCH   1   4
BRANCH   1  30
ATOM     30  C   UNL     1       4.232   9.650   4.515  0.00  0.00    +0.235 C 
BRANCH  30  33
ATOM     31  N   UNL     1       4.096   8.484   2.349  0.00  0.00    -0.302 N 
ATOM     32  H   UNL     1       3.736   9.386   2.049  0.00  0.00    +0.150 HD
ATOM     33  C   UNL     1       4.332   8.335   3.696  0.00  0.00    +0.245 C 
ATOM     34  O   UNL     1       4.647   7.256   4.179  0.00  0.00    -0.273 OA
BRANCH  31  35
ATOM     35  C   UNL     1       4.213   7.375   1.382  0.00  0.00    +0.162 C 
BRANCH  35  36
ATOM     36  C   UNL     1       2.953   6.470   1.411  0.00  0.00    +0.233 C 
ATOM     37  N   UNL     1       1.758   7.123   1.631  0.00  0.00    -0.317 N 
ATOM     38  H   UNL     1       1.808   8.050   2.035  0.00  0.00    +0.148 HD
ATOM     39  C   UNL     1       0.507   6.406   1.693  0.00  0.00    +0.128 C 
ATOM     40  O   UNL     1       3.002   5.279   1.101  0.00  0.00    -0.274 OA
ENDBRANCH  35  36
BRANCH  35  41
ATOM     41  C   UNL     1       4.482   7.956  -0.032  0.00  0.00    +0.015 C 
ATOM     42  C   UNL     1       5.852   8.654  -0.057  0.00  0.00    +0.010 C 
BRANCH  41  44
ATOM     43  C   UNL     1       5.345   5.772  -1.144  0.00  0.00    +0.004 C 
ATOM     44  C   UNL     1       4.375   6.944  -1.196  0.00  0.00    +0.002 C 
ENDBRANCH  41  44
ENDBRANCH  35  41
ENDBRANCH  31  35
ENDBRANCH  30  33
BRANCH  30  45
ATOM     45  O   UNL     1       3.119  10.346   3.886  0.00  0.00    -0.360 OA
BRANCH  45  46
ATOM     46  C   UNL     1       2.867  11.649   4.416  0.00  0.00    +0.196 C 
BRANCH  46  47
ATOM     47  C   UNL     1       1.846  12.382   3.585  0.00  0.00    -0.022 A 
ATOM     48  C   UNL     1       1.828  13.786   3.591  0.00  0.00    +0.006 A 
ATOM     49  C   UNL     1       0.823  14.481   2.921  0.00  0.00    +0.000 A 
ATOM     50  C   UNL     1      -0.175  13.783   2.245  0.00  0.00    +0.000 A 
ATOM     51  C   UNL     1      -0.178  12.389   2.250  0.00  0.00    +0.000 A 
ATOM     52  C   UNL     1       0.823  11.693   2.924  0.00  0.00    +0.006 A 
ENDBRANCH  46  47
ENDBRANCH  45  46
ENDBRANCH  30  45
ENDBRANCH   1  30
TORSDOF 21
