REMARK  Name = 
REMARK  2 active torsions:
REMARK  status: ('A' for Active; 'I' for Inactive)
REMARK    1  A    between atoms: O_1  and  C_2
REMARK    2  A    between atoms: C_5  and  C_8
REMARK                            x       y       z     vdW  Elec       q    Type
REMARK                         _______ _______ _______ _____ _____    ______ ____
ROOT
ATOM      1  C   UNL     1       6.574   0.196  -0.632  0.00  0.00    +0.001 A 
ATOM      2  C   UNL     1       7.320   1.355  -0.796  0.00  0.00    +0.120 A 
ATOM      3  N   UNL     1       8.648   1.396  -1.072  0.00  0.00    -0.254 NA
ATOM      4  C   UNL     1       9.303   0.235  -1.219  0.00  0.00    +0.072 A 
ATOM      5  C   UNL     1      10.654   0.285  -1.522  0.00  0.00    +0.029 A 
ATOM      6  C   UNL     1      11.414  -0.873  -1.698  0.00  0.00    +0.011 A 
ATOM      7  C   UNL     1      10.823  -2.132  -1.570  0.00  0.00    -0.014 A 
ATOM      8  C   UNL     1      11.582  -3.296  -1.750  0.00  0.00    +0.028 A 
ATOM      9  C   UNL     1      10.962  -4.526  -1.621  0.00  0.00    +0.111 A 
ATOM     10  N   UNL     1       9.659  -4.674  -1.330  0.00  0.00    -0.263 NA
ATOM     11  C   UNL     1       8.946  -3.533  -1.159  0.00  0.00    +0.119 A 
ATOM     12  C   UNL     1       9.450  -2.223  -1.257  0.00  0.00    +0.009 A 
ATOM     13  C   UNL     1       8.682  -1.021  -1.077  0.00  0.00    +0.010 A 
ATOM     14  C   UNL     1       7.299  -0.996  -0.765  0.00  0.00    +0.020 A 
ENDROOT
BRANCH   1  18
ATOM     15  C   UNL     1       2.324   0.257   0.041  0.00  0.00    +0.117 A 
ATOM     16  C   UNL     1       2.892  -0.770  -0.695  0.00  0.00    +0.046 A 
ATOM     17  C   UNL     1       4.274  -0.789  -0.905  0.00  0.00    +0.012 A 
ATOM     18  C   UNL     1       5.117   0.208  -0.372  0.00  0.00    -0.016 A 
ATOM     19  C   UNL     1       4.506   1.220   0.394  0.00  0.00    +0.012 A 
ATOM     20  C   UNL     1       3.119   1.250   0.596  0.00  0.00    +0.046 A 
BRANCH  15  21
ATOM     21  O   UNL     1       0.970   0.257   0.190  0.00  0.00    -0.507 OA
ATOM     22  H   UNL     1       0.706   1.079   0.635  0.00  0.00    +0.292 HD
ENDBRANCH  15  21
ENDBRANCH   1  18
TORSDOF 2
