REMARK  Name = 
REMARK  17 active torsions:
REMARK  status: ('A' for Active; 'I' for Inactive)
REMARK    1  A    between atoms: C_1  and  O_2
REMARK    2  A    between atoms: O_2  and  C_3
REMARK    3  A    between atoms: C_6  and  C_8
REMARK    4  A    between atoms: C_11  and  N_12
REMARK    5  A    between atoms: N_12  and  C_13
REMARK    6  A    between atoms: C_13  and  C_14
REMARK    7  A    between atoms: C_14  and  N_15
REMARK    8  A    between atoms: N_15  and  C_16
REMARK    9  A    between atoms: N_15  and  C_17
REMARK   10  A    between atoms: C_25  and  C_26
REMARK   11  A    between atoms: C_30  and  O_32
REMARK   12  A    between atoms: O_32  and  C_33
REMARK   13  A    between atoms: C_34  and  O_36
REMARK   14  A    between atoms: O_36  and  C_37
REMARK   15  A    between atoms: C_40  and  C_41
REMARK   16  A    between atoms: C_43  and  C_45
REMARK   17  A    between atoms: C_46  and  O_48
REMARK                            x       y       z     vdW  Elec       q    Type
REMARK                         _______ _______ _______ _____ _____    ______ ____
ROOT
ATOM      1  C   UNL     1      11.619   6.248 -16.230  0.00  0.00    +0.147 C 
ATOM      2  C   UNL     1      11.113   4.706 -15.238  0.00  0.00    +0.150 C 
ATOM      3  C   UNL     1      10.740   2.847 -15.309  0.00  0.00    +0.040 C 
ATOM      4  C   UNL     1      11.782   1.793 -15.825  0.00  0.00    +0.014 C 
ATOM      5  C   UNL     1      10.189   1.780 -14.000  0.00  0.00    -0.019 C 
ATOM      6  C   UNL     1       9.298   0.685 -14.019  0.00  0.00    -0.033 C 
ATOM      7  C   UNL     1       8.457   0.359 -15.232  0.00  0.00    +0.042 C 
ATOM      8  C   UNL     1       8.712  -0.298 -12.751  0.00  0.00    +0.236 C 
ATOM      9  C   UNL     1       8.066   0.641 -11.661  0.00  0.00    +0.186 C 
ATOM     10  C   UNL     1       7.544   1.855 -12.382  0.00  0.00    +0.008 C 
ATOM     11  C   UNL     1       8.065   3.068 -12.190  0.00  0.00    -0.001 C 
ATOM     12  C   UNL     1       7.936   4.106 -13.182  0.00  0.00    +0.008 C 
ATOM     13  C   UNL     1       7.802   5.389 -12.835  0.00  0.00    +0.012 C 
ATOM     14  C   UNL     1       7.538   5.807 -11.419  0.00  0.00    +0.049 C 
ATOM     15  C   UNL     1       7.823   6.467 -13.883  0.00  0.00    +0.244 C 
ATOM     16  O   UNL     1       8.014   6.249 -15.072  0.00  0.00    -0.270 OA
ATOM     17  N   UNL     1       7.666   7.700 -13.289  0.00  0.00    -0.279 N 
ATOM     18  H   UNL     1       7.850   7.775 -12.308  0.00  0.00    +0.155 HD
ATOM     19  C   UNL     1       7.309   8.876 -13.848  0.00  0.00    +0.085 C 
ATOM     20  C   UNL     1       7.002   8.995 -15.263  0.00  0.00    +0.205 C 
ATOM     21  O   UNL     1       6.251   8.287 -15.906  0.00  0.00    -0.286 OA
ATOM     22  C   UNL     1       7.710  10.124 -15.847  0.00  0.00    +0.026 C 
ATOM     23  C   UNL     1       7.486  11.319 -15.257  0.00  0.00    +0.081 C 
ATOM     24  C   UNL     1       7.007  11.249 -13.807  0.00  0.00    +0.202 C 
ATOM     25  O   UNL     1       6.578  12.258 -13.238  0.00  0.00    -0.286 OA
ATOM     26  C   UNL     1       8.657   9.653 -16.933  0.00  0.00    +0.044 C 
ATOM     27  C   UNL     1      10.065   9.158 -16.270  0.00  0.00    -0.007 C 
ATOM     28  C   UNL     1      10.839  10.560 -16.231  0.00  0.00    +0.008 C 
ATOM     29  C   UNL     1       7.184   9.985 -13.131  0.00  0.00    +0.080 C 
ATOM     30  C   UNL     1      10.788   7.727 -16.946  0.00  0.00    +0.037 C 
ENDROOT
BRANCH   1  32
ATOM     31  C   UNL     1      13.961   6.419 -17.125  0.00  0.00    +0.194 C 
ATOM     32  O   UNL     1      12.632   5.865 -17.230  0.00  0.00    -0.377 OA
ENDBRANCH   1  32
BRANCH   2  33
ATOM     33  O   UNL     1      12.137   4.698 -14.188  0.00  0.00    -0.389 OA
ATOM     34  H   UNL     1      12.352   5.624 -13.988  0.00  0.00    +0.210 HD
ENDBRANCH   2  33
BRANCH   9  35
ATOM     35  O   UNL     1       6.987   0.100 -10.892  0.00  0.00    -0.372 OA
ATOM     36  C   UNL     1       6.573   1.010  -9.865  0.00  0.00    +0.195 C 
ENDBRANCH   9  35
BRANCH  23  37
ATOM     37  N   UNL     1       7.750  12.583 -15.772  0.00  0.00    -0.339 N 
ATOM     38  H   UNL     1       8.083  13.182 -15.009  0.00  0.00    +0.146 HD
BRANCH  37  39
ATOM     39  C   UNL     1       6.588  13.322 -16.343  0.00  0.00    +0.117 C 
BRANCH  39  40
ATOM     40  C   UNL     1       6.781  14.853 -16.226  0.00  0.00    +0.102 C 
BRANCH  40  41
ATOM     41  N   UNL     1       8.104  15.319 -16.682  0.00  0.00    -0.307 NA
ATOM     42  C   UNL     1       8.246  16.755 -16.462  0.00  0.00    +0.104 C 
ATOM     43  C   UNL     1       8.328  14.987 -18.090  0.00  0.00    +0.104 C 
ENDBRANCH  40  41
ENDBRANCH  39  40
ENDBRANCH  37  39
ENDBRANCH  23  37
BRANCH   8  44
ATOM     44  O   UNL     1       7.664  -1.232 -13.301  0.00  0.00    -0.440 OA
BRANCH  44  45
ATOM     45  C   UNL     1       7.193  -2.350 -12.687  0.00  0.00    +0.398 C 
ATOM     46  O   UNL     1       7.547  -2.820 -11.617  0.00  0.00    -0.227 OA
ATOM     47  N   UNL     1       6.247  -2.959 -13.465  0.00  0.00    -0.295 N 
ATOM     48  H   UNL     1       5.804  -3.818 -13.162  0.00  0.00    +0.148 HD
ATOM     49  H   UNL     1       5.971  -2.555 -14.346  0.00  0.00    +0.148 HD
ENDBRANCH  44  45
ENDBRANCH   8  44
TORSDOF 9
