REMARK  Name = 
REMARK  7 active torsions:
REMARK  status: ('A' for Active; 'I' for Inactive)
REMARK    1  A    between atoms: N_1  and  CA_2
REMARK    2  A    between atoms: CA_2  and  C_4
REMARK    3  A    between atoms: CA_2  and  C_9
REMARK    4  A    between atoms: C_4  and  P_5
REMARK    5  A    between atoms: P_5  and  O_6
REMARK    6  A    between atoms: P_5  and  O_7
REMARK    7  A    between atoms: C_9  and  O_10
REMARK                            x       y       z     vdW  Elec       q    Type
REMARK                         _______ _______ _______ _____ _____    ______ ____
ROOT
ATOM      1  CA  UNL     1       2.358   0.053  -0.054  0.00  0.00    +0.172 C 
ENDROOT
BRANCH   1   2
ATOM      2  N   UNL     1       0.869   0.175  -0.102  0.00  0.00    -0.318 NA
ATOM      3  H1  UNL     1       0.489  -0.292  -0.932  0.00  0.00    +0.119 HD
ATOM      4  H2  UNL     1       0.486  -0.385   0.671  0.00  0.00    +0.119 HD
ENDBRANCH   1   2
BRANCH   1   5
ATOM      5  C   UNL     1       2.983   1.269  -0.757  0.00  0.00    +0.322 C 
ATOM      6  OXT UNL     1       4.162   1.392  -1.027  0.00  0.00    -0.249 OA
BRANCH   5   7
ATOM      7  O   UNL     1       2.040   2.192  -1.069  0.00  0.00    -0.480 OA
ATOM      8  H   UNL     1       1.184   1.857  -0.707  0.00  0.00    +0.295 HD
ENDBRANCH   5   7
ENDBRANCH   1   5
BRANCH   1   9
ATOM      9  C   UNL     1       2.896  -1.240  -0.667  0.00  0.00    +0.157 C 
BRANCH   9  10
ATOM     10  P   UNL     1       2.554  -1.267  -2.465  0.00  0.00    +0.330 P 
ATOM     11  O   UNL     1       2.264  -1.290  -3.986  0.00  0.00    -0.259 OA
BRANCH  10  12
ATOM     12  O   UNL     1       1.896  -2.758  -2.261  0.00  0.00    -0.324 OA
ATOM     13  H   UNL     1       1.802  -3.161  -3.149  0.00  0.00    +0.220 HD
ENDBRANCH  10  12
BRANCH  10  14
ATOM     14  O   UNL     1       4.089  -1.802  -2.681  0.00  0.00    -0.324 OA
ATOM     15  H   UNL     1       4.230  -1.980  -3.632  0.00  0.00    +0.220 HD
ENDBRANCH  10  14
ENDBRANCH   9  10
ENDBRANCH   1   9
TORSDOF 7
