REMARK  Name = 
REMARK  8 active torsions:
REMARK  status: ('A' for Active; 'I' for Inactive)
REMARK    1  A    between atoms: C_2  and  C_3
REMARK    2  A    between atoms: C_2  and  C_4
REMARK    3  A    between atoms: C_2  and  C_18
REMARK    4  A    between atoms: C_4  and  N_5
REMARK    5  A    between atoms: C_6  and  C_8
REMARK    6  A    between atoms: C_11  and  S_14
REMARK    7  A    between atoms: S_14  and  N_15
REMARK    8  A    between atoms: C_18  and  N_19
REMARK                            x       y       z     vdW  Elec       q    Type
REMARK                         _______ _______ _______ _____ _____    ______ ____
ROOT
ATOM      1  N   UNL     1       3.748  -0.567  -1.700  0.00  0.00    -0.311 N 
ATOM      2  H   UNL     1       4.366   0.150  -2.055  0.00  0.00    +0.149 HD
ATOM      3  C   UNL     1       4.232  -1.849  -1.546  0.00  0.00    +0.244 C 
ATOM      4  O   UNL     1       3.531  -2.826  -1.320  0.00  0.00    -0.270 OA
ENDROOT
BRANCH   3   5
ATOM      5  C   UNL     1       5.700  -2.001  -1.724  0.00  0.00    +0.037 A 
ATOM      6  C   UNL     1       6.184  -3.157  -2.349  0.00  0.00    +0.015 A 
ATOM      7  C   UNL     1       7.552  -3.301  -2.591  0.00  0.00    +0.029 A 
ATOM      8  C   UNL     1       8.433  -2.294  -2.185  0.00  0.00    +0.105 A 
ATOM      9  C   UNL     1       7.961  -1.152  -1.530  0.00  0.00    +0.029 A 
ATOM     10  C   UNL     1       6.592  -1.009  -1.292  0.00  0.00    +0.015 A 
BRANCH   8  11
ATOM     11  S   UNL     1      10.152  -2.414  -2.586  0.00  0.00    +0.056 S 
ATOM     12  O   UNL     1      10.704  -1.083  -2.678  0.00  0.00    -0.153 OA
ATOM     13  O   UNL     1      10.332  -3.400  -3.625  0.00  0.00    -0.153 OA
BRANCH  11  14
ATOM     14  N   UNL     1      10.794  -3.087  -1.190  0.00  0.00    -0.204 NA
ATOM     15  H   UNL     1      11.453  -2.436  -0.763  0.00  0.00    +0.144 HD
ATOM     16  H   UNL     1      11.201  -3.999  -1.404  0.00  0.00    +0.144 HD
ENDBRANCH  11  14
ENDBRANCH   8  11
ENDBRANCH   3   5
BRANCH   1  17
ATOM     17  C   UNL     1       2.331  -0.264  -1.629  0.00  0.00    +0.109 C 
BRANCH  17  18
ATOM     18  C   UNL     1       1.867   0.025  -0.194  0.00  0.00    +0.023 C 
ATOM     19  C   UNL     1       0.343   0.144  -0.154  0.00  0.00    +0.011 C 
BRANCH  18  20
ATOM     20  C   UNL     1       2.565   1.237   0.453  0.00  0.00    +0.126 C 
BRANCH  20  21
ATOM     21  N   UNL     1       2.451   2.508  -0.249  0.00  0.00    -0.346 N 
ATOM     22  C   UNL     1       1.528   3.505   0.012  0.00  0.00    +0.049 A 
ATOM     23  C   UNL     1       1.855   4.587  -0.814  0.00  0.00    -0.000 A 
ATOM     24  C   UNL     1       1.087   5.766  -0.742  0.00  0.00    +0.010 A 
ATOM     25  C   UNL     1       0.014   5.836   0.150  0.00  0.00    +0.001 A 
ATOM     26  C   UNL     1      -0.304   4.748   0.958  0.00  0.00    +0.002 A 
ATOM     27  C   UNL     1       2.987   4.210  -1.581  0.00  0.00    +0.027 A 
ATOM     28  C   UNL     1       0.445   3.567   0.905  0.00  0.00    +0.026 A 
ATOM     29  C   UNL     1       3.349   2.943  -1.192  0.00  0.00    +0.087 A 
ENDBRANCH  20  21
ENDBRANCH  18  20
ENDBRANCH  17  18
ENDBRANCH   1  17
TORSDOF 7
