REMARK  Name = 
REMARK  13 active torsions:
REMARK  status: ('A' for Active; 'I' for Inactive)
REMARK    1  A    between atoms: CB_1  and  CA_2
REMARK    2  A    between atoms: CA_2  and  N_4
REMARK    3  A    between atoms: CA_2  and  C_24
REMARK    4  A    between atoms: C_5  and  C_7
REMARK    5  A    between atoms: C_7  and  C_8
REMARK    6  A    between atoms: C_8  and  C_9
REMARK    7  A    between atoms: C_9  and  C_10
REMARK    8  A    between atoms: C_10  and  C_11
REMARK    9  A    between atoms: C_11  and  N_13
REMARK   10  A    between atoms: C_11  and  C_21
REMARK   11  A    between atoms: C_14  and  CA_16
REMARK   12  A    between atoms: CA_16  and  N_17
REMARK   13  A    between atoms: C_24  and  O_25
REMARK                            x       y       z     vdW  Elec       q    Type
REMARK                         _______ _______ _______ _____ _____    ______ ____
ROOT
ATOM      1  C   UNK A   0       2.678  -6.693  -3.371  0.00  0.00    +0.028 C 
ENDROOT
BRANCH   1   2
ATOM      2  C   UNK A   0       3.213  -5.256  -3.378  0.00  0.00    +0.003 C 
BRANCH   2   3
ATOM      3  C   UNK A   0       2.726  -4.403  -2.213  0.00  0.00    +0.009 C 
BRANCH   3   4
ATOM      4  C   UNK A   0       3.136  -4.953  -0.856  0.00  0.00    +0.096 C 
BRANCH   4   7
ATOM      5  N   GLY A   1       2.916  -4.499   1.499  0.00  0.00    -0.303 N 
ATOM      6  H   GLY A   1       3.319  -5.423   1.603  0.00  0.00    +0.149 HD
ATOM      7  C   UNK A   0       2.582  -4.081   0.239  0.00  0.00    +0.214 C 
ATOM      8  O   UNK A   0       1.939  -3.051   0.046  0.00  0.00    -0.276 OA
BRANCH   5  10
ATOM      9  CB  GLY A   1       0.922  -3.836   2.836  0.00  0.00    +0.040 C 
ATOM     10  CA  GLY A   1       2.442  -3.828   2.706  0.00  0.00    +0.178 C 
BRANCH  10  11
ATOM     11  C   GLY A   1       3.020  -2.412   2.868  0.00  0.00    +0.325 C 
ATOM     12  OXT GLY A   1       3.713  -2.079   3.822  0.00  0.00    -0.249 OA
BRANCH  11  13
ATOM     13  O   GLY A   1       2.695  -1.538   1.895  0.00  0.00    -0.479 OA
ATOM     14  H   GLY A   1       2.196  -1.960   1.150  0.00  0.00    +0.295 HD
ENDBRANCH  11  13
ENDBRANCH  10  11
ENDBRANCH   5  10
ENDBRANCH   4   7
ENDBRANCH   3   4
ENDBRANCH   2   3
ENDBRANCH   1   2
BRANCH   1  15
ATOM     15  C   UNK A   0       1.147  -6.800  -3.400  0.00  0.00    +0.119 C 
BRANCH  15  16
ATOM     16  N   UNK A   0       0.626  -6.237  -4.665  0.00  0.00    -0.303 N 
ATOM     17  H   UNK A   0       0.294  -7.009  -5.252  0.00  0.00    +0.150 HD
ATOM     18  C   GLY A   1       0.154  -4.977  -4.825  0.00  0.00    +0.259 C 
ATOM     19  O   GLY A   1       0.082  -4.097  -3.968  0.00  0.00    -0.270 OA
BRANCH  18  20
ATOM     20  CA  GLY A   1      -0.158  -4.589  -6.257  0.00  0.00    +0.225 C 
BRANCH  20  21
ATOM     21  N   GLY A   1       0.153  -3.127  -6.399  0.00  0.00    +0.225 N 
ATOM     22  H1  GLY A   1      -0.231  -2.698  -7.242  0.00  0.00    +0.200 HD
ATOM     23  H2  GLY A   1       1.168  -2.980  -6.346  0.00  0.00    +0.200 HD
ATOM     24  H3  GLY A   1      -0.226  -2.662  -5.554  0.00  0.00    +0.200 HD
ENDBRANCH  20  21
ENDBRANCH  18  20
ENDBRANCH  15  16
BRANCH  15  25
ATOM     25  C   UNK A   0       0.790  -8.324  -3.308  0.00  0.00    +0.062 C 
ATOM     26  O   ACE A   2       0.220  -8.747  -4.364  0.00  0.00    -0.548 OA
ATOM     27  O   ACE A   2       1.093  -8.899  -2.234  0.00  0.00    -0.548 OA
ENDBRANCH  15  25
ENDBRANCH   1  15
TORSDOF 12
