REMARK  Name = 
REMARK  9 active torsions:
REMARK  status: ('A' for Active; 'I' for Inactive)
REMARK    1  A    between atoms: C_2  and  C_4
REMARK    2  A    between atoms: C_4  and  C_5
REMARK    3  A    between atoms: C_20  and  C_42
REMARK    4  A    between atoms: C_25  and  C_31
REMARK    5  A    between atoms: C_31  and  C_32
REMARK    6  A    between atoms: C_45  and  C_48
REMARK    7  A    between atoms: C_48  and  P_49
REMARK    8  A    between atoms: P_49  and  O_50
REMARK    9  A    between atoms: P_49  and  O_51
REMARK                            x       y       z     vdW  Elec       q    Type
REMARK                         _______ _______ _______ _____ _____    ______ ____
ROOT
ATOM      1  C   UNL     1       5.065   2.045   1.919  0.00  0.00    +0.168 C 
ATOM      2  C   UNL     1       5.613   3.528   2.409  0.00  0.00    +0.234 C 
ATOM      3  O   UNL     1       5.410   4.484   1.651  0.00  0.00    -0.274 OA
ATOM      4  N   UNL     1       6.439   3.684   3.593  0.00  0.00    -0.313 N 
ATOM      5  H   UNL     1       6.548   2.894   4.209  0.00  0.00    +0.149 HD
ATOM      6  C   UNL     1       7.524   4.766   3.664  0.00  0.00    +0.108 C 
ATOM      7  C   UNL     1       8.710   5.078   4.827  0.00  0.00    +0.014 C 
ATOM      8  C   UNL     1       8.120   5.376   6.236  0.00  0.00    +0.032 C 
ATOM      9  C   UNL     1       7.800   4.068   6.846  0.00  0.00    -0.030 C 
ATOM     10  C   UNL     1       7.298   3.622   7.998  0.00  0.00    -0.023 C 
ATOM     11  C   UNL     1       7.151   2.110   8.228  0.00  0.00    +0.050 C 
ATOM     12  C   UNL     1       6.602   1.353   6.966  0.00  0.00    +0.108 C 
ATOM     13  C   UNL     1       7.602   1.107   5.814  0.00  0.00    +0.215 C 
ATOM     14  O   UNL     1       8.799   1.339   5.849  0.00  0.00    -0.276 OA
ATOM     15  N   UNL     1       7.056   0.617   4.669  0.00  0.00    -0.301 N 
ATOM     16  H   UNL     1       6.329  -0.080   4.827  0.00  0.00    +0.150 HD
ATOM     17  C   UNL     1       7.827   0.448   3.375  0.00  0.00    +0.111 C 
ATOM     18  C   UNL     1       8.492   1.744   2.848  0.00  0.00    +0.035 C 
ATOM     19  C   UNL     1       9.352   1.592   1.598  0.00  0.00    +0.003 C 
ATOM     20  C   UNL     1      10.431   0.572   1.839  0.00  0.00    +0.000 C 
ATOM     21  C   UNL     1       9.824  -0.758   2.280  0.00  0.00    +0.003 C 
ATOM     22  C   UNL     1       8.889  -0.648   3.490  0.00  0.00    +0.035 C 
ATOM     23  C   UNL     1       6.653   0.212   2.394  0.00  0.00    +0.237 C 
ATOM     24  O   UNL     1       6.745  -0.326   1.299  0.00  0.00    -0.273 OA
ATOM     25  N   UNL     1       5.554   0.986   2.783  0.00  0.00    -0.302 N 
ATOM     26  H   UNL     1       5.537   1.247   3.756  0.00  0.00    +0.150 HD
ENDROOT
BRANCH  11  27
ATOM     27  C   UNL     1       8.360   1.431   8.884  0.00  0.00    -0.040 A 
ATOM     28  C   UNL     1       8.938   1.936  10.055  0.00  0.00    +0.004 A 
ATOM     29  C   UNL     1       9.900   1.188  10.751  0.00  0.00    +0.004 A 
ATOM     30  C   UNL     1      10.322  -0.059  10.268  0.00  0.00    -0.036 A 
ATOM     31  C   UNL     1       9.881  -0.488   9.031  0.00  0.00    +0.004 A 
ATOM     32  C   UNL     1       8.872   0.213   8.397  0.00  0.00    +0.004 A 
BRANCH  30  33
ATOM     33  C   UNL     1      11.116  -1.018  11.103  0.00  0.00    +0.162 C 
BRANCH  33  34
ATOM     34  P   UNL     1      12.884  -0.836  11.202  0.00  0.00    +0.332 P 
ATOM     35  O   UNL     1      13.643  -1.179   9.966  0.00  0.00    -0.258 OA
BRANCH  34  36
ATOM     36  O   UNL     1      13.272  -1.719  12.486  0.00  0.00    -0.324 OA
ATOM     37  H   UNL     1      12.569  -2.289  12.848  0.00  0.00    +0.220 HD
ENDBRANCH  34  36
BRANCH  34  38
ATOM     38  O   UNL     1      13.073   0.665  11.732  0.00  0.00    -0.324 OA
ATOM     39  H   UNL     1      12.872   1.330  11.045  0.00  0.00    +0.220 HD
ENDBRANCH  34  38
ENDBRANCH  33  34
ENDBRANCH  30  33
ENDBRANCH  11  27
BRANCH   1  40
ATOM     40  C   UNL     1       3.564   1.760   1.743  0.00  0.00    +0.127 C 
BRANCH  40  44
ATOM     41  N   UNL     1       3.304   3.308  -0.162  0.00  0.00    -0.329 N 
ATOM     42  H   UNL     1       4.170   3.802   0.073  0.00  0.00    +0.145 HD
ATOM     43  H   UNL     1       2.670   3.779  -0.804  0.00  0.00    +0.145 HD
ATOM     44  C   UNL     1       2.716   2.455   0.715  0.00  0.00    +0.213 C 
ATOM     45  O   UNL     1       1.511   2.226   0.605  0.00  0.00    -0.276 OA
ENDBRANCH  40  44
ENDBRANCH   1  40
BRANCH   7  46
ATOM     46  C   UNL     1      10.147   4.260   4.991  0.00  0.00    +0.041 C 
BRANCH  46  47
ATOM     47  C   UNL     1      11.393   4.940   5.672  0.00  0.00    -0.039 A 
ATOM     48  C   UNL     1      12.441   4.247   6.453  0.00  0.00    -0.015 A 
ATOM     49  C   UNL     1      13.658   4.945   6.740  0.00  0.00    -0.018 A 
ATOM     50  C   UNL     1      14.761   4.351   7.403  0.00  0.00    +0.008 A 
ATOM     51  C   UNL     1      14.685   3.069   7.893  0.00  0.00    +0.001 A 
ATOM     52  C   UNL     1      13.500   2.365   7.726  0.00  0.00    +0.001 A 
ATOM     53  C   UNL     1      13.805   6.285   6.382  0.00  0.00    +0.008 A 
ATOM     54  C   UNL     1      12.777   6.962   5.750  0.00  0.00    +0.001 A 
ATOM     55  C   UNL     1      12.414   2.929   7.004  0.00  0.00    +0.009 A 
ATOM     56  C   UNL     1      11.605   6.291   5.377  0.00  0.00    +0.004 A 
ENDBRANCH  46  47
ENDBRANCH   7  46
TORSDOF 9
