REMARK  Name = 
REMARK  12 active torsions:
REMARK  status: ('A' for Active; 'I' for Inactive)
REMARK    1  A    between atoms: C_1  and  C_2
REMARK    2  A    between atoms: C_2  and  C_3
REMARK    3  A    between atoms: CA_7  and  N_9
REMARK    4  A    between atoms: C_10  and  C_12
REMARK    5  A    between atoms: C_12  and  C_13
REMARK    6  A    between atoms: C_13  and  C_14
REMARK    7  A    between atoms: C_14  and  CA_15
REMARK    8  A    between atoms: CA_15  and  N_17
REMARK    9  A    between atoms: CA_15  and  C_18
REMARK   10  A    between atoms: C_18  and  O_19
REMARK   11  A    between atoms: CA_24  and  C_26
REMARK   12  A    between atoms: C_26  and  O_27
REMARK                            x       y       z     vdW  Elec       q    Type
REMARK                         _______ _______ _______ _____ _____    ______ ____
ROOT
ATOM      1  N   UNL     1      10.291   4.316   4.398  0.00  0.00    -0.302 N 
ATOM      2  H   UNL     1      10.295   4.458   5.402  0.00  0.00    +0.150 HD
ATOM      3  C   UNL     1      10.353   3.016   3.947  0.00  0.00    +0.214 C 
ATOM      4  O   UNL     1      10.284   2.722   2.759  0.00  0.00    -0.276 OA
ENDROOT
BRANCH   1  10
ATOM      5  C   UNL     1      10.450   9.085   0.135  0.00  0.00    +0.025 C 
ATOM      6  C   UNL     1      10.012   7.983   1.106  0.00  0.00    +0.042 C 
ATOM      7  CA  UNL     1       9.528   6.662   0.454  0.00  0.00    +0.201 C 
ATOM      8  N   UNL     1       9.809   5.575   1.411  0.00  0.00    -0.271 N 
ATOM      9  C   UNL     1      10.950   5.760   2.331  0.00  0.00    +0.165 C 
ATOM     10  CA  UNL     1       9.995   5.480   3.521  0.00  0.00    +0.190 C 
ATOM     11  C   UNL     1       8.913   5.322   2.419  0.00  0.00    +0.240 C 
ATOM     12  O   UNL     1       7.706   5.273   2.392  0.00  0.00    -0.273 OA
ATOM     13  S   UNL     1      11.455   7.514   2.170  0.00  0.00    -0.127 S 
ATOM     14  C   UNL     1       8.932   8.584   2.028  0.00  0.00    +0.025 C 
BRANCH   7  15
ATOM     15  C   UNL     1      10.171   6.328  -0.902  0.00  0.00    +0.327 C 
ATOM     16  OXT UNL     1      10.112   7.049  -1.889  0.00  0.00    -0.249 OA
BRANCH  15  17
ATOM     17  O   UNL     1      10.783   5.119  -0.941  0.00  0.00    -0.479 OA
ATOM     18  H   UNL     1      10.644   4.633  -0.100  0.00  0.00    +0.295 HD
ENDBRANCH  15  17
ENDBRANCH   7  15
ENDBRANCH   1  10
BRANCH   3  19
ATOM     19  C   UNL     1      10.546   2.009   5.069  0.00  0.00    +0.096 C 
BRANCH  19  20
ATOM     20  C   UNL     1      10.538   0.574   4.549  0.00  0.00    +0.011 C 
BRANCH  20  21
ATOM     21  C   UNL     1      10.766  -0.449   5.666  0.00  0.00    +0.030 C 
BRANCH  21  22
ATOM     22  CA  UNL     1      10.769  -1.900   5.160  0.00  0.00    +0.161 C 
BRANCH  22  23
ATOM     23  N   UNL     1       9.435  -2.292   4.622  0.00  0.00    -0.318 NA
ATOM     24  H1  UNL     1       9.210  -1.671   3.839  0.00  0.00    +0.119 HD
ATOM     25  H2  UNL     1       9.540  -3.209   4.171  0.00  0.00    +0.119 HD
ENDBRANCH  22  23
BRANCH  22  26
ATOM     26  C   UNL     1      11.097  -2.837   6.334  0.00  0.00    +0.322 C 
ATOM     27  OXT UNL     1      12.218  -3.079   6.750  0.00  0.00    -0.249 OA
BRANCH  26  28
ATOM     28  O   UNL     1       9.963  -3.344   6.886  0.00  0.00    -0.480 OA
ATOM     29  H   UNL     1       9.214  -3.002   6.336  0.00  0.00    +0.295 HD
ENDBRANCH  26  28
ENDBRANCH  22  26
ENDBRANCH  21  22
ENDBRANCH  20  21
ENDBRANCH  19  20
ENDBRANCH   3  19
TORSDOF 10
