REMARK  Name = 
REMARK  17 active torsions:
REMARK  status: ('A' for Active; 'I' for Inactive)
REMARK    1  A    between atoms: N_1  and  C_2
REMARK    2  A    between atoms: C_2  and  C_3
REMARK    3  A    between atoms: C_3  and  C_4
REMARK    4  A    between atoms: C_4  and  N_5
REMARK    5  A    between atoms: N_8  and  C_9
REMARK    6  A    between atoms: C_9  and  C_10
REMARK    7  A    between atoms: C_10  and  C_11
REMARK    8  A    between atoms: C_11  and  N_12
REMARK    9  A    between atoms: C_13  and  C_15
REMARK   10  A    between atoms: C_17  and  O_18
REMARK   11  A    between atoms: O_18  and  C_19
REMARK   12  A    between atoms: C_22  and  C_24
REMARK   13  A    between atoms: C_24  and  O_25
REMARK   14  A    between atoms: C_26  and  O_28
REMARK   15  A    between atoms: C_29  and  O_31
REMARK   16  A    between atoms: C_32  and  O_34
REMARK   17  A    between atoms: C_36  and  N_38
REMARK                            x       y       z     vdW  Elec       q    Type
REMARK                         _______ _______ _______ _____ _____    ______ ____
ROOT
ATOM      1  C   UNL     1      -4.612  -2.700 -10.531  0.00  0.00    +0.047 A 
ATOM      2  C   UNL     1      -3.802  -3.836 -10.630  0.00  0.00    +0.097 A 
ATOM      3  C   UNL     1      -4.279  -4.947 -11.327  0.00  0.00    +0.277 A 
ATOM      4  C   UNL     1      -5.551  -4.930 -11.915  0.00  0.00    +0.130 A 
ATOM      5  C   UNL     1      -6.358  -3.798 -11.798  0.00  0.00    +0.131 A 
ATOM      6  C   UNL     1      -5.881  -2.673 -11.126  0.00  0.00    +0.059 A 
ENDROOT
BRANCH   1   9
ATOM      7  N   UNL     1      -3.461  -1.766  -8.628  0.00  0.00    -0.311 N 
ATOM      8  H   UNL     1      -3.317  -2.714  -8.309  0.00  0.00    +0.149 HD
ATOM      9  C   UNL     1      -4.173  -1.508  -9.779  0.00  0.00    +0.244 C 
ATOM     10  O   UNL     1      -4.496  -0.396 -10.172  0.00  0.00    -0.270 OA
BRANCH   7  11
ATOM     11  C   UNL     1      -3.022  -0.693  -7.762  0.00  0.00    +0.106 C 
BRANCH  11  12
ATOM     12  C   UNL     1      -4.194  -0.024  -7.044  0.00  0.00    +0.034 C 
BRANCH  12  13
ATOM     13  C   UNL     1      -3.746   1.189  -6.222  0.00  0.00    +0.086 C 
BRANCH  13  17
ATOM     14  N   UNL     1      -4.297   4.883  -6.880  0.00  0.00    -0.300 NA
ATOM     15  C   UNL     1      -3.499   4.337  -5.758  0.00  0.00    +0.100 C 
ATOM     16  C   UNL     1      -2.455   3.257  -6.143  0.00  0.00    +0.100 C 
ATOM     17  N   UNL     1      -2.964   2.165  -6.998  0.00  0.00    -0.300 NA
ATOM     18  C   UNL     1      -3.727   2.752  -8.122  0.00  0.00    +0.100 C 
ATOM     19  C   UNL     1      -4.818   3.748  -7.674  0.00  0.00    +0.100 C 
BRANCH  14  20
ATOM     20  C   UNL     1      -3.519   5.840  -7.693  0.00  0.00    +0.086 C 
BRANCH  20  21
ATOM     21  C   UNL     1      -4.404   6.540  -8.735  0.00  0.00    +0.030 C 
BRANCH  21  22
ATOM     22  C   UNL     1      -3.655   7.593  -9.546  0.00  0.00    +0.079 C 
BRANCH  22  23
ATOM     23  N   UNL     1      -4.561   8.157 -10.544  0.00  0.00    -0.330 NA
ATOM     24  H   UNL     1      -5.398   8.515 -10.086  0.00  0.00    +0.118 HD
ATOM     25  H   UNL     1      -4.120   8.949 -11.007  0.00  0.00    +0.118 HD
ENDBRANCH  22  23
ENDBRANCH  21  22
ENDBRANCH  20  21
ENDBRANCH  14  20
ENDBRANCH  13  17
ENDBRANCH  12  13
ENDBRANCH  11  12
ENDBRANCH   7  11
ENDBRANCH   1   9
BRANCH   3  26
ATOM     26  N   UNL     1      -3.450  -6.152 -11.407  0.00  0.00    +0.080 N 
ATOM     27  O   UNL     1      -2.365  -6.140 -10.807  0.00  0.00    +0.041 OA
ATOM     28  O   UNL     1      -3.886  -7.114 -12.053  0.00  0.00    -0.576 OA
ENDBRANCH   3  26
BRANCH   5  29
ATOM     29  O   UNL     1      -7.588  -3.892 -12.386  0.00  0.00    -0.461 OA
BRANCH  29  30
ATOM     30  C   UNL     1      -8.642  -3.089 -11.830  0.00  0.00    +0.339 C 
ATOM     31  C   UNL     1      -9.913  -3.330 -12.677  0.00  0.00    +0.214 C 
ATOM     32  C   UNL     1     -11.109  -2.609 -12.036  0.00  0.00    +0.180 C 
ATOM     33  C   UNL     1     -11.244  -2.971 -10.553  0.00  0.00    +0.177 C 
ATOM     34  C   UNL     1      -9.917  -2.702  -9.838  0.00  0.00    +0.179 C 
ATOM     35  O   UNL     1      -8.859  -3.444 -10.457  0.00  0.00    -0.331 OA
BRANCH  33  36
ATOM     36  O   UNL     1     -12.332  -2.231  -9.991  0.00  0.00    -0.386 OA
ATOM     37  H   UNL     1     -12.062  -1.303  -9.866  0.00  0.00    +0.210 HD
ENDBRANCH  33  36
BRANCH  32  38
ATOM     38  O   UNL     1     -12.322  -2.934 -12.724  0.00  0.00    -0.386 OA
ATOM     39  H   UNL     1     -13.057  -2.724 -12.114  0.00  0.00    +0.210 HD
ENDBRANCH  32  38
BRANCH  31  40
ATOM     40  O   UNL     1      -9.700  -2.883 -14.028  0.00  0.00    -0.383 OA
ATOM     41  H   UNL     1     -10.044  -1.980 -14.126  0.00  0.00    +0.210 HD
ENDBRANCH  31  40
BRANCH  34  42
ATOM     42  C   UNL     1      -9.980  -3.120  -8.365  0.00  0.00    +0.190 C 
BRANCH  42  43
ATOM     43  O   UNL     1      -8.738  -2.812  -7.730  0.00  0.00    -0.392 OA
ATOM     44  H   UNL     1      -8.056  -3.290  -8.239  0.00  0.00    +0.210 HD
ENDBRANCH  42  43
ENDBRANCH  34  42
ENDBRANCH  29  30
ENDBRANCH   5  29
TORSDOF 17
