REMARK  Name = 
REMARK  8 active torsions:
REMARK  status: ('A' for Active; 'I' for Inactive)
REMARK    1  A    between atoms: C_1  and  O_2
REMARK    2  A    between atoms: O_2  and  C_3
REMARK    3  A    between atoms: C_6  and  C_7
REMARK    4  A    between atoms: C_7  and  N_8
REMARK    5  A    between atoms: N_8  and  S_9
REMARK    6  A    between atoms: S_9  and  C_12
REMARK    7  A    between atoms: C_15  and  S_17
REMARK    8  A    between atoms: S_17  and  N_18
REMARK                            x       y       z     vdW  Elec       q    Type
REMARK                         _______ _______ _______ _____ _____    ______ ____
ROOT
ATOM      1  S   UNL     1       6.633  -3.551   5.823  0.00  0.00    +0.065 S 
ATOM      2  O   UNL     1       7.900  -2.877   5.663  0.00  0.00    -0.153 OA
ATOM      3  O   UNL     1       6.534  -4.992   5.879  0.00  0.00    -0.153 OA
ENDROOT
BRANCH   1   4
ATOM      4  C   UNL     1       5.895  -2.988   7.346  0.00  0.00    +0.144 A 
ATOM      5  S   UNL     1       6.787  -1.882   8.297  0.00  0.00    -0.049 S 
ATOM      6  C   UNL     1       5.552  -1.786   9.476  0.00  0.00    +0.144 A 
ATOM      7  C   UNL     1       4.475  -2.588   9.151  0.00  0.00    +0.038 A 
ATOM      8  C   UNL     1       4.673  -3.280   7.923  0.00  0.00    +0.038 A 
BRANCH   6   9
ATOM      9  S   UNL     1       5.875  -0.732  10.871  0.00  0.00    +0.062 S 
ATOM     10  O   UNL     1       4.792  -0.996  11.787  0.00  0.00    -0.153 OA
ATOM     11  O   UNL     1       6.150   0.574  10.321  0.00  0.00    -0.153 OA
BRANCH   9  12
ATOM     12  N   UNL     1       7.280  -1.297  11.590  0.00  0.00    -0.203 NA
ATOM     13  H   UNL     1       7.165  -2.223  11.998  0.00  0.00    +0.144 HD
ATOM     14  H   UNL     1       8.099  -1.177  10.997  0.00  0.00    +0.144 HD
ENDBRANCH   9  12
ENDBRANCH   6   9
ENDBRANCH   1   4
BRANCH   1  15
ATOM     15  N   UNL     1       5.614  -3.040   4.578  0.00  0.00    -0.185 NA
ATOM     16  H   UNL     1       5.822  -3.568   3.729  0.00  0.00    +0.148 HD
BRANCH  15  17
ATOM     17  C   UNL     1       5.606  -1.588   4.355  0.00  0.00    +0.141 C 
BRANCH  17  21
ATOM     18  C   UNL     1       2.813  -0.183   1.381  0.00  0.00    +0.120 A 
ATOM     19  C   UNL     1       4.178   0.059   1.236  0.00  0.00    +0.046 A 
ATOM     20  C   UNL     1       5.082  -0.432   2.180  0.00  0.00    +0.008 A 
ATOM     21  C   UNL     1       4.634  -1.177   3.278  0.00  0.00    -0.032 A 
ATOM     22  C   UNL     1       3.267  -1.468   3.385  0.00  0.00    +0.008 A 
ATOM     23  C   UNL     1       2.365  -0.978   2.436  0.00  0.00    +0.046 A 
BRANCH  18  25
ATOM     24  C   UNL     1       2.158   1.543  -0.078  0.00  0.00    +0.277 C 
ATOM     25  O   UNL     1       1.847   0.295   0.538  0.00  0.00    -0.495 OA
ENDBRANCH  18  25
ENDBRANCH  17  21
ENDBRANCH  15  17
ENDBRANCH   1  15
TORSDOF 7
