REMARK  Name = 
REMARK  7 active torsions:
REMARK  status: ('A' for Active; 'I' for Inactive)
REMARK    1  A    between atoms: C_1  and  C_2
REMARK    2  A    between atoms: C_2  and  O_3
REMARK    3  A    between atoms: C_2  and  C_4
REMARK    4  A    between atoms: C_2  and  C_7
REMARK    5  A    between atoms: C_4  and  C_5
REMARK    6  A    between atoms: C_5  and  O_6
REMARK    7  A    between atoms: C_7  and  C_8
REMARK                            x       y       z     vdW  Elec       q    Type
REMARK                         _______ _______ _______ _____ _____    ______ ____
ROOT
ATOM      1  C   UNL     1       0.827   0.179  -0.019  0.00  0.00    +0.042 C 
ATOM      2  C   UNL     1       2.354   0.035  -0.100  0.00  0.00    +0.070 C 
ENDROOT
BRANCH   2   3
ATOM      3  O   UNL     1       2.597  -1.353   0.241  0.00  0.00    -0.388 OA
ATOM      4  H   UNL     1       3.549  -1.515   0.158  0.00  0.00    +0.210 HD
ENDBRANCH   2   3
BRANCH   2   5
ATOM      5  C   UNL     1       3.048   0.907   0.944  0.00  0.00    +0.086 C 
BRANCH   5   6
ATOM      6  C   UNL     1       2.940   2.433   0.838  0.00  0.00    +0.044 C 
ATOM      7  O   UNL     1       3.553   3.057   1.751  0.00  0.00    -0.550 OA
ATOM      8  O   UNL     1       2.278   2.887  -0.130  0.00  0.00    -0.550 OA
ENDBRANCH   5   6
ENDBRANCH   2   5
BRANCH   2   9
ATOM      9  C   UNL     1       2.838   0.244  -1.554  0.00  0.00    +0.062 C 
BRANCH   9  10
ATOM     10  C   UNL     1       4.354   0.136  -1.753  0.00  0.00    +0.158 C 
BRANCH  10  11
ATOM     11  O   UNL     1       4.706   0.264  -3.131  0.00  0.00    -0.395 OA
ATOM     12  H   UNL     1       3.912   0.082  -3.659  0.00  0.00    +0.209 HD
ENDBRANCH  10  11
ENDBRANCH   9  10
ENDBRANCH   2   9
TORSDOF 6
