REMARK  Name = 
REMARK  5 active torsions:
REMARK  status: ('A' for Active; 'I' for Inactive)
REMARK    1  A    between atoms: C_1  and  C_2
REMARK    2  A    between atoms: C_2  and  C_4
REMARK    3  A    between atoms: C_4  and  N_5
REMARK    4  A    between atoms: C_4  and  C_6
REMARK    5  A    between atoms: C_6  and  C_7
REMARK                            x       y       z     vdW  Elec       q    Type
REMARK                         _______ _______ _______ _____ _____    ______ ____
ROOT
ATOM      1  C   UNL     1       3.213   0.504  -1.093  0.00  0.00    +0.122 C 
ENDROOT
BRANCH   1   3
ATOM      2  C   UNL     1       2.152   0.355  -3.453  0.00  0.00    +0.087 C 
ATOM      3  C   UNL     1       2.730  -0.367  -2.263  0.00  0.00    +0.147 C 
ATOM      4  O   UNL     1       2.755  -1.599  -2.207  0.00  0.00    -0.296 OA
ENDBRANCH   1   3
BRANCH   1   5
ATOM      5  N   UNL     1       2.546   0.038   0.144  0.00  0.00    -0.321 NA
ATOM      6  H   UNL     1       1.535   0.091   0.015  0.00  0.00    +0.119 HD
ATOM      7  H   UNL     1       2.739  -0.965   0.235  0.00  0.00    +0.119 HD
ENDBRANCH   1   5
BRANCH   1   8
ATOM      8  C   UNL     1       4.742   0.417  -0.946  0.00  0.00    +0.061 C 
BRANCH   8   9
ATOM      9  C   UNL     1       5.475   0.915  -2.172  0.00  0.00    -0.045 A 
ATOM     10  C   UNL     1       6.264   0.036  -2.927  0.00  0.00    +0.004 A 
ATOM     11  C   UNL     1       6.877   0.470  -4.103  0.00  0.00    +0.000 A 
ATOM     12  C   UNL     1       6.707   1.784  -4.534  0.00  0.00    +0.000 A 
ATOM     13  C   UNL     1       5.947   2.673  -3.777  0.00  0.00    +0.000 A 
ATOM     14  C   UNL     1       5.345   2.245  -2.593  0.00  0.00    +0.004 A 
ENDBRANCH   8   9
ENDBRANCH   1   8
TORSDOF 4
