REMARK  Name = 
REMARK  6 active torsions:
REMARK  status: ('A' for Active; 'I' for Inactive)
REMARK    1  A    between atoms: C_2  and  C_3
REMARK    2  A    between atoms: C_2  and  C_4
REMARK    3  A    between atoms: C_2  and  C_7
REMARK    4  A    between atoms: C_4  and  O_5
REMARK    5  A    between atoms: C_10  and  C_13
REMARK    6  A    between atoms: C_13  and  C_15
REMARK                            x       y       z     vdW  Elec       q    Type
REMARK                         _______ _______ _______ _____ _____    ______ ____
ROOT
ATOM      1  C   UNL     1       2.515   1.411   0.361  0.00  0.00    -0.034 A 
ATOM      2  C   UNL     1       3.790   1.619   0.906  0.00  0.00    +0.005 A 
ATOM      3  C   UNL     1       4.280   2.914   1.096  0.00  0.00    +0.012 A 
ATOM      4  C   UNL     1       3.526   4.025   0.699  0.00  0.00    +0.023 A 
ATOM      5  C   UNL     1       2.221   3.823   0.233  0.00  0.00    +0.012 A 
ATOM      6  C   UNL     1       1.717   2.528   0.069  0.00  0.00    +0.005 A 
ENDROOT
BRANCH   1   7
ATOM      7  C   UNL     1       2.046  -0.007   0.060  0.00  0.00    +0.124 C 
ATOM      8  C   UNL     1       1.807  -0.163  -1.446  0.00  0.00    +0.024 C 
BRANCH   7   9
ATOM      9  C   UNL     1       0.820  -0.469   0.843  0.00  0.00    +0.312 C 
ATOM     10  O   UNL     1       0.046  -1.329   0.442  0.00  0.00    -0.250 OA
BRANCH   9  11
ATOM     11  O   UNL     1       0.675   0.077   2.071  0.00  0.00    -0.480 OA
ATOM     12  H   UNL     1       1.349   0.744   2.305  0.00  0.00    +0.295 HD
ENDBRANCH   9  11
ENDBRANCH   7   9
ENDBRANCH   1   7
BRANCH   4  13
ATOM     13  C   UNL     1       4.053   5.424   0.779  0.00  0.00    +0.200 C 
ATOM     14  O   UNL     1       3.229   6.313   1.004  0.00  0.00    -0.286 OA
BRANCH  13  15
ATOM     15  C   UNL     1       5.477   5.713   0.642  0.00  0.00    +0.060 A 
ATOM     16  S   UNL     1       6.542   4.766  -0.319  0.00  0.00    -0.079 S 
ATOM     17  C   UNL     1       7.890   5.646   0.200  0.00  0.00    +0.051 A 
ATOM     18  I   UNL     1       9.817   5.112  -0.262  0.00  0.00    -0.036 I 
ATOM     19  C   UNL     1       7.558   6.745   0.951  0.00  0.00    +0.023 A 
ATOM     20  C   UNL     1       6.149   6.803   1.175  0.00  0.00    +0.020 A 
ENDBRANCH  13  15
ENDBRANCH   4  13
TORSDOF 5
