REMARK  Name = 
REMARK  3 active torsions:
REMARK  status: ('A' for Active; 'I' for Inactive)
REMARK    1  A    between atoms: N_1  and  C_2
REMARK    2  A    between atoms: C_7  and  C_8
REMARK    3  A    between atoms: C_8  and  O_9
REMARK                            x       y       z     vdW  Elec       q    Type
REMARK                         _______ _______ _______ _____ _____    ______ ____
ROOT
ATOM      1  C   UNL     1       2.321   0.043  -0.151  0.00  0.00    +0.030 A 
ATOM      2  C   UNL     1       3.010  -1.185  -0.192  0.00  0.00    -0.002 A 
ATOM      3  C   UNL     1       4.420  -1.164  -0.282  0.00  0.00    +0.008 A 
ATOM      4  C   UNL     1       5.129   0.034  -0.271  0.00  0.00    +0.000 A 
ATOM      5  C   UNL     1       4.446   1.237  -0.146  0.00  0.00    +0.002 A 
ATOM      6  C   UNL     1       3.054   1.236  -0.062  0.00  0.00    +0.023 A 
ENDROOT
BRANCH   1   7
ATOM      7  N   UNL     1       0.923   0.102   0.015  0.00  0.00    -0.358 N 
ATOM      8  H   UNL     1       0.463  -0.651  -0.508  0.00  0.00    +0.142 HD
ATOM      9  H   UNL     1       0.532   1.004  -0.243  0.00  0.00    +0.142 HD
ENDBRANCH   1   7
BRANCH   2  10
ATOM     10  C   UNL     1       2.359  -2.551  -0.173  0.00  0.00    +0.192 C 
BRANCH  10  11
ATOM     11  O   UNL     1       0.958  -2.540   0.085  0.00  0.00    -0.390 OA
ATOM     12  H   UNL     1       0.848  -1.938   0.847  0.00  0.00    +0.210 HD
ENDBRANCH  10  11
ENDBRANCH   2  10
TORSDOF 3
