REMARK  Name = 
REMARK  11 active torsions:
REMARK  status: ('A' for Active; 'I' for Inactive)
REMARK    1  A    between atoms: N_1  and  C_2
REMARK    2  A    between atoms: C_2  and  C_3
REMARK    3  A    between atoms: C_3  and  C_4
REMARK    4  A    between atoms: C_4  and  CA_5
REMARK    5  A    between atoms: CA_5  and  N_7
REMARK    6  A    between atoms: CA_5  and  C_15
REMARK    7  A    between atoms: C_8  and  C_10
REMARK    8  A    between atoms: C_10  and  C_11
REMARK    9  A    between atoms: C_11  and  C_12
REMARK   10  A    between atoms: C_12  and  O_13
REMARK   11  A    between atoms: C_15  and  O_16
REMARK                            x       y       z     vdW  Elec       q    Type
REMARK                         _______ _______ _______ _____ _____    ______ ____
ROOT
ATOM      1  CA  UNL     1       4.965   2.320   1.586  0.00  0.00    +0.182 C 
ENDROOT
BRANCH   1   2
ATOM      2  N   UNL     1       4.406   2.221   2.942  0.00  0.00    -0.302 N 
ATOM      3  H   UNL     1       4.423   1.306   3.380  0.00  0.00    +0.150 HD
ATOM      4  C   UNL     1       4.180   3.318   3.718  0.00  0.00    +0.214 C 
ATOM      5  O   UNL     1       4.530   4.449   3.382  0.00  0.00    -0.276 OA
BRANCH   4   6
ATOM      6  C   UNL     1       3.608   3.064   5.088  0.00  0.00    +0.107 C 
BRANCH   6   7
ATOM      7  C   UNL     1       4.725   2.850   6.091  0.00  0.00    +0.129 C 
BRANCH   7   8
ATOM      8  C   UNL     1       5.629   4.017   6.423  0.00  0.00    +0.305 C 
ATOM      9  O   UNL     1       6.491   3.918   7.291  0.00  0.00    -0.251 OA
BRANCH   8  10
ATOM     10  O   UNL     1       5.467   5.165   5.744  0.00  0.00    -0.481 OA
ATOM     11  H   UNL     1       4.872   5.188   4.964  0.00  0.00    +0.295 HD
ENDBRANCH   8  10
ENDBRANCH   7   8
ENDBRANCH   6   7
ENDBRANCH   4   6
ENDBRANCH   1   2
BRANCH   1  12
ATOM     12  C   UNL     1       6.502   2.380   1.655  0.00  0.00    +0.325 C 
ATOM     13  OXT UNL     1       7.260   1.601   1.096  0.00  0.00    -0.249 OA
BRANCH  12  14
ATOM     14  O   UNL     1       6.959   3.426   2.391  0.00  0.00    -0.479 OA
ATOM     15  H   UNL     1       6.239   4.023   2.697  0.00  0.00    +0.295 HD
ENDBRANCH  12  14
ENDBRANCH   1  12
BRANCH   1  16
ATOM     16  C   UNL     1       4.484   1.143   0.729  0.00  0.00    +0.035 C 
BRANCH  16  17
ATOM     17  C   UNL     1       2.957   1.079   0.566  0.00  0.00    +0.017 C 
BRANCH  17  18
ATOM     18  C   UNL     1       2.324   2.309  -0.089  0.00  0.00    +0.078 C 
BRANCH  18  19
ATOM     19  N   UNL     1       2.887   2.550  -1.409  0.00  0.00    -0.330 NA
ATOM     20  H   UNL     1       2.729   1.737  -2.007  0.00  0.00    +0.118 HD
ATOM     21  H   UNL     1       2.393   3.323  -1.856  0.00  0.00    +0.118 HD
ENDBRANCH  18  19
ENDBRANCH  17  18
ENDBRANCH  16  17
ENDBRANCH   1  16
TORSDOF 11
