REMARK  Name = 
REMARK  9 active torsions:
REMARK  status: ('A' for Active; 'I' for Inactive)
REMARK    1  A    between atoms: N_1  and  CA_2
REMARK    2  A    between atoms: CA_2  and  C_4
REMARK    3  A    between atoms: CA_2  and  C_15
REMARK    4  A    between atoms: C_4  and  C_5
REMARK    5  A    between atoms: C_5  and  C_6
REMARK    6  A    between atoms: C_6  and  N_7
REMARK    7  A    between atoms: N_10  and  C_12
REMARK    8  A    between atoms: C_12  and  C_13
REMARK    9  A    between atoms: C_15  and  O_16
REMARK                            x       y       z     vdW  Elec       q    Type
REMARK                         _______ _______ _______ _____ _____    ______ ____
ROOT
ATOM      1  C   UNL     1       3.093   2.026   3.154  0.00  0.00    +0.196 C 
ENDROOT
BRANCH   1   2
ATOM      2  N   UNL     1       2.568   3.306   3.661  0.00  0.00    -0.279 N 
ATOM      3  H   UNL     1       3.173   4.113   3.583  0.00  0.00    +0.258 HD
ATOM      4  C   UNL     1       1.405   3.474   4.345  0.00  0.00    +0.344 C 
ATOM      5  N   UNL     1       1.080   4.724   4.741  0.00  0.00    -0.275 N 
ATOM      6  H   UNL     1       1.674   5.487   4.447  0.00  0.00    +0.258 HD
ATOM      7  N   UNL     1       0.614   2.427   4.613  0.00  0.00    -0.292 N 
ATOM      8  H   UNL     1      -0.206   2.528   5.195  0.00  0.00    +0.255 HD
ATOM      9  H   UNL     1       0.809   1.503   4.257  0.00  0.00    +0.255 HD
BRANCH   5  10
ATOM     10  C   UNL     1      -0.141   5.090   5.456  0.00  0.00    +0.223 C 
BRANCH  10  11
ATOM     11  C   UNL     1       0.139   4.942   6.910  0.00  0.00    +0.002 C 
ATOM     12  C   UNL     1      -0.482   4.082   7.728  0.00  0.00    +0.007 C 
ENDBRANCH  10  11
ENDBRANCH   5  10
ENDBRANCH   1   2
BRANCH   1  13
ATOM     13  C   UNL     1       2.526   1.690   1.779  0.00  0.00    +0.039 C 
BRANCH  13  14
ATOM     14  C   UNL     1       2.925   2.738   0.729  0.00  0.00    +0.033 C 
BRANCH  14  15
ATOM     15  CA  UNL     1       2.391   2.456  -0.684  0.00  0.00    +0.161 C 
BRANCH  15  16
ATOM     16  N   UNL     1       2.928   3.488  -1.623  0.00  0.00    -0.318 NA
ATOM     17  H1  UNL     1       3.021   4.385  -1.137  0.00  0.00    +0.119 HD
ATOM     18  H2  UNL     1       3.890   3.233  -1.868  0.00  0.00    +0.119 HD
ENDBRANCH  15  16
BRANCH  15  19
ATOM     19  C   UNL     1       0.849   2.519  -0.743  0.00  0.00    +0.322 C 
ATOM     20  OXT UNL     1       0.089   1.896  -0.018  0.00  0.00    -0.249 OA
BRANCH  19  21
ATOM     21  O   UNL     1       0.422   3.388  -1.692  0.00  0.00    -0.480 OA
ATOM     22  H   UNL     1       1.236   3.706  -2.160  0.00  0.00    +0.295 HD
ENDBRANCH  19  21
ENDBRANCH  15  19
ENDBRANCH  14  15
ENDBRANCH  13  14
ENDBRANCH   1  13
TORSDOF 9
