REMARK  Name = 
REMARK  16 active torsions:
REMARK  status: ('A' for Active; 'I' for Inactive)
REMARK    1  A    between atoms: C_1  and  C_2
REMARK    2  A    between atoms: C_2  and  C_4
REMARK    3  A    between atoms: C_2  and  O_21
REMARK    4  A    between atoms: C_4  and  N_5
REMARK    5  A    between atoms: N_5  and  C_6
REMARK    6  A    between atoms: C_6  and  C_7
REMARK    7  A    between atoms: C_8  and  O_9
REMARK    8  A    between atoms: C_10  and  C_11
REMARK    9  A    between atoms: C_14  and  C_15
REMARK   10  A    between atoms: C_15  and  O_16
REMARK   11  A    between atoms: O_16  and  P_17
REMARK   12  A    between atoms: P_17  and  O_18
REMARK   13  A    between atoms: P_17  and  O_19
REMARK   14  A    between atoms: O_21  and  P_22
REMARK   15  A    between atoms: P_22  and  O_23
REMARK   16  A    between atoms: P_22  and  O_24
REMARK                            x       y       z     vdW  Elec       q    Type
REMARK                         _______ _______ _______ _____ _____    ______ ____
ROOT
ATOM      1  C   UNL     1       2.697  -4.962   0.412  0.00  0.00    +0.016 A 
ATOM      2  C   UNL     1       1.930  -4.706   1.572  0.00  0.00    +0.005 A 
ATOM      3  C   UNL     1       1.557  -5.787   2.367  0.00  0.00    +0.117 A 
ATOM      4  N   UNL     1       1.903  -7.067   2.129  0.00  0.00    -0.256 NA
ATOM      5  C   UNL     1       2.674  -7.311   1.043  0.00  0.00    +0.080 A 
ATOM      6  C   UNL     1       3.091  -8.740   0.865  0.00  0.00    +0.069 C 
ATOM      7  C   UNL     1       3.093  -6.295   0.181  0.00  0.00    +0.142 A 
ENDROOT
BRANCH   7   8
ATOM      8  O   UNL     1       3.911  -6.616  -0.869  0.00  0.00    -0.505 OA
ATOM      9  H   UNL     1       4.087  -5.785  -1.361  0.00  0.00    +0.292 HD
ENDBRANCH   7   8
BRANCH   1  10
ATOM     10  C   UNL     1       3.157  -3.805  -0.451  0.00  0.00    +0.120 C 
BRANCH  10  11
ATOM     11  N   UNL     1       3.537  -4.163  -1.835  0.00  0.00    -0.309 NA
ATOM     12  H   UNL     1       2.688  -4.574  -2.252  0.00  0.00    +0.122 HD
BRANCH  11  13
ATOM     13  C   UNL     1       3.831  -2.944  -2.621  0.00  0.00    +0.113 C 
BRANCH  13  15
ATOM     14  C   UNL     1       5.329  -1.476  -1.056  0.00  0.00    +0.040 C 
ATOM     15  C   UNL     1       5.177  -2.198  -2.381  0.00  0.00    +0.141 C 
BRANCH  15  16
ATOM     16  O   UNL     1       6.308  -3.072  -2.535  0.00  0.00    -0.282 OA
BRANCH  16  17
ATOM     17  P   UNL     1       6.372  -3.678  -4.155  0.00  0.00    +0.473 P 
ATOM     18  O   UNL     1       6.429  -4.220  -5.604  0.00  0.00    -0.228 OA
BRANCH  17  19
ATOM     19  O   UNL     1       7.781  -4.352  -3.672  0.00  0.00    -0.303 OA
ATOM     20  H   UNL     1       7.631  -4.930  -2.903  0.00  0.00    +0.222 HD
ENDBRANCH  17  19
BRANCH  17  21
ATOM     21  O   UNL     1       7.025  -2.241  -4.582  0.00  0.00    -0.303 OA
ATOM     22  H   UNL     1       7.681  -2.468  -5.272  0.00  0.00    +0.222 HD
ENDBRANCH  17  21
ENDBRANCH  16  17
ENDBRANCH  15  16
ENDBRANCH  13  15
ENDBRANCH  11  13
ENDBRANCH  10  11
ENDBRANCH   1  10
BRANCH   2  23
ATOM     23  C   UNL     1       1.533  -3.323   2.026  0.00  0.00    +0.209 C 
BRANCH  23  24
ATOM     24  O   UNL     1       0.697  -2.735   1.053  0.00  0.00    -0.282 OA
BRANCH  24  25
ATOM     25  P   UNL     1      -0.285  -1.575   1.533  0.00  0.00    +0.473 P 
ATOM     26  O   UNL     1       0.365  -0.421   2.215  0.00  0.00    -0.228 OA
BRANCH  25  27
ATOM     27  O   UNL     1      -1.105  -1.189   0.222  0.00  0.00    -0.303 OA
ATOM     28  H   UNL     1      -0.572  -0.664  -0.401  0.00  0.00    +0.222 HD
ENDBRANCH  25  27
BRANCH  25  29
ATOM     29  O   UNL     1      -1.356  -2.333   2.443  0.00  0.00    -0.303 OA
ATOM     30  H   UNL     1      -1.450  -1.901   3.306  0.00  0.00    +0.222 HD
ENDBRANCH  25  29
ENDBRANCH  24  25
ENDBRANCH  23  24
ENDBRANCH   2  23
TORSDOF 14
