REMARK  Name = 
REMARK  4 active torsions:
REMARK  status: ('A' for Active; 'I' for Inactive)
REMARK    1  A    between atoms: C_2  and  C_17
REMARK    2  A    between atoms: C_4  and  C_10
REMARK    3  A    between atoms: C_7  and  C_8
REMARK    4  A    between atoms: C_21  and  O_22
REMARK                            x       y       z     vdW  Elec       q    Type
REMARK                         _______ _______ _______ _____ _____    ______ ____
ROOT
ATOM      1  C   UNL     1       2.221   0.055  -0.036  0.00  0.00    +0.137 C 
ATOM      2  N   UNL     1       2.809   1.089  -0.891  0.00  0.00    -0.185 N 
ATOM      3  C   UNL     1       2.582   2.446  -0.694  0.00  0.00    +0.232 C 
ATOM      4  O   UNL     1       2.167   2.921   0.362  0.00  0.00    -0.274 OA
ATOM      5  C   UNL     1       2.869   3.340  -1.880  0.00  0.00    +0.111 C 
ATOM      6  N   UNL     1       3.112   0.607  -2.145  0.00  0.00    -0.181 NA
ATOM      7  C   UNL     1       2.956  -0.684  -2.119  0.00  0.00    +0.070 C 
ATOM      8  C   UNL     1       2.592  -1.234  -0.766  0.00  0.00    +0.087 C 
ENDROOT
BRANCH   7   9
ATOM      9  C   UNL     1       3.088  -1.519  -3.342  0.00  0.00    +0.016 A 
ATOM     10  C   UNL     1       2.827  -0.864  -4.562  0.00  0.00    +0.011 A 
ATOM     11  C   UNL     1       2.908  -1.544  -5.780  0.00  0.00    +0.001 A 
ATOM     12  C   UNL     1       3.257  -2.889  -5.801  0.00  0.00    +0.001 A 
ATOM     13  C   UNL     1       3.523  -3.550  -4.602  0.00  0.00    +0.020 A 
ATOM     14  C   UNL     1       3.443  -2.874  -3.373  0.00  0.00    +0.050 A 
ATOM     15 CL   UNL     1       3.855  -3.807  -1.983  0.00  0.00    -0.083 Cl
ENDBRANCH   7   9
BRANCH   1  16
ATOM     16  C   UNL     1       2.640  -0.018   1.417  0.00  0.00    -0.021 A 
ATOM     17  C   UNL     1       1.741  -0.572   2.347  0.00  0.00    +0.051 A 
ATOM     18  C   UNL     1       2.111  -0.749   3.677  0.00  0.00    +0.117 A 
ATOM     19  C   UNL     1       3.374  -0.377   4.117  0.00  0.00    +0.045 A 
ATOM     20  C   UNL     1       4.276   0.179   3.208  0.00  0.00    +0.004 A 
ATOM     21  C   UNL     1       3.915   0.352   1.866  0.00  0.00    +0.006 A 
BRANCH  18  22
ATOM     22  O   UNL     1       1.198  -1.311   4.520  0.00  0.00    -0.507 OA
ATOM     23  H   UNL     1       1.589  -1.364   5.407  0.00  0.00    +0.292 HD
ENDBRANCH  18  22
ENDBRANCH   1  16
TORSDOF 3
