REMARK  Name = 
REMARK  4 active torsions:
REMARK  status: ('A' for Active; 'I' for Inactive)
REMARK    1  A    between atoms: O_1  and  C_2
REMARK    2  A    between atoms: C_6  and  C_19
REMARK    3  A    between atoms: N_8  and  C_13
REMARK    4  A    between atoms: C_22  and  N_25
REMARK                            x       y       z     vdW  Elec       q    Type
REMARK                         _______ _______ _______ _____ _____    ______ ____
ROOT
ATOM      1  C   UNL     1       2.361   0.137   0.184  0.00  0.00    +0.117 A 
ATOM      2  C   UNL     1       3.058   1.332   0.036  0.00  0.00    +0.049 A 
ATOM      3  C   UNL     1       4.462   1.332  -0.014  0.00  0.00    -0.037 A 
ATOM      4  C   UNL     1       5.167   0.113   0.056  0.00  0.00    -0.019 A 
ATOM      5  C   UNL     1       6.708   0.050  -0.090  0.00  0.00    +0.134 C 
ATOM      6  N   UNL     1       7.274   1.371  -0.514  0.00  0.00    -0.318 N 
ATOM      7  C   UNL     1       6.667   2.494   0.213  0.00  0.00    +0.111 C 
ATOM      8  C   UNL     1       4.432  -1.078   0.267  0.00  0.00    +0.009 A 
ATOM      9  C   UNL     1       5.201   2.633  -0.195  0.00  0.00    +0.054 C 
ATOM     10  C   UNL     1       3.036  -1.067   0.309  0.00  0.00    +0.046 A 
ENDROOT
BRANCH   5  11
ATOM     11  C   UNL     1       7.114  -1.146  -0.942  0.00  0.00    -0.023 A 
ATOM     12  C   UNL     1       7.966  -2.124  -0.417  0.00  0.00    +0.007 A 
ATOM     13  C   UNL     1       8.415  -3.179  -1.218  0.00  0.00    +0.023 A 
ATOM     14  C   UNL     1       8.002  -3.339  -2.552  0.00  0.00    +0.030 A 
ATOM     15  C   UNL     1       7.097  -2.378  -3.034  0.00  0.00    +0.023 A 
ATOM     16  C   UNL     1       6.664  -1.299  -2.256  0.00  0.00    +0.007 A 
BRANCH  14  17
ATOM     17  N   UNL     1       8.528  -4.335  -3.362  0.00  0.00    -0.327 N 
ATOM     18  C   UNL     1       8.983  -5.616  -2.799  0.00  0.00    +0.124 C 
ATOM     19  C   UNL     1      10.253  -6.049  -3.561  0.00  0.00    +0.074 C 
ATOM     20  N   UNL     1       9.959  -6.325  -4.987  0.00  0.00    -0.296 NA
ATOM     21  C   UNL     1      11.209  -6.601  -5.712  0.00  0.00    +0.085 C 
ATOM     22  C   UNL     1      11.900  -7.840  -5.144  0.00  0.00    +0.015 C 
ATOM     23  C   UNL     1      12.140  -7.718  -3.642  0.00  0.00    +0.003 C 
ATOM     24  C   UNL     1       9.237  -5.200  -5.622  0.00  0.00    +0.103 C 
ATOM     25  C   UNL     1      10.864  -7.301  -2.917  0.00  0.00    +0.020 C 
ATOM     26  C   UNL     1       8.168  -4.440  -4.787  0.00  0.00    +0.120 C 
ENDBRANCH  14  17
ENDBRANCH   5  11
BRANCH   6  27
ATOM     27  C   UNL     1       8.208   1.623  -1.509  0.00  0.00    +0.030 A 
ATOM     28  C   UNL     1       9.238   0.732  -1.844  0.00  0.00    +0.023 A 
ATOM     29  C   UNL     1      10.104   0.931  -2.930  0.00  0.00    +0.002 A 
ATOM     30  C   UNL     1      10.018   2.092  -3.681  0.00  0.00    +0.000 A 
ATOM     31  C   UNL     1       9.077   3.048  -3.329  0.00  0.00    +0.002 A 
ATOM     32  C   UNL     1       8.187   2.809  -2.268  0.00  0.00    +0.023 A 
ENDBRANCH   6  27
BRANCH   1  33
ATOM     33  O   UNL     1       0.998   0.187   0.200  0.00  0.00    -0.507 OA
ATOM     34  H   UNL     1       0.659  -0.723   0.242  0.00  0.00    +0.292 HD
ENDBRANCH   1  33
TORSDOF 4
