REMARK  Name = 
REMARK  17 active torsions:
REMARK  status: ('A' for Active; 'I' for Inactive)
REMARK    1  A    between atoms: N_1  and  C_2
REMARK    2  A    between atoms: C_2  and  C_4
REMARK    3  A    between atoms: N_8  and  C_10
REMARK    4  A    between atoms: C_13  and  C_15
REMARK    5  A    between atoms: C_15  and  O_16
REMARK    6  A    between atoms: O_16  and  P_17
REMARK    7  A    between atoms: P_17  and  O_20
REMARK    8  A    between atoms: O_20  and  P_21
REMARK    9  A    between atoms: P_21  and  O_22
REMARK   10  A    between atoms: P_21  and  O_24
REMARK   11  A    between atoms: O_24  and  C_25
REMARK   12  A    between atoms: C_25  and  C_26
REMARK   13  A    between atoms: C_29  and  N_37
REMARK   14  A    between atoms: C_31  and  O_33
REMARK   15  A    between atoms: C_34  and  O_36
REMARK   16  A    between atoms: C_47  and  O_49
REMARK   17  A    between atoms: C_50  and  O_52
REMARK                            x       y       z     vdW  Elec       q    Type
REMARK                         _______ _______ _______ _____ _____    ______ ____
ROOT
ATOM      1  P   UNL     1       9.776   0.889  17.391  0.00  0.00    +0.480 P 
ATOM      2  O   UNL     1       9.043   1.973  16.667  0.00  0.00    -0.227 OA
ENDROOT
BRANCH   1   3
ATOM      3  O   UNL     1       9.079  -0.558  17.300  0.00  0.00    -0.302 OA
ATOM      4  H   UNL     1       8.257  -0.583  17.832  0.00  0.00    +0.222 HD
ENDBRANCH   1   3
BRANCH   1   5
ATOM      5  O   UNL     1      11.212   0.565  16.702  0.00  0.00    -0.284 OA
BRANCH   5   6
ATOM      6  C   UNL     1      11.969   1.623  16.118  0.00  0.00    +0.206 C 
BRANCH   6   7
ATOM      7  C   UNL     1      12.138   1.539  14.568  0.00  0.00    +0.178 C 
ATOM      8  C   UNL     1      13.329   2.404  14.110  0.00  0.00    +0.178 C 
ATOM      9  C   UNL     1      14.518   1.434  14.063  0.00  0.00    +0.195 C 
ATOM     10  C   UNL     1      13.890   0.053  14.299  0.00  0.00    +0.253 C 
ATOM     11  O   UNL     1      12.475   0.213  14.097  0.00  0.00    -0.346 OA
BRANCH  10  12
ATOM     12  N   UNL     1      14.412  -1.028  13.467  0.00  0.00    -0.286 N 
ATOM     13  C   UNL     1      15.742  -1.315  13.285  0.00  0.00    +0.167 A 
ATOM     14  N   UNL     1      16.805  -0.550  13.594  0.00  0.00    -0.216 NA
ATOM     15  C   UNL     1      17.954  -1.193  13.299  0.00  0.00    +0.225 A 
ATOM     16  N   UNL     1      18.119  -2.448  12.822  0.00  0.00    -0.219 NA
ATOM     17  C   UNL     1      17.018  -3.193  12.577  0.00  0.00    +0.147 A 
ATOM     18  N   UNL     1      17.196  -4.507  12.172  0.00  0.00    -0.341 N 
ATOM     19  H   UNL     1      16.387  -4.927  11.730  0.00  0.00    +0.144 HD
ATOM     20  H   UNL     1      18.116  -4.705  11.804  0.00  0.00    +0.144 HD
ATOM     21  C   UNL     1      15.761  -2.601  12.764  0.00  0.00    +0.147 A 
ATOM     22  N   UNL     1      14.469  -3.055  12.538  0.00  0.00    -0.231 NA
ATOM     23  C   UNL     1      13.694  -2.085  12.987  0.00  0.00    +0.203 A 
ENDBRANCH  10  12
BRANCH   9  24
ATOM     24  O   UNL     1      15.462   1.737  15.097  0.00  0.00    -0.385 OA
ATOM     25  H   UNL     1      16.229   1.149  14.938  0.00  0.00    +0.210 HD
ENDBRANCH   9  24
BRANCH   8  26
ATOM     26  O   UNL     1      13.111   2.951  12.801  0.00  0.00    -0.386 OA
ATOM     27  H   UNL     1      12.918   2.226  12.181  0.00  0.00    +0.210 HD
ENDBRANCH   8  26
ENDBRANCH   6   7
ENDBRANCH   5   6
ENDBRANCH   1   5
BRANCH   1  28
ATOM     28  O   UNL     1      10.070   1.080  18.965  0.00  0.00    -0.229 OA
BRANCH  28  29
ATOM     29  P   UNL     1       8.801   1.045  19.970  0.00  0.00    +0.222 P 
ATOM     30  O   UNL     1       7.796   2.073  19.542  0.00  0.00    -0.437 OA
ATOM     31  O   UNL     1       8.374  -0.386  20.164  0.00  0.00    -0.517 OA
BRANCH  29  32
ATOM     32  O   UNL     1       9.426   1.558  21.402  0.00  0.00    -0.324 OA
BRANCH  32  33
ATOM     33  C   UNL     1       8.402   2.058  22.269  0.00  0.00    +0.202 C 
BRANCH  33  37
ATOM     34  C   UNL     1      10.880   3.298  24.579  0.00  0.00    +0.439 C 
ATOM     35  C   UNL     1      10.777   1.851  25.068  0.00  0.00    +0.244 C 
ATOM     36  C   UNL     1       9.474   1.319  24.485  0.00  0.00    +0.183 C 
ATOM     37  C   UNL     1       8.932   2.464  23.638  0.00  0.00    +0.182 C 
ATOM     38  O   UNL     1       9.968   3.452  23.497  0.00  0.00    -0.309 OA
BRANCH  34  41
ATOM     39  C   UNL     1      11.148   5.267  27.789  0.00  0.00    +0.067 A 
ATOM     40  C   UNL     1      11.382   4.336  26.768  0.00  0.00    +0.322 A 
ATOM     41  N   UNL     1      10.592   4.299  25.661  0.00  0.00    -0.173 N 
ATOM     42  C   UNL     1       9.602   5.211  25.503  0.00  0.00    +0.311 A 
ATOM     43  C   UNL     1       9.331   6.153  26.486  0.00  0.00    +0.071 A 
ATOM     44  C   UNL     1      10.099   6.175  27.642  0.00  0.00    +0.022 A 
BRANCH  39  45
ATOM     45  C   UNL     1      11.975   5.275  29.026  0.00  0.00    +0.083 C 
ATOM     46  S   UNL     1      12.704   3.928  29.689  0.00  0.00    -0.035 S 
BRANCH  45  47
ATOM     47  N   UNL     1      12.137   6.478  29.665  0.00  0.00    -0.352 N 
ATOM     48  H   UNL     1      11.807   7.374  29.329  0.00  0.00    +0.143 HD
ATOM     49  H   UNL     1      12.690   6.501  30.518  0.00  0.00    +0.143 HD
ENDBRANCH  45  47
ENDBRANCH  39  45
ENDBRANCH  34  41
BRANCH  36  50
ATOM     50  O   UNL     1       8.573   1.070  25.571  0.00  0.00    -0.386 OA
ATOM     51  H   UNL     1       7.882   0.459  25.242  0.00  0.00    +0.210 HD
ENDBRANCH  36  50
BRANCH  35  52
ATOM     52  O   UNL     1      11.912   1.099  24.615  0.00  0.00    -0.380 OA
ATOM     53  H   UNL     1      11.759   0.798  23.695  0.00  0.00    +0.210 HD
ENDBRANCH  35  52
ENDBRANCH  33  37
ENDBRANCH  32  33
ENDBRANCH  29  32
ENDBRANCH  28  29
ENDBRANCH   1  28
TORSDOF 17
