REMARK  Name = 
REMARK  6 active torsions:
REMARK  status: ('A' for Active; 'I' for Inactive)
REMARK    1  A    between atoms: C_1  and  C_2
REMARK    2  A    between atoms: C_2  and  C_3
REMARK    3  A    between atoms: C_3  and  CA_4
REMARK    4  A    between atoms: CA_4  and  N_6
REMARK    5  A    between atoms: CA_4  and  C_7
REMARK    6  A    between atoms: C_7  and  O_8
REMARK                            x       y       z     vdW  Elec       q    Type
REMARK                         _______ _______ _______ _____ _____    ______ ____
ROOT
ATOM      1  CA  UNL     1       4.623   1.069   0.997  0.00  0.00    +0.161 C 
ENDROOT
BRANCH   1   2
ATOM      2  N   UNL     1       3.188   1.198   1.394  0.00  0.00    -0.318 NA
ATOM      3  H1  UNL     1       3.097   0.881   2.363  0.00  0.00    +0.119 HD
ATOM      4  H2  UNL     1       2.965   2.200   1.435  0.00  0.00    +0.119 HD
ENDBRANCH   1   2
BRANCH   1   5
ATOM      5  C   UNL     1       4.738   1.481  -0.481  0.00  0.00    +0.322 C 
ATOM      6  OXT UNL     1       5.752   1.887  -1.026  0.00  0.00    -0.249 OA
BRANCH   5   7
ATOM      7  O   UNL     1       3.551   1.321  -1.127  0.00  0.00    -0.480 OA
ATOM      8  H   UNL     1       2.907   1.020  -0.439  0.00  0.00    +0.295 HD
ENDBRANCH   5   7
ENDBRANCH   1   5
BRANCH   1   9
ATOM      9  C   UNL     1       5.067  -0.384   1.208  0.00  0.00    +0.029 C 
BRANCH   9  11
ATOM     10  C   UNL     1       6.939  -2.073   1.091  0.00  0.00    +0.004 C 
ATOM     11  C   UNL     1       6.526  -0.635   0.817  0.00  0.00    -0.001 C 
ENDBRANCH   9  11
ENDBRANCH   1   9
TORSDOF 5
