REMARK  Name = 
REMARK  17 active torsions:
REMARK  status: ('A' for Active; 'I' for Inactive)
REMARK    1  A    between atoms: C_1  and  C_2
REMARK    2  A    between atoms: C_2  and  C_4
REMARK    3  A    between atoms: N_6  and  C_10
REMARK    4  A    between atoms: C_13  and  C_15
REMARK    5  A    between atoms: C_15  and  O_16
REMARK    6  A    between atoms: O_16  and  P_17
REMARK    7  A    between atoms: P_17  and  O_20
REMARK    8  A    between atoms: O_20  and  P_21
REMARK    9  A    between atoms: P_21  and  O_22
REMARK   10  A    between atoms: P_21  and  O_24
REMARK   11  A    between atoms: O_24  and  C_25
REMARK   12  A    between atoms: C_25  and  C_26
REMARK   13  A    between atoms: C_29  and  N_37
REMARK   14  A    between atoms: C_31  and  O_33
REMARK   15  A    between atoms: C_34  and  O_36
REMARK   16  A    between atoms: C_47  and  O_49
REMARK   17  A    between atoms: C_50  and  O_52
REMARK                            x       y       z     vdW  Elec       q    Type
REMARK                         _______ _______ _______ _____ _____    ______ ____
ROOT
ATOM      1  P   UNL     1       4.779  10.558   4.377  0.00  0.00    +0.480 P 
ATOM      2  O   UNL     1       3.520   9.798   4.665  0.00  0.00    -0.227 OA
ENDROOT
BRANCH   1   3
ATOM      3  O   UNL     1       4.548  11.446   3.060  0.00  0.00    -0.302 OA
ATOM      4  H   UNL     1       3.883  11.039   2.470  0.00  0.00    +0.222 HD
ENDBRANCH   1   3
BRANCH   1   5
ATOM      5  O   UNL     1       5.076  11.667   5.509  0.00  0.00    -0.284 OA
BRANCH   5   6
ATOM      6  C   UNL     1       4.050  11.837   6.498  0.00  0.00    +0.206 C 
BRANCH   6   7
ATOM      7  C   UNL     1       4.281  10.845   7.641  0.00  0.00    +0.178 C 
ATOM      8  C   UNL     1       3.263  10.915   8.787  0.00  0.00    +0.178 C 
ATOM      9  C   UNL     1       4.096  10.677  10.055  0.00  0.00    +0.195 C 
ATOM     10  C   UNL     1       5.524  10.549   9.535  0.00  0.00    +0.253 C 
ATOM     11  O   UNL     1       5.553  11.154   8.244  0.00  0.00    -0.346 OA
BRANCH  10  12
ATOM     12  N   UNL     1       6.512  11.159  10.390  0.00  0.00    -0.286 N 
ATOM     13  C   UNL     1       7.059  10.566  11.494  0.00  0.00    +0.167 A 
ATOM     14  N   UNL     1       6.800   9.344  11.989  0.00  0.00    -0.216 NA
ATOM     15  C   UNL     1       7.615   9.083  13.042  0.00  0.00    +0.225 A 
ATOM     16  N   UNL     1       8.530   9.890  13.619  0.00  0.00    -0.219 NA
ATOM     17  C   UNL     1       8.703  11.132  13.116  0.00  0.00    +0.147 A 
ATOM     18  N   UNL     1       9.618  11.969  13.736  0.00  0.00    -0.341 N 
ATOM     19  H   UNL     1       9.948  12.722  13.141  0.00  0.00    +0.144 HD
ATOM     20  H   UNL     1      10.308  11.456  14.268  0.00  0.00    +0.144 HD
ATOM     21  C   UNL     1       7.963  11.504  11.985  0.00  0.00    +0.147 A 
ATOM     22  N   UNL     1       7.939  12.646  11.214  0.00  0.00    -0.231 NA
ATOM     23  C   UNL     1       7.066  12.404  10.259  0.00  0.00    +0.203 A 
ENDBRANCH  10  12
BRANCH   9  24
ATOM     24  O   UNL     1       3.669   9.490  10.747  0.00  0.00    -0.385 OA
ATOM     25  H   UNL     1       4.280   9.374  11.505  0.00  0.00    +0.210 HD
ENDBRANCH   9  24
BRANCH   8  26
ATOM     26  O   UNL     1       2.236   9.935   8.653  0.00  0.00    -0.386 OA
ATOM     27  H   UNL     1       2.130   9.537   9.542  0.00  0.00    +0.210 HD
ENDBRANCH   8  26
ENDBRANCH   6   7
ENDBRANCH   5   6
ENDBRANCH   1   5
BRANCH   1  28
ATOM     28  O   UNL     1       6.152   9.717   4.054  0.00  0.00    -0.229 OA
BRANCH  28  29
ATOM     29  P   UNL     1       5.506   8.571   2.931  0.00  0.00    +0.222 P 
ATOM     30  O   UNL     1       4.860   7.425   1.808  0.00  0.00    -0.437 OA
ATOM     31  O   UNL     1       6.965   8.123   2.719  0.00  0.00    -0.517 OA
BRANCH  29  32
ATOM     32  O   UNL     1       4.987   7.697   4.276  0.00  0.00    -0.324 OA
BRANCH  32  33
ATOM     33  C   UNL     1       4.881   6.283   4.201  0.00  0.00    +0.202 C 
BRANCH  33  37
ATOM     34  C   UNL     1       3.904   5.006   7.494  0.00  0.00    +0.439 C 
ATOM     35  C   UNL     1       3.969   3.712   6.693  0.00  0.00    +0.244 C 
ATOM     36  C   UNL     1       3.861   4.206   5.248  0.00  0.00    +0.183 C 
ATOM     37  C   UNL     1       4.017   5.735   5.344  0.00  0.00    +0.182 C 
ATOM     38  O   UNL     1       4.552   5.978   6.665  0.00  0.00    -0.309 OA
BRANCH  34  43
ATOM     39  C   UNL     1       6.223   5.597  10.384  0.00  0.00    +0.081 A 
ATOM     40  C   UNL     1       5.655   4.781  11.361  0.00  0.00    +0.023 A 
ATOM     41  C   UNL     1       4.556   3.991  11.042  0.00  0.00    +0.071 A 
ATOM     42  C   UNL     1       4.027   4.050   9.755  0.00  0.00    +0.311 A 
ATOM     43  N   UNL     1       4.572   4.865   8.814  0.00  0.00    -0.173 N 
ATOM     44  C   UNL     1       5.656   5.623   9.113  0.00  0.00    +0.323 A 
BRANCH  39  46
ATOM     45  C   UNL     1       7.938   7.399   9.699  0.00  0.00    +0.092 C 
ATOM     46  C   UNL     1       7.420   6.412  10.713  0.00  0.00    +0.166 C 
ATOM     47  O   UNL     1       7.966   6.239  11.799  0.00  0.00    -0.292 OA
ENDBRANCH  39  46
ENDBRANCH  34  43
BRANCH  36  48
ATOM     48  O   UNL     1       2.593   3.817   4.719  0.00  0.00    -0.386 OA
ATOM     49  H   UNL     1       2.581   4.089   3.776  0.00  0.00    +0.210 HD
ENDBRANCH  36  48
BRANCH  35  50
ATOM     50  O   UNL     1       2.932   2.798   7.055  0.00  0.00    -0.380 OA
ATOM     51  H   UNL     1       2.409   2.659   6.230  0.00  0.00    +0.210 HD
ENDBRANCH  35  50
ENDBRANCH  33  37
ENDBRANCH  32  33
ENDBRANCH  29  32
ENDBRANCH  28  29
ENDBRANCH   1  28
TORSDOF 16
