REMARK  Name = 
REMARK  9 active torsions:
REMARK  status: ('A' for Active; 'I' for Inactive)
REMARK    1  A    between atoms: N_1  and  CA_2
REMARK    2  A    between atoms: CA_2  and  C_4
REMARK    3  A    between atoms: CA_2  and  C_12
REMARK    4  A    between atoms: C_4  and  C_5
REMARK    5  A    between atoms: C_5  and  O_7
REMARK    6  A    between atoms: O_7  and  C_8
REMARK    7  A    between atoms: C_8  and  C_9
REMARK    8  A    between atoms: C_9  and  O_10
REMARK    9  A    between atoms: C_12  and  O_13
REMARK                            x       y       z     vdW  Elec       q    Type
REMARK                         _______ _______ _______ _____ _____    ______ ____
ROOT
ATOM      1  C   UNL     1       2.918  -1.117  -0.881  0.00  0.00    +0.150 C 
ENDROOT
BRANCH   1   2
ATOM      2  C   UNL     1       2.438  -2.438  -0.340  0.00  0.00    +0.310 C 
ATOM      3  O   UNL     1       2.714  -2.828   0.786  0.00  0.00    -0.251 OA
BRANCH   2   4
ATOM      4  O   UNL     1       1.636  -3.077  -1.228  0.00  0.00    -0.453 OA
BRANCH   4   5
ATOM      5  C   UNL     1       1.097  -4.332  -0.797  0.00  0.00    +0.352 C 
BRANCH   5   6
ATOM      6  C   UNL     1      -0.422  -4.342  -0.793  0.00  0.00    +0.343 C 
ATOM      7  O   UNL     1      -1.079  -5.325  -0.476  0.00  0.00    -0.247 OA
BRANCH   6   8
ATOM      8  O   UNL     1      -1.002  -3.188  -1.188  0.00  0.00    -0.478 OA
ATOM      9  H   UNL     1      -0.376  -2.445  -1.355  0.00  0.00    +0.295 HD
ENDBRANCH   6   8
ENDBRANCH   5   6
ENDBRANCH   4   5
ENDBRANCH   2   4
ENDBRANCH   1   2
BRANCH   1  10
ATOM     10  CA  UNL     1       2.357   0.038  -0.056  0.00  0.00    +0.171 C 
BRANCH  10  11
ATOM     11  N   UNL     1       2.841   0.094   1.353  0.00  0.00    -0.318 NA
ATOM     12  H1  UNL     1       2.754  -0.852   1.760  0.00  0.00    +0.119 HD
ATOM     13  H2  UNL     1       3.854   0.250   1.347  0.00  0.00    +0.119 HD
ENDBRANCH  10  11
BRANCH  10  14
ATOM     14  C   UNL     1       0.821  -0.020  -0.036  0.00  0.00    +0.322 C 
ATOM     15  OXT UNL     1       0.131  -0.546  -0.898  0.00  0.00    -0.249 OA
BRANCH  14  16
ATOM     16  O   UNL     1       0.323   0.569   1.079  0.00  0.00    -0.480 OA
ATOM     17  H   UNL     1       1.098   0.803   1.649  0.00  0.00    +0.295 HD
ENDBRANCH  14  16
ENDBRANCH  10  14
ENDBRANCH   1  10
TORSDOF 9
