REMARK  Name = 
REMARK  16 active torsions:
REMARK  status: ('A' for Active; 'I' for Inactive)
REMARK    1  A    between atoms: C_1  and  C_2
REMARK    2  A    between atoms: C_5  and  O_7
REMARK    3  A    between atoms: O_7  and  P_8
REMARK    4  A    between atoms: P_8  and  O_9
REMARK    5  A    between atoms: P_8  and  O_11
REMARK    6  A    between atoms: O_11  and  P_12
REMARK    7  A    between atoms: P_12  and  O_13
REMARK    8  A    between atoms: P_12  and  O_15
REMARK    9  A    between atoms: O_15  and  C_16
REMARK   10  A    between atoms: C_16  and  C_17
REMARK   11  A    between atoms: C_20  and  N_26
REMARK   12  A    between atoms: C_23  and  O_25
REMARK   13  A    between atoms: C_28  and  C_29
REMARK   14  A    between atoms: C_35  and  O_37
REMARK   15  A    between atoms: C_38  and  O_40
REMARK   16  A    between atoms: C_41  and  O_43
REMARK                            x       y       z     vdW  Elec       q    Type
REMARK                         _______ _______ _______ _____ _____    ______ ____
ROOT
ATOM      1  P   UNL     1       2.849  -3.150  -6.561  0.00  0.00    +0.483 P 
ATOM      2  O   UNL     1       3.319  -1.745  -6.377  0.00  0.00    -0.227 OA
ENDROOT
BRANCH   1   3
ATOM      3  O   UNL     1       1.818  -3.318  -7.778  0.00  0.00    -0.302 OA
ATOM      4  H   UNL     1       1.480  -4.231  -7.832  0.00  0.00    +0.222 HD
ENDBRANCH   1   3
BRANCH   1   5
ATOM      5  O   UNL     1       1.967  -3.726  -5.358  0.00  0.00    -0.186 OA
BRANCH   5   6
ATOM      6  P   UNL     1       1.743  -2.715  -3.972  0.00  0.00    +0.486 P 
ATOM      7  O   UNL     1       0.784  -3.703  -3.304  0.00  0.00    -0.227 OA
BRANCH   6   8
ATOM      8  O   UNL     1       1.518  -1.705  -2.586  0.00  0.00    -0.302 OA
ATOM      9  H   UNL     1       1.223  -2.327  -1.894  0.00  0.00    +0.222 HD
ENDBRANCH   6   8
BRANCH   6  10
ATOM     10  O   UNL     1       3.292  -2.992  -3.483  0.00  0.00    -0.254 OA
BRANCH  10  16
ATOM     11  C   UNL     1       2.259  -7.424  -2.645  0.00  0.00    +0.041 C 
ATOM     12  C   UNL     1       3.021  -6.250  -2.056  0.00  0.00    +0.149 C 
ATOM     13  C   UNL     1       4.451  -6.587  -1.613  0.00  0.00    +0.174 C 
ATOM     14  C   UNL     1       5.151  -5.295  -1.132  0.00  0.00    +0.179 C 
ATOM     15  C   UNL     1       4.995  -4.135  -2.138  0.00  0.00    +0.202 C 
ATOM     16  C   UNL     1       3.505  -4.004  -2.525  0.00  0.00    +0.293 C 
ATOM     17  O   UNL     1       3.070  -5.240  -3.059  0.00  0.00    -0.343 OA
BRANCH  13  18
ATOM     18  O   UNL     1       4.415  -7.583  -0.587  0.00  0.00    -0.387 OA
ATOM     19  H   UNL     1       4.278  -7.149   0.270  0.00  0.00    +0.210 HD
ENDBRANCH  13  18
BRANCH  14  20
ATOM     20  O   UNL     1       6.540  -5.536  -0.876  0.00  0.00    -0.386 OA
ATOM     21  H   UNL     1       6.968  -4.659  -0.828  0.00  0.00    +0.210 HD
ENDBRANCH  14  20
BRANCH  15  22
ATOM     22  O   UNL     1       5.555  -2.953  -1.539  0.00  0.00    -0.384 OA
ATOM     23  H   UNL     1       4.846  -2.444  -1.109  0.00  0.00    +0.210 HD
ENDBRANCH  15  22
ENDBRANCH  10  16
ENDBRANCH   6  10
ENDBRANCH   5   6
ENDBRANCH   1   5
BRANCH   1  24
ATOM     24  O   UNL     1       3.970  -4.251  -6.944  0.00  0.00    -0.284 OA
BRANCH  24  25
ATOM     25  C   UNL     1       5.299  -4.025  -6.459  0.00  0.00    +0.206 C 
BRANCH  25  26
ATOM     26  C   UNL     1       6.311  -5.104  -6.902  0.00  0.00    +0.175 C 
ATOM     27  C   UNL     1       7.579  -5.067  -6.045  0.00  0.00    +0.150 C 
ATOM     28  C   UNL     1       8.726  -5.305  -7.008  0.00  0.00    +0.088 C 
ATOM     29  C   UNL     1       8.057  -5.662  -8.332  0.00  0.00    +0.226 C 
ATOM     30  O   UNL     1       6.792  -4.936  -8.258  0.00  0.00    -0.348 OA
BRANCH  29  31
ATOM     31  N   UNL     1       7.802  -7.090  -8.621  0.00  0.00    -0.274 N 
ATOM     32  C   UNL     1       8.737  -8.068  -8.295  0.00  0.00    +0.331 A 
ATOM     33  O   UNL     1       9.833  -7.858  -7.778  0.00  0.00    -0.246 OA
ATOM     34  N   UNL     1       8.382  -9.358  -8.600  0.00  0.00    -0.275 N 
ATOM     35  H   UNL     1       9.021 -10.084  -8.313  0.00  0.00    +0.173 HD
ATOM     36  C   UNL     1       7.278  -9.756  -9.297  0.00  0.00    +0.257 A 
ATOM     37  O   UNL     1       7.035 -10.934  -9.527  0.00  0.00    -0.267 OA
ATOM     38  C   UNL     1       6.416  -8.661  -9.791  0.00  0.00    +0.030 A 
ATOM     39  C   UNL     1       5.255  -9.017 -10.656  0.00  0.00    +0.051 C 
ATOM     40  C   UNL     1       6.726  -7.409  -9.438  0.00  0.00    +0.101 A 
ENDBRANCH  29  31
BRANCH  27  41
ATOM     41  O   UNL     1       7.509  -6.062  -5.033  0.00  0.00    -0.389 OA
ATOM     42  H   UNL     1       8.415  -6.319  -4.781  0.00  0.00    +0.210 HD
ENDBRANCH  27  41
ENDBRANCH  25  26
ENDBRANCH  24  25
ENDBRANCH   1  24
TORSDOF 14
