REMARK  Name = 
REMARK  9 active torsions:
REMARK  status: ('A' for Active; 'I' for Inactive)
REMARK    1  A    between atoms: N_1  and  C_2
REMARK    2  A    between atoms: C_2  and  C_4
REMARK    3  A    between atoms: C_2  and  C_15
REMARK    4  A    between atoms: C_4  and  C_5
REMARK    5  A    between atoms: C_5  and  C_6
REMARK    6  A    between atoms: C_6  and  C_7
REMARK    7  A    between atoms: C_7  and  N_8
REMARK    8  A    between atoms: C_9  and  N_10
REMARK    9  A    between atoms: C_15  and  O_16
REMARK                            x       y       z     vdW  Elec       q    Type
REMARK                         _______ _______ _______ _____ _____    ______ ____
ROOT
ATOM      1  C   UNK     1       3.098  -2.428  -2.995  0.00  0.00    +0.037 C 
ENDROOT
BRANCH   1   2
ATOM      2  C   UNK     1       2.530  -1.888  -1.678  0.00  0.00    +0.005 C 
BRANCH   2   3
ATOM      3  C   UNK     1       3.003  -0.465  -1.351  0.00  0.00    +0.030 C 
BRANCH   3   4
ATOM      4  C   UNK     1       2.493   0.085  -0.011  0.00  0.00    +0.161 C 
BRANCH   4   5
ATOM      5  N   UNK     1       2.972   1.495   0.142  0.00  0.00    -0.318 NA
ATOM      6  H   UNK     1       3.895   1.593  -0.294  0.00  0.00    +0.119 HD
ATOM      7  H   UNK     1       2.367   2.101  -0.423  0.00  0.00    +0.119 HD
ENDBRANCH   4   5
BRANCH   4   8
ATOM      8  C   UNK     1       3.031  -0.729   1.187  0.00  0.00    +0.322 C 
ATOM      9  O   UNK     1       2.932  -1.939   1.327  0.00  0.00    -0.249 OA
BRANCH   8  10
ATOM     10  O   UNK     1       3.676   0.065   2.077  0.00  0.00    -0.480 OA
ATOM     11  H   UNK     1       3.564   0.992   1.746  0.00  0.00    +0.295 HD
ENDBRANCH   8  10
ENDBRANCH   4   8
ENDBRANCH   3   4
ENDBRANCH   2   3
ENDBRANCH   1   2
BRANCH   1  12
ATOM     12  C   UNK     1       4.627  -2.479  -2.999  0.00  0.00    +0.195 C 
BRANCH  12  13
ATOM     13  N   UNK     1       5.110  -3.079  -4.224  0.00  0.00    -0.279 N 
ATOM     14  H   UNK     1       5.252  -2.412  -4.979  0.00  0.00    +0.258 HD
ATOM     15  C   UNK     1       5.411  -4.356  -4.479  0.00  0.00    +0.347 C 
ATOM     16  N   UNK     1       5.883  -4.852  -5.545  0.00  0.00    -0.132 NA
ATOM     17  H   UNK     1       6.027  -4.115  -6.247  0.00  0.00    +0.306 HD
BRANCH  15  18
ATOM     18  N   UNK     1       5.224  -5.350  -3.548  0.00  0.00    -0.392 NA
ATOM     19  H   UNK     1       4.685  -5.097  -2.729  0.00  0.00    +0.216 HD
ATOM     20  H   UNK     1       4.845  -6.136  -4.079  0.00  0.00    +0.216 HD
ATOM     21  H   UNK     1       6.162  -5.679  -3.309  0.00  0.00    +0.216 HD
ENDBRANCH  15  18
ENDBRANCH  12  13
ENDBRANCH   1  12
TORSDOF 9
