REMARK  Name = 
REMARK  1 active torsions:
REMARK  status: ('A' for Active; 'I' for Inactive)
REMARK    1  A    between atoms: N_1  and  C_2
REMARK                            x       y       z     vdW  Elec       q    Type
REMARK                         _______ _______ _______ _____ _____    ______ ____
ROOT
ATOM      1  C   UNL     1       2.486   0.041   0.053  0.00  0.00    +0.106 A 
ATOM      2  C   UNL     1       3.244  -1.258  -0.087  0.00  0.00    +0.275 A 
ATOM      3  O   UNL     1       2.649  -2.332  -0.150  0.00  0.00    -0.266 OA
ATOM      4  N   UNL     1       4.605  -1.168  -0.177  0.00  0.00    -0.274 N 
ATOM      5  H   UNL     1       5.121  -2.027  -0.277  0.00  0.00    +0.173 HD
ATOM      6  C   UNL     1       5.307  -0.004  -0.281  0.00  0.00    +0.327 A 
ATOM      7  O   UNL     1       6.521   0.019  -0.448  0.00  0.00    -0.247 OA
ATOM      8  N   UNL     1       4.567   1.143  -0.201  0.00  0.00    -0.313 N 
ATOM      9  H   UNL     1       5.091   2.009  -0.265  0.00  0.00    +0.170 HD
ATOM     10  C   UNL     1       3.211   1.164  -0.029  0.00  0.00    +0.115 A 
ENDROOT
BRANCH   1  11
ATOM     11  N   UNL     1       1.115  -0.026   0.220  0.00  0.00    -0.353 N 
ATOM     12  H   UNL     1       0.756  -0.939  -0.071  0.00  0.00    +0.143 HD
ATOM     13  H   UNL     1       0.607   0.752  -0.189  0.00  0.00    +0.143 HD
ENDBRANCH   1  11
TORSDOF 1
