REMARK  Name = 
REMARK  4 active torsions:
REMARK  status: ('A' for Active; 'I' for Inactive)
REMARK    1  A    between atoms: N9_10  and  C1*_11
REMARK    2  A    between atoms: C4*_14  and  C5*_16
REMARK    3  A    between atoms: C5*_16  and  O5*_17
REMARK    4  A    between atoms: C2*_20  and  O2*_22
REMARK                            x       y       z     vdW  Elec       q    Type
REMARK                         _______ _______ _______ _____ _____    ______ ____
ROOT
ATOM      1  N6    A A   1       0.635  -1.516  -0.906  0.00  0.00    -0.341 N 
ATOM      2  H61   A A   1       0.659  -0.914  -0.090  0.00  0.00    +0.144 HD
ATOM      3  H62   A A   1       0.062  -1.230  -1.688  0.00  0.00    +0.144 HD
ATOM      4  C6    A A   1       1.886  -1.969  -1.301  0.00  0.00    +0.147 A 
ATOM      5  C5    A A   1       2.999  -2.003  -0.443  0.00  0.00    +0.147 A 
ATOM      6  N7    A A   1       3.173  -1.631   0.874  0.00  0.00    -0.231 NA
ATOM      7  C8    A A   1       4.431  -1.909   1.139  0.00  0.00    +0.203 A 
ATOM      8  N9    A A   1       5.079  -2.444   0.057  0.00  0.00    -0.285 N 
ATOM      9  C4    A A   1       4.181  -2.497  -0.974  0.00  0.00    +0.167 A 
ATOM     10  N3    A A   1       4.386  -2.941  -2.223  0.00  0.00    -0.216 NA
ATOM     11  C2    A A   1       3.254  -2.855  -2.955  0.00  0.00    +0.225 A 
ATOM     12  N1    A A   1       2.042  -2.395  -2.576  0.00  0.00    -0.219 NA
ENDROOT
BRANCH   8  13
ATOM     13  C1*   A A   1       6.452  -2.911   0.004  0.00  0.00    +0.259 C 
ATOM     14  C2*   A A   1       6.590  -4.389   0.370  0.00  0.00    +0.232 C 
ATOM     15  C3*   A A   1       7.946  -4.356   1.022  0.00  0.00    +0.197 C 
ATOM     16  O3*   A A   1       8.561  -5.363   1.352  0.00  0.00    -0.292 OA
ATOM     17  C4*   A A   1       8.446  -2.946   1.170  0.00  0.00    +0.215 C 
ATOM     18  O4*   A A   1       7.232  -2.182   0.982  0.00  0.00    -0.340 OA
BRANCH  14  19
ATOM     19  O2*   A A   1       6.578  -5.256  -0.749  0.00  0.00    -0.380 OA
ATOM     20  H2*   A A   1       6.880  -6.131  -0.435  0.00  0.00    +0.211 HD
ENDBRANCH  14  19
BRANCH  17  21
ATOM     21  C5*   A A   1       9.041  -2.671   2.539  0.00  0.00    +0.195 C 
BRANCH  21  22
ATOM     22  O5*   A A   1       9.392  -1.293   2.655  0.00  0.00    -0.392 OA
ATOM     23  H5*   A A   1       8.581  -0.777   2.488  0.00  0.00    +0.210 HD
ENDBRANCH  21  22
ENDBRANCH  17  21
ENDBRANCH   8  13
TORSDOF 4
