REMARK  Name = 
REMARK  4 active torsions:
REMARK  status: ('A' for Active; 'I' for Inactive)
REMARK    1  A    between atoms: N_1  and  C_2
REMARK    2  A    between atoms: C_5  and  AS_8
REMARK    3  A    between atoms: AS_8  and  O_9
REMARK    4  A    between atoms: AS_8  and  O_10
REMARK                            x       y       z     vdW  Elec       q    Type
REMARK                         _______ _______ _______ _____ _____    ______ ____
ROOT
ATOM      1  C   UNL     1       2.359  -0.015  -0.052  0.00  0.00    +0.000 A 
ATOM      2  C   UNL     1       3.089  -1.210  -0.151  0.00  0.00    +0.000 A 
ATOM      3  C   UNL     1       4.475  -1.174  -0.340  0.00  0.00    +0.000 A 
ATOM      4  C   UNL     1       5.138   0.054  -0.429  0.00  0.00    +0.000 A 
ATOM      5  C   UNL     1       4.416   1.247  -0.327  0.00  0.00    +0.000 A 
ATOM      6  C   UNL     1       3.030   1.214  -0.140  0.00  0.00    +0.000 A 
ENDROOT
BRANCH   1   7
ATOM      7  N   UNL     1       0.956  -0.050   0.137  0.00  0.00    +0.000 N 
ATOM      8  H   UNL     1       0.456  -0.948   0.203  0.00  0.00    +0.000 HD
ATOM      9  H   UNL     1       0.413   0.824   0.207  0.00  0.00    +0.000 HD
ENDBRANCH   1   7
BRANCH   4  10
ATOM     10 AS   UNL     1       7.062   0.109  -0.691  0.00  0.00    +0.000 As
ATOM     11  O   UNL     1       7.396   0.929  -2.077  0.00  0.00    +0.000 OA
BRANCH  10  12
ATOM     12  O   UNL     1       7.904  -1.506  -0.946  0.00  0.00    +0.000 OA
ATOM     13  H   UNL     1       7.817  -1.972  -0.077  0.00  0.00    +0.000 HD
ENDBRANCH  10  12
BRANCH  10  14
ATOM     14  O   UNL     1       8.013   1.035   0.580  0.00  0.00    +0.000 OA
ATOM     15  H   UNL     1       7.760   0.608   1.436  0.00  0.00    +0.000 HD
ENDBRANCH  10  14
ENDBRANCH   4  10
TORSDOF 4
