REMARK  Name = 
REMARK  6 active torsions:
REMARK  status: ('A' for Active; 'I' for Inactive)
REMARK    1  A    between atoms: O_1  and  C_2
REMARK    2  A    between atoms: C_2  and  C_3
REMARK    3  A    between atoms: C_6  and  O_8
REMARK    4  A    between atoms: C_9  and  O_11
REMARK    5  A    between atoms: C_12  and  O_14
REMARK    6  A    between atoms: C_15  and  S_17
REMARK                            x       y       z     vdW  Elec       q    Type
REMARK                         _______ _______ _______ _____ _____    ______ ____
ROOT
ATOM      1  C   UNL     1       3.040  -1.056   1.112  0.00  0.00    +0.162 C 
ATOM      2  C   UNL     1       4.508  -1.172   0.649  0.00  0.00    +0.105 C 
ATOM      3  C   UNL     1       4.578  -1.769  -0.769  0.00  0.00    +0.163 C 
ATOM      4  C   UNL     1       3.724  -3.033  -0.895  0.00  0.00    +0.200 C 
ATOM      5  C   UNL     1       2.321  -2.785  -0.338  0.00  0.00    +0.279 C 
ATOM      6  O   UNL     1       2.394  -2.344   1.002  0.00  0.00    -0.342 OA
ENDROOT
BRANCH   2   7
ATOM      7  S   UNL     1       5.362   0.462   0.685  0.00  0.00    -0.170 S 
ATOM      8  H   UNL     1       4.710   1.011  -0.352  0.00  0.00    +0.102 HD
ENDBRANCH   2   7
BRANCH   3   9
ATOM      9  O   UNL     1       5.929  -2.102  -1.118  0.00  0.00    -0.388 OA
ATOM     10  H   UNL     1       5.869  -2.616  -1.949  0.00  0.00    +0.210 HD
ENDBRANCH   3   9
BRANCH   4  11
ATOM     11  O   UNL     1       3.668  -3.415  -2.280  0.00  0.00    -0.384 OA
ATOM     12  H   UNL     1       2.966  -4.097  -2.327  0.00  0.00    +0.210 HD
ENDBRANCH   4  11
BRANCH   5  13
ATOM     13  O   UNL     1       1.615  -4.016  -0.367  0.00  0.00    -0.365 OA
ATOM     14  H   UNL     1       0.807  -3.834   0.146  0.00  0.00    +0.213 HD
ENDBRANCH   5  13
BRANCH   1  15
ATOM     15  C   UNL     1       2.898  -0.607   2.576  0.00  0.00    +0.188 C 
BRANCH  15  16
ATOM     16  O   UNL     1       1.518  -0.366   2.866  0.00  0.00    -0.392 OA
ATOM     17  H   UNL     1       1.455  -0.212   3.825  0.00  0.00    +0.210 HD
ENDBRANCH  15  16
ENDBRANCH   1  15
TORSDOF 6
