REMARK  Name = 
REMARK  14 active torsions:
REMARK  status: ('A' for Active; 'I' for Inactive)
REMARK    1  A    between atoms: C_2  and  C_3
REMARK    2  A    between atoms: C_2  and  N_7
REMARK    3  A    between atoms: C_2  and  C_31
REMARK    4  A    between atoms: C_3  and  C_4
REMARK    5  A    between atoms: C_4  and  O_5
REMARK    6  A    between atoms: C_8  and  C_10
REMARK    7  A    between atoms: C_13  and  C_14
REMARK    8  A    between atoms: C_14  and  N_15
REMARK    9  A    between atoms: N_15  and  S_16
REMARK   10  A    between atoms: S_16  and  C_19
REMARK   11  A    between atoms: C_21  and  C_22
REMARK   12  A    between atoms: C_22  and  O_23
REMARK   13  A    between atoms: C_25  and  O_26
REMARK   14  A    between atoms: C_31  and  C_32
REMARK                            x       y       z     vdW  Elec       q    Type
REMARK                         _______ _______ _______ _____ _____    ______ ____
ROOT
ATOM      1  C   UNL     1       2.537  -1.737  -3.482  0.00  0.00    +0.037 A 
ATOM      2  C   UNL     1       2.601  -3.064  -3.929  0.00  0.00    +0.013 A 
ATOM      3  C   UNL     1       2.918  -3.358  -5.259  0.00  0.00    +0.006 A 
ATOM      4  C   UNL     1       3.183  -2.332  -6.178  0.00  0.00    -0.032 A 
ATOM      5  C   UNL     1       3.160  -1.008  -5.720  0.00  0.00    +0.006 A 
ATOM      6  C   UNL     1       2.853  -0.712  -4.384  0.00  0.00    +0.013 A 
ENDROOT
BRANCH   1   9
ATOM      7  N   UNL     1       2.040  -0.201  -1.616  0.00  0.00    -0.301 N 
ATOM      8  H   UNL     1       2.155   0.556  -2.273  0.00  0.00    +0.150 HD
ATOM      9  C   UNL     1       2.088  -1.502  -2.071  0.00  0.00    +0.245 C 
ATOM     10  O   UNL     1       1.763  -2.447  -1.359  0.00  0.00    -0.270 OA
BRANCH   7  11
ATOM     11  C   UNL     1       1.500   0.131  -0.290  0.00  0.00    +0.150 C 
BRANCH  11  12
ATOM     12  C   UNL     1       1.359   1.657  -0.199  0.00  0.00    +0.151 C 
ATOM     13  O   UNL     1       0.248   2.183  -0.063  0.00  0.00    -0.296 OA
ATOM     14  C   UNL     1       2.595   2.506  -0.370  0.00  0.00    +0.088 C 
ENDBRANCH  11  12
BRANCH  11  15
ATOM     15  C   UNL     1       2.357  -0.440   0.837  0.00  0.00    +0.150 C 
BRANCH  15  16
ATOM     16  C   UNL     1       1.827  -0.047   2.184  0.00  0.00    +0.307 C 
ATOM     17  O   UNL     1       2.099   1.017   2.720  0.00  0.00    -0.251 OA
BRANCH  16  18
ATOM     18  O   UNL     1       1.020  -0.967   2.750  0.00  0.00    -0.481 OA
ATOM     19  H   UNL     1       0.889  -1.782   2.225  0.00  0.00    +0.295 HD
ENDBRANCH  16  18
ENDBRANCH  15  16
ENDBRANCH  11  15
ENDBRANCH   7  11
ENDBRANCH   1   9
BRANCH   4  20
ATOM     20  C   UNL     1       3.369  -2.680  -7.641  0.00  0.00    +0.141 C 
BRANCH  20  21
ATOM     21  N   UNL     1       4.193  -1.720  -8.379  0.00  0.00    -0.186 NA
ATOM     22  H   UNL     1       5.094  -1.482  -7.963  0.00  0.00    +0.148 HD
BRANCH  21  23
ATOM     23  S   UNL     1       4.344  -1.968 -10.034  0.00  0.00    +0.059 S 
ATOM     24  O   UNL     1       4.163  -3.380 -10.295  0.00  0.00    -0.153 OA
ATOM     25  O   UNL     1       5.536  -1.260 -10.446  0.00  0.00    -0.153 OA
BRANCH  23  26
ATOM     26  C   UNL     1       2.959  -1.087 -10.711  0.00  0.00    +0.106 A 
ATOM     27  C   UNL     1       2.018  -1.757 -11.501  0.00  0.00    +0.032 A 
ATOM     28  C   UNL     1       0.962  -1.044 -12.075  0.00  0.00    +0.048 A 
ATOM     29  C   UNL     1       0.858   0.327 -11.850  0.00  0.00    +0.131 A 
ATOM     30  C   UNL     1       1.800   1.006 -11.069  0.00  0.00    +0.102 A 
ATOM     31  C   UNL     1       2.857   0.292 -10.491  0.00  0.00    +0.047 A 
BRANCH  29  32
ATOM     32  O   UNL     1      -0.178   1.005 -12.431  0.00  0.00    -0.506 OA
ATOM     33  H   UNL     1      -0.960   0.856 -11.860  0.00  0.00    +0.292 HD
ENDBRANCH  29  32
BRANCH  30  34
ATOM     34  C   UNL     1       1.711   2.460 -10.791  0.00  0.00    +0.340 C 
ATOM     35  O   UNL     1       2.166   2.954  -9.772  0.00  0.00    -0.245 OA
BRANCH  34  36
ATOM     36  O   UNL     1       1.120   3.182 -11.766  0.00  0.00    -0.477 OA
ATOM     37  H   UNL     1       0.779   2.632 -12.506  0.00  0.00    +0.295 HD
ENDBRANCH  34  36
ENDBRANCH  30  34
ENDBRANCH  23  26
ENDBRANCH  21  23
ENDBRANCH  20  21
ENDBRANCH   4  20
TORSDOF 13
