REMARK  Name = 
REMARK  8 active torsions:
REMARK  status: ('A' for Active; 'I' for Inactive)
REMARK    1  A    between atoms: C_1  and  C_2
REMARK    2  A    between atoms: C_2  and  C_3
REMARK    3  A    between atoms: C_3  and  C_4
REMARK    4  A    between atoms: C_3  and  O_5
REMARK    5  A    between atoms: C_3  and  C_6
REMARK    6  A    between atoms: C_6  and  O_8
REMARK    7  A    between atoms: C_6  and  C_9
REMARK    8  A    between atoms: C_9  and  O_10
REMARK                            x       y       z     vdW  Elec       q    Type
REMARK                         _______ _______ _______ _____ _____    ______ ____
ROOT
ATOM      1  C   UNL     1       4.480  -0.082  -1.443  0.00  0.00    +0.254 C 
ENDROOT
BRANCH   1   2
ATOM      2  C   UNL     1       4.991   1.160  -0.666  0.00  0.00    +0.099 C 
ATOM      3  C   UNL     1       4.069   1.483   0.520  0.00  0.00    +0.044 C 
BRANCH   2   5
ATOM      4  C   UNL     1       6.078   2.291  -2.723  0.00  0.00    +0.007 C 
ATOM      5  C   UNL     1       5.086   2.412  -1.572  0.00  0.00    +0.034 C 
ENDBRANCH   2   5
BRANCH   2   6
ATOM      6  O   UNL     1       6.304   0.867  -0.146  0.00  0.00    -0.386 OA
ATOM      7  H   UNL     1       6.592   1.658   0.355  0.00  0.00    +0.210 HD
ENDBRANCH   2   6
ENDBRANCH   1   2
BRANCH   1   8
ATOM      8  C   UNL     1       4.479  -1.349  -0.575  0.00  0.00    +0.337 C 
ATOM      9  O   UNL     1       3.506  -2.092  -0.501  0.00  0.00    -0.248 OA
BRANCH   8  10
ATOM     10  O   UNL     1       5.651  -1.612   0.042  0.00  0.00    -0.479 OA
ATOM     11  H   UNL     1       6.281  -0.855  -0.054  0.00  0.00    +0.295 HD
ENDBRANCH   8  10
ENDBRANCH   1   8
BRANCH   1  12
ATOM     12  O   UNL     1       3.178   0.170  -1.980  0.00  0.00    -0.378 OA
ATOM     13  H   UNL     1       2.651  -0.639  -1.805  0.00  0.00    +0.211 HD
ENDBRANCH   1  12
TORSDOF 6
