REMARK  Name = 
REMARK  18 active torsions:
REMARK  status: ('A' for Active; 'I' for Inactive)
REMARK    1  A    between atoms: C_1  and  C_2
REMARK    2  A    between atoms: N_4  and  C_5
REMARK    3  A    between atoms: C_7  and  O_9
REMARK    4  A    between atoms: C_10  and  O_12
REMARK    5  A    between atoms: C_13  and  C_15
REMARK    6  A    between atoms: C_15  and  O_16
REMARK    7  A    between atoms: C_18  and  O_20
REMARK    8  A    between atoms: O_20  and  P_21
REMARK    9  A    between atoms: P_21  and  O_22
REMARK   10  A    between atoms: P_21  and  O_24
REMARK   11  A    between atoms: O_24  and  P_25
REMARK   12  A    between atoms: P_25  and  O_26
REMARK   13  A    between atoms: P_25  and  O_28
REMARK   14  A    between atoms: O_28  and  C_29
REMARK   15  A    between atoms: C_29  and  C_30
REMARK   16  A    between atoms: C_33  and  N_41
REMARK   17  A    between atoms: C_35  and  O_37
REMARK   18  A    between atoms: C_38  and  O_40
REMARK                            x       y       z     vdW  Elec       q    Type
REMARK                         _______ _______ _______ _____ _____    ______ ____
ROOT
ATOM      1  O   UNL     1       7.907  -0.202  -8.010  0.00  0.00    -0.186 OA
ENDROOT
BRANCH   1   2
ATOM      2  P   UNL     1       6.464  -0.704  -7.199  0.00  0.00    +0.483 P 
ATOM      3  O   UNL     1       5.270  -0.581  -8.141  0.00  0.00    -0.227 OA
BRANCH   2   4
ATOM      4  O   UNL     1       6.700  -2.317  -7.779  0.00  0.00    -0.302 OA
ATOM      5  H   UNL     1       6.041  -2.907  -7.364  0.00  0.00    +0.222 HD
ENDBRANCH   2   4
BRANCH   2   6
ATOM      6  O   UNL     1       6.227   0.909  -6.620  0.00  0.00    -0.284 OA
BRANCH   6   7
ATOM      7  C   UNL     1       6.650   1.244  -5.291  0.00  0.00    +0.206 C 
BRANCH   7   8
ATOM      8  C   UNL     1       5.845   0.640  -4.098  0.00  0.00    +0.178 C 
ATOM      9  C   UNL     1       6.120  -0.830  -3.801  0.00  0.00    +0.178 C 
ATOM     10  C   UNL     1       7.344  -0.813  -2.897  0.00  0.00    +0.195 C 
ATOM     11  C   UNL     1       7.394   0.629  -2.341  0.00  0.00    +0.255 C 
ATOM     12  O   UNL     1       6.202   1.285  -2.831  0.00  0.00    -0.346 OA
BRANCH  11  13
ATOM     13  N   UNL     1       7.558   0.687  -0.882  0.00  0.00    -0.271 N 
ATOM     14  C   UNL     1       8.700   0.063  -0.377  0.00  0.00    +0.331 A 
ATOM     15  O   UNL     1       9.509  -0.542  -1.082  0.00  0.00    -0.246 OA
ATOM     16  N   UNL     1       8.883   0.145   0.978  0.00  0.00    -0.275 N 
ATOM     17  H   UNL     1       9.688  -0.326   1.359  0.00  0.00    +0.173 HD
ATOM     18  C   UNL     1       8.093   0.816   1.861  0.00  0.00    +0.254 A 
ATOM     19  O   UNL     1       8.303   0.857   3.067  0.00  0.00    -0.268 OA
ATOM     20  C   UNL     1       6.938   1.515   1.262  0.00  0.00    +0.088 A 
ATOM     21  C   UNL     1       6.729   1.424  -0.056  0.00  0.00    +0.098 A 
ENDBRANCH  11  13
BRANCH  10  22
ATOM     22  O   UNL     1       8.516  -1.095  -3.666  0.00  0.00    -0.385 OA
ATOM     23  H   UNL     1       9.258  -1.104  -3.018  0.00  0.00    +0.210 HD
ENDBRANCH  10  22
BRANCH   9  24
ATOM     24  O   UNL     1       5.009  -1.407  -3.102  0.00  0.00    -0.386 OA
ATOM     25  H   UNL     1       4.738  -0.796  -2.391  0.00  0.00    +0.210 HD
ENDBRANCH   9  24
ENDBRANCH   7   8
ENDBRANCH   6   7
ENDBRANCH   2   6
ENDBRANCH   1   2
BRANCH   1  26
ATOM     26  P   UNL     1       7.617  -0.275  -9.714  0.00  0.00    +0.486 P 
ATOM     27  O   UNL     1       7.573   1.245  -9.881  0.00  0.00    -0.227 OA
BRANCH  26  28
ATOM     28  O   UNL     1       7.327  -0.348 -11.418  0.00  0.00    -0.302 OA
ATOM     29  H   UNL     1       7.103   0.601 -11.543  0.00  0.00    +0.222 HD
ENDBRANCH  26  28
BRANCH  26  30
ATOM     30  O   UNL     1       9.132  -0.833 -10.022  0.00  0.00    -0.254 OA
BRANCH  30  32
ATOM     31  C   UNL     1      10.544   0.539 -11.560  0.00  0.00    +0.160 C 
ATOM     32  C   UNL     1      10.245   0.042 -10.095  0.00  0.00    +0.285 C 
ATOM     33  O   UNL     1      10.224   0.983  -9.043  0.00  0.00    -0.341 OA
ATOM     34  C   UNL     1      11.175   2.042  -9.024  0.00  0.00    +0.178 C 
ATOM     35  C   UNL     1      11.331   2.717 -10.390  0.00  0.00    +0.176 C 
ATOM     36  C   UNL     1      11.542   1.717 -11.547  0.00  0.00    +0.171 C 
BRANCH  31  39
ATOM     37  C   UNL     1       7.716   1.499 -14.052  0.00  0.00    +0.109 C 
ATOM     38  C   UNL     1       8.860   1.731 -13.094  0.00  0.00    +0.210 C 
ATOM     39  N   UNL     1       9.425   0.617 -12.538  0.00  0.00    -0.305 N 
ATOM     40  H   UNL     1       8.937  -0.263 -12.701  0.00  0.00    +0.149 HD
ATOM     41  O   UNL     1       9.224   2.873 -12.828  0.00  0.00    -0.276 OA
ENDBRANCH  31  39
BRANCH  36  42
ATOM     42  O   UNL     1      12.897   1.216 -11.507  0.00  0.00    -0.387 OA
ATOM     43  H   UNL     1      12.952   0.441 -10.924  0.00  0.00    +0.210 HD
ENDBRANCH  36  42
BRANCH  35  44
ATOM     44  O   UNL     1      10.198   3.571 -10.559  0.00  0.00    -0.387 OA
ATOM     45  H   UNL     1       9.707   3.316 -11.369  0.00  0.00    +0.210 HD
ENDBRANCH  35  44
BRANCH  34  46
ATOM     46  C   UNL     1      12.526   1.678  -8.380  0.00  0.00    +0.190 C 
BRANCH  46  47
ATOM     47  O   UNL     1      12.378   1.088  -7.089  0.00  0.00    -0.392 OA
ATOM     48  H   UNL     1      11.860   1.705  -6.544  0.00  0.00    +0.210 HD
ENDBRANCH  46  47
ENDBRANCH  34  46
ENDBRANCH  30  32
ENDBRANCH  26  30
ENDBRANCH   1  26
TORSDOF 17
