REMARK  Name = 
REMARK  6 active torsions:
REMARK  status: ('A' for Active; 'I' for Inactive)
REMARK    1  A    between atoms: O_1  and  C_2
REMARK    2  A    between atoms: C_2  and  C_4
REMARK    3  A    between atoms: N_6  and  C_7
REMARK    4  A    between atoms: N_6  and  C_16
REMARK    5  A    between atoms: C_12  and  C_13
REMARK    6  A    between atoms: C_13  and  O_14
REMARK                            x       y       z     vdW  Elec       q    Type
REMARK                         _______ _______ _______ _____ _____    ______ ____
ROOT
ATOM      1  C   UNL     1       3.079   0.847  -0.769  0.00  0.00    +0.332 C 
ATOM      2  N   UNL     1       4.479   0.903  -0.816  0.00  0.00    -0.230 N 
ATOM      3  O   UNL     1       2.429   0.212   0.064  0.00  0.00    -0.262 OA
ENDROOT
BRANCH   2   4
ATOM      4  C   UNL     1       5.205   1.824  -1.632  0.00  0.00    +0.050 A 
ATOM      5  C   UNL     1       4.991   3.228  -1.545  0.00  0.00    +0.004 A 
ATOM      6  C   UNL     1       4.228   3.851  -0.529  0.00  0.00    +0.010 A 
ATOM      7  C   UNL     1       3.992   5.227  -0.527  0.00  0.00    +0.001 A 
ATOM      8  C   UNL     1       4.538   6.021  -1.525  0.00  0.00    +0.001 A 
ATOM      9  C   UNL     1       5.351   5.447  -2.501  0.00  0.00    +0.008 A 
ATOM     10  C   UNL     1       5.599   4.065  -2.514  0.00  0.00    -0.016 A 
ATOM     11  C   UNL     1       6.441   3.510  -3.491  0.00  0.00    +0.008 A 
ATOM     12  C   UNL     1       6.699   2.142  -3.522  0.00  0.00    +0.002 A 
ATOM     13  C   UNL     1       6.087   1.303  -2.596  0.00  0.00    +0.024 A 
ENDBRANCH   2   4
BRANCH   2  14
ATOM     14  C   UNL     1       5.245  -0.066  -0.098  0.00  0.00    +0.056 A 
ATOM     15  C   UNL     1       5.087  -1.467  -0.263  0.00  0.00    +0.081 A 
ATOM     16  C   UNL     1       5.812  -2.324   0.589  0.00  0.00    +0.017 A 
ATOM     17  C   UNL     1       6.660  -1.814   1.578  0.00  0.00    +0.001 A 
ATOM     18  C   UNL     1       6.832  -0.442   1.710  0.00  0.00    +0.002 A 
ATOM     19  C   UNL     1       6.139   0.426   0.873  0.00  0.00    +0.025 A 
BRANCH  15  20
ATOM     20  C   UNL     1       4.283  -2.007  -1.417  0.00  0.00    +0.339 C 
ATOM     21  O   UNL     1       3.800  -1.297  -2.290  0.00  0.00    -0.245 OA
BRANCH  20  22
ATOM     22  O   UNL     1       4.155  -3.346  -1.499  0.00  0.00    -0.477 OA
ATOM     23  H   UNL     1       4.447  -3.892  -0.752  0.00  0.00    +0.295 HD
ENDBRANCH  20  22
ENDBRANCH  15  20
ENDBRANCH   2  14
BRANCH   1  24
ATOM     24  C   UNL     1       2.320   1.501  -1.941  0.00  0.00    +0.393 C 
ATOM     25  O   UNL     1       1.761   2.576  -1.856  0.00  0.00    -0.240 OA
BRANCH  24  26
ATOM     26  O   UNL     1       2.308   0.705  -3.031  0.00  0.00    -0.474 OA
ATOM     27  H   UNL     1       2.787  -0.148  -2.870  0.00  0.00    +0.296 HD
ENDBRANCH  24  26
ENDBRANCH   1  24
TORSDOF 6
