REMARK  Name = 
REMARK  4 active torsions:
REMARK  status: ('A' for Active; 'I' for Inactive)
REMARK    1  A    between atoms: O_1  and  C_2
REMARK    2  A    between atoms: C_2  and  C_16
REMARK    3  A    between atoms: C_3  and  C_4
REMARK    4  A    between atoms: C_4  and  C_6
REMARK                            x       y       z     vdW  Elec       q    Type
REMARK                         _______ _______ _______ _____ _____    ______ ____
ROOT
ATOM      1  C   UNL     1       4.791   0.889   0.851  0.00  0.00    +0.192 C 
ATOM      2  O   UNL     1       5.368  -0.159   0.594  0.00  0.00    -0.287 OA
ENDROOT
BRANCH   1   3
ATOM      3  C   UNL     1       5.441   1.940   1.627  0.00  0.00    +0.047 A 
ATOM      4  C   UNL     1       5.323   3.374   1.619  0.00  0.00    +0.012 A 
ATOM      5  C   UNL     1       6.272   3.871   2.521  0.00  0.00    +0.047 A 
ATOM      6  C   UNL     1       6.485   5.237   2.743  0.00  0.00    +0.027 A 
ATOM      7  C   UNL     1       5.700   6.140   2.026  0.00  0.00    +0.022 A 
ATOM      8  C   UNL     1       4.744   5.684   1.126  0.00  0.00    +0.042 A 
ATOM      9 CL   UNL     1       3.793   6.827   0.256  0.00  0.00    -0.084 Cl
ATOM     10  N   UNL     1       6.920   2.795   3.075  0.00  0.00    -0.360 N 
ATOM     11  H   UNL     1       7.667   2.856   3.753  0.00  0.00    +0.165 HD
ATOM     12  C   UNL     1       4.546   4.315   0.906  0.00  0.00    +0.030 A 
ATOM     13  C   UNL     1       6.442   1.638   2.537  0.00  0.00    +0.095 A 
ENDBRANCH   1   3
BRANCH   1  15
ATOM     14  C   UNL     1       2.722   0.402  -0.427  0.00  0.00    +0.168 C 
ATOM     15  C   UNL     1       3.363   1.126   0.508  0.00  0.00    +0.100 C 
BRANCH  14  16
ATOM     16  C   UNL     1       3.325  -0.595  -1.259  0.00  0.00    +0.238 A 
ATOM     17  N   UNL     1       3.320  -1.911  -0.869  0.00  0.00    -0.105 NA
ATOM     18  N   UNL     1       4.003  -2.578  -1.791  0.00  0.00    -0.048 NA
ATOM     19  N   UNL     1       4.377  -1.641  -2.672  0.00  0.00    -0.176 N 
ATOM     20  H   UNL     1       4.942  -1.872  -3.484  0.00  0.00    +0.214 HD
ATOM     21  N   UNL     1       3.961  -0.390  -2.424  0.00  0.00    -0.130 NA
ENDBRANCH  14  16
BRANCH  14  22
ATOM     22  O   UNL     1       1.373   0.593  -0.695  0.00  0.00    -0.503 OA
ATOM     23  H   UNL     1       0.998   1.218  -0.055  0.00  0.00    +0.292 HD
ENDBRANCH  14  22
ENDBRANCH   1  15
TORSDOF 4
