REMARK  Name = 
REMARK  11 active torsions:
REMARK  status: ('A' for Active; 'I' for Inactive)
REMARK    1  A    between atoms: C_1  and  C_2
REMARK    2  A    between atoms: C_4  and  O_5
REMARK    3  A    between atoms: O_5  and  C_6
REMARK    4  A    between atoms: C_6  and  C_7
REMARK    5  A    between atoms: C_7  and  O_8
REMARK    6  A    between atoms: C_11  and  C_12
REMARK    7  A    between atoms: C_13  and  C_14
REMARK    8  A    between atoms: C_14  and  C_15
REMARK    9  A    between atoms: C_18  and  O_19
REMARK   10  A    between atoms: C_20  and  C_21
REMARK   11  A    between atoms: C_21  and  C_22
REMARK                            x       y       z     vdW  Elec       q    Type
REMARK                         _______ _______ _______ _____ _____    ______ ____
ROOT
ATOM      1  C   UNL     1       2.463  -2.506   0.198  0.00  0.00    +0.070 C 
ENDROOT
BRANCH   1   4
ATOM      2  C   UNL     1       3.131  -1.494  -2.581  0.00  0.00    +0.044 C 
ATOM      3  C   UNL     1       3.847  -0.997  -1.345  0.00  0.00    -0.043 A 
ATOM      4  C   UNL     1       3.427  -1.330  -0.036  0.00  0.00    -0.037 A 
ATOM      5  C   UNL     1       3.981  -0.595   1.043  0.00  0.00    -0.043 A 
ATOM      6  C   UNL     1       3.553  -0.826   2.469  0.00  0.00    +0.044 C 
ATOM      7  C   UNL     1       4.990   0.367   0.803  0.00  0.00    +0.049 A 
ATOM      8  C   UNL     1       5.490   0.557  -0.482  0.00  0.00    +0.122 A 
ATOM      9  C   UNL     1       4.946  -0.144  -1.542  0.00  0.00    +0.049 A 
BRANCH   8  10
ATOM     10  O   UNL     1       6.548   1.381  -0.764  0.00  0.00    -0.481 OA
BRANCH  10  11
ATOM     11  C   UNL     1       6.254   2.750  -0.459  0.00  0.00    +0.349 C 
BRANCH  11  12
ATOM     12  C   UNL     1       7.181   3.654  -1.262  0.00  0.00    +0.343 C 
ATOM     13  O   UNL     1       7.217   4.872  -1.148  0.00  0.00    -0.247 OA
BRANCH  12  14
ATOM     14  O   UNL     1       7.961   2.984  -2.149  0.00  0.00    -0.478 OA
ATOM     15  H   UNL     1       7.786   2.022  -2.077  0.00  0.00    +0.295 HD
ENDBRANCH  12  14
ENDBRANCH  11  12
ENDBRANCH  10  11
ENDBRANCH   8  10
ENDBRANCH   1   4
BRANCH   1  16
ATOM     16  C   UNL     1       0.991  -2.291  -0.083  0.00  0.00    -0.043 A 
ATOM     17  C   UNL     1       0.397  -1.040   0.103  0.00  0.00    +0.011 A 
ATOM     18  C   UNL     1      -0.883  -0.735  -0.370  0.00  0.00    -0.001 A 
ATOM     19  C   UNL     1      -1.672  -1.824  -0.771  0.00  0.00    +0.120 A 
ATOM     20  C   UNL     1      -1.156  -3.119  -0.838  0.00  0.00    +0.046 A 
ATOM     21  C   UNL     1       0.186  -3.342  -0.532  0.00  0.00    +0.007 A 
BRANCH  19  22
ATOM     22  O   UNL     1      -2.990  -1.612  -1.080  0.00  0.00    -0.506 OA
ATOM     23  H   UNL     1      -3.443  -2.470  -1.124  0.00  0.00    +0.292 HD
ENDBRANCH  19  22
BRANCH  18  24
ATOM     24  C   UNL     1      -1.458   0.672  -0.398  0.00  0.00    +0.074 C 
BRANCH  24  25
ATOM     25  C   UNL     1      -0.601   1.917  -0.645  0.00  0.00    -0.043 A 
ATOM     26  C   UNL     1       0.610   2.204   0.001  0.00  0.00    +0.004 A 
ATOM     27  C   UNL     1       1.234   3.450  -0.108  0.00  0.00    +0.000 A 
ATOM     28  C   UNL     1       0.644   4.462  -0.851  0.00  0.00    +0.000 A 
ATOM     29  C   UNL     1      -0.544   4.207  -1.524  0.00  0.00    +0.000 A 
ATOM     30  C   UNL     1      -1.155   2.950  -1.429  0.00  0.00    +0.004 A 
ENDBRANCH  24  25
ENDBRANCH  18  24
ENDBRANCH   1  16
TORSDOF 9
