REMARK  Name = 
REMARK  7 active torsions:
REMARK  status: ('A' for Active; 'I' for Inactive)
REMARK    1  A    between atoms: C_1  and  O_2
REMARK    2  A    between atoms: O_2  and  C_3
REMARK    3  A    between atoms: C_9  and  C_10
REMARK    4  A    between atoms: C_10  and  O_11
REMARK    5  A    between atoms: O_11  and  C_12
REMARK    6  A    between atoms: C_18  and  C_19
REMARK    7  A    between atoms: N_20  and  C_21
REMARK                            x       y       z     vdW  Elec       q    Type
REMARK                         _______ _______ _______ _____ _____    ______ ____
ROOT
ATOM      1  C   UNL     1       2.998   1.016  -0.506  0.00  0.00    +0.171 C 
ATOM      2  C   UNL     1       2.238   2.332  -0.426  0.00  0.00    +0.230 C 
ATOM      3  O   UNL     1       1.052   2.410  -0.135  0.00  0.00    -0.283 OA
ATOM      4  C   UNL     1       3.050   3.510  -0.703  0.00  0.00    +0.061 A 
ATOM      5  C   UNL     1       2.714   4.895  -0.597  0.00  0.00    +0.022 A 
ATOM      6  C   UNL     1       3.838   5.614  -0.996  0.00  0.00    +0.023 A 
ATOM      7  N   UNL     1       4.827   4.706  -1.324  0.00  0.00    -0.344 N 
ATOM      8  C   UNL     1       6.164   5.019  -1.791  0.00  0.00    +0.149 C 
ATOM      9  C   UNL     1       4.034   7.090  -1.087  0.00  0.00    +0.064 C 
ATOM     10  C   UNL     1       4.361   3.429  -1.125  0.00  0.00    +0.101 A 
ATOM     11  C   UNL     1       5.059   2.183  -1.295  0.00  0.00    +0.207 C 
ATOM     12  O   UNL     1       6.210   2.063  -1.697  0.00  0.00    -0.286 OA
ATOM     13  C   UNL     1       4.280   0.977  -0.913  0.00  0.00    +0.102 C 
ENDROOT
BRANCH   1  15
ATOM     14  C   UNL     1       1.095  -0.215   0.336  0.00  0.00    +0.277 C 
ATOM     15  O   UNL     1       2.427  -0.211  -0.162  0.00  0.00    -0.491 OA
ENDBRANCH   1  15
BRANCH   5  16
ATOM     16  C   UNL     1       1.392   5.438  -0.126  0.00  0.00    +0.267 C 
BRANCH  16  17
ATOM     17  O   UNL     1       0.485   5.577  -1.219  0.00  0.00    -0.487 OA
BRANCH  17  18
ATOM     18  C   UNL     1      -0.793   5.964  -0.918  0.00  0.00    +0.121 A 
ATOM     19  C   UNL     1      -1.639   6.092  -2.022  0.00  0.00    +0.045 A 
ATOM     20  C   UNL     1      -2.967   6.491  -1.860  0.00  0.00    +0.004 A 
ATOM     21  C   UNL     1      -3.460   6.763  -0.587  0.00  0.00    +0.000 A 
ATOM     22  C   UNL     1      -2.625   6.630   0.521  0.00  0.00    +0.004 A 
ATOM     23  C   UNL     1      -1.294   6.232   0.358  0.00  0.00    +0.045 A 
ENDBRANCH  17  18
ENDBRANCH  16  17
ENDBRANCH   5  16
TORSDOF 4
