REMARK  Name = 
REMARK  5 active torsions:
REMARK  status: ('A' for Active; 'I' for Inactive)
REMARK    1  A    between atoms: CG2_1  and  CB_2
REMARK    2  A    between atoms: CB_2  and  CA_4
REMARK    3  A    between atoms: CA_4  and  N_6
REMARK    4  A    between atoms: CA_4  and  C_7
REMARK    5  A    between atoms: C_7  and  O_8
REMARK                            x       y       z     vdW  Elec       q    Type
REMARK                         _______ _______ _______ _____ _____    ______ ____
ROOT
ATOM      1  CA  THR A   1       3.280  -0.524  -1.116  0.00  0.00    +0.227 C 
ENDROOT
BRANCH   1   3
ATOM      2  CG2 THR A   1       2.885  -3.002  -0.418  0.00  0.00    +0.088 C 
ATOM      3  CB  THR A   1       2.664  -1.893  -1.413  0.00  0.00    +0.158 C 
ATOM      4  OG1 THR A   1       1.899  -2.055  -2.370  0.00  0.00    -0.295 OA
ENDBRANCH   1   3
BRANCH   1   5
ATOM      5  N   THR A   1       3.076   0.391  -2.297  0.00  0.00    -0.312 NA
ATOM      6  H1  THR A   1       2.142   0.174  -2.673  0.00  0.00    +0.119 HD
ATOM      7  H2  THR A   1       3.002   1.350  -1.942  0.00  0.00    +0.119 HD
ENDBRANCH   1   5
BRANCH   1   8
ATOM      8  C   THR A   1       4.776  -0.605  -0.851  0.00  0.00    +0.329 C 
ATOM      9  OXT THR A   1       5.285  -0.973   0.197  0.00  0.00    -0.249 OA
BRANCH   8  10
ATOM     10  O   THR A   1       5.501  -0.241  -1.943  0.00  0.00    -0.479 OA
ATOM     11  H   THR A   1       4.846   0.047  -2.631  0.00  0.00    +0.295 HD
ENDBRANCH   8  10
ENDBRANCH   1   8
TORSDOF 4
