REMARK  Name = 
REMARK  7 active torsions:
REMARK  status: ('A' for Active; 'I' for Inactive)
REMARK    1  A    between atoms: O_1  and  P_2
REMARK    2  A    between atoms: P_2  and  O_4
REMARK    3  A    between atoms: P_2  and  O_12
REMARK    4  A    between atoms: O_4  and  C_5
REMARK    5  A    between atoms: C_5  and  C_6
REMARK    6  A    between atoms: O_12  and  C_13
REMARK    7  A    between atoms: C_14  and  C_15
REMARK                            x       y       z     vdW  Elec       q    Type
REMARK                         _______ _______ _______ _____ _____    ______ ____
ROOT
ATOM      1  P   UNL     1       2.795   0.067   0.036  0.00  0.00    +0.531 P 
ATOM      2  O   UNL     1       2.778  -0.477   1.463  0.00  0.00    -0.215 OA
ENDROOT
BRANCH   1   3
ATOM      3  O   UNL     1       1.065   0.067   0.036  0.00  0.00    -0.293 OA
ATOM      4  H   UNL     1       0.703   0.691  -0.620  0.00  0.00    +0.223 HD
ENDBRANCH   1   3
BRANCH   1   5
ATOM      5  O   UNL     1       4.525   0.067   0.036  0.00  0.00    -0.403 OA
BRANCH   5   6
ATOM      6  C   UNL     1       5.199   1.104  -0.557  0.00  0.00    +0.142 A 
ATOM      7  C   UNL     1       4.659   1.806  -1.637  0.00  0.00    +0.047 A 
ATOM      8  C   UNL     1       5.358   2.879  -2.196  0.00  0.00    +0.004 A 
ATOM      9  C   UNL     1       6.602   3.248  -1.686  0.00  0.00    +0.001 A 
ATOM     10  C   UNL     1       7.163   2.529  -0.633  0.00  0.00    +0.015 A 
ATOM     11  C   UNL     1       6.468   1.445  -0.074  0.00  0.00    +0.056 A 
BRANCH  11  12
ATOM     12  C   UNL     1       7.110   0.679   1.016  0.00  0.00    +0.262 C 
ATOM     13  O   UNL     1       8.209   0.984   1.458  0.00  0.00    -0.296 OA
ENDBRANCH  11  12
ENDBRANCH   5   6
ENDBRANCH   1   5
BRANCH   1  14
ATOM     14  O   UNL     1       2.786  -1.192  -1.042  0.00  0.00    -0.272 OA
BRANCH  14  15
ATOM     15  C   UNL     1       1.614  -1.993  -1.259  0.00  0.00    +0.208 C 
BRANCH  15  16
ATOM     16  C   UNL     1       0.620  -1.274  -2.167  0.00  0.00    -0.021 A 
ATOM     17  C   UNL     1      -0.766  -1.371  -1.940  0.00  0.00    +0.006 A 
ATOM     18  C   UNL     1      -1.658  -0.551  -2.641  0.00  0.00    +0.000 A 
ATOM     19  C   UNL     1      -1.179   0.365  -3.575  0.00  0.00    +0.000 A 
ATOM     20  C   UNL     1       0.187   0.443  -3.835  0.00  0.00    +0.000 A 
ATOM     21  C   UNL     1       1.080  -0.386  -3.150  0.00  0.00    +0.006 A 
ENDBRANCH  15  16
ENDBRANCH  14  15
ENDBRANCH   1  14
TORSDOF 7
