REMARK  Name = 
REMARK  3 active torsions:
REMARK  status: ('A' for Active; 'I' for Inactive)
REMARK    1  A    between atoms: C_1  and  N_2
REMARK    2  A    between atoms: C_8  and  S_12
REMARK    3  A    between atoms: S_12  and  N_13
REMARK                            x       y       z     vdW  Elec       q    Type
REMARK                         _______ _______ _______ _____ _____    ______ ____
ROOT
ATOM      1  C   UNL     1       0.950  -0.135   0.092  0.00  0.00    +0.158 C 
ATOM      2  N   UNL     1       2.387   0.012   0.060  0.00  0.00    -0.311 N 
ATOM      3  C   UNL     1       3.295  -1.037   0.084  0.00  0.00    +0.060 A 
ATOM      4  C   UNL     1       4.644  -0.644   0.103  0.00  0.00    +0.056 A 
ATOM      5  C   UNL     1       5.703  -1.540   0.123  0.00  0.00    +0.043 A 
ATOM      6  C   UNL     1       5.388  -2.898   0.135  0.00  0.00    +0.106 A 
ATOM      7  C   UNL     1       4.051  -3.330   0.105  0.00  0.00    +0.030 A 
ATOM      8  C   UNL     1       4.769   0.819   0.105  0.00  0.00    +0.242 A 
ATOM      9  O   UNL     1       5.810   1.450   0.124  0.00  0.00    -0.278 OA
ATOM     10  C   UNL     1       3.003  -2.397   0.085  0.00  0.00    +0.029 A 
ATOM     11  S   UNL     1       3.139   1.509   0.091  0.00  0.00    +0.032 S 
ENDROOT
BRANCH   6  12
ATOM     12  S   UNL     1       6.696  -4.089   0.141  0.00  0.00    +0.056 S 
ATOM     13  O   UNL     1       7.885  -3.486  -0.412  0.00  0.00    -0.153 OA
ATOM     14  O   UNL     1       6.181  -5.358  -0.317  0.00  0.00    -0.153 OA
BRANCH  12  15
ATOM     15  N   UNL     1       6.980  -4.267   1.785  0.00  0.00    -0.204 NA
ATOM     16  H   UNL     1       7.922  -3.946   2.013  0.00  0.00    +0.144 HD
ATOM     17  H   UNL     1       6.795  -5.230   2.068  0.00  0.00    +0.144 HD
ENDBRANCH  12  15
ENDBRANCH   6  12
TORSDOF 2
