REMARK  Name = 
REMARK  7 active torsions:
REMARK  status: ('A' for Active; 'I' for Inactive)
REMARK    1  A    between atoms: O_1  and  C_2
REMARK    2  A    between atoms: C_2  and  C_3
REMARK    3  A    between atoms: C_6  and  N_16
REMARK    4  A    between atoms: C_9  and  O_11
REMARK    5  A    between atoms: O_11  and  P_12
REMARK    6  A    between atoms: P_12  and  O_13
REMARK    7  A    between atoms: P_12  and  O_14
REMARK                            x       y       z     vdW  Elec       q    Type
REMARK                         _______ _______ _______ _____ _____    ______ ____
ROOT
ATOM      1  C   UNL     1       2.951  -1.020  -0.961  0.00  0.00    +0.175 C 
ATOM      2  C   UNL     1       2.169  -2.341  -0.975  0.00  0.00    +0.165 C 
ATOM      3  C   UNL     1       3.234  -3.408  -1.182  0.00  0.00    +0.089 C 
ATOM      4  C   UNL     1       4.471  -2.622  -1.581  0.00  0.00    +0.226 C 
ATOM      5  O   UNL     1       4.348  -1.350  -0.939  0.00  0.00    -0.348 OA
ENDROOT
BRANCH   4   6
ATOM      6  N   UNL     1       5.714  -3.275  -1.199  0.00  0.00    -0.274 N 
ATOM      7  C   UNL     1       6.235  -4.212  -2.082  0.00  0.00    +0.331 A 
ATOM      8  O   UNL     1       5.694  -4.530  -3.141  0.00  0.00    -0.246 OA
ATOM      9  N   UNL     1       7.420  -4.784  -1.709  0.00  0.00    -0.275 N 
ATOM     10  H   UNL     1       7.837  -5.437  -2.357  0.00  0.00    +0.173 HD
ATOM     11  C   UNL     1       8.112  -4.524  -0.562  0.00  0.00    +0.254 A 
ATOM     12  O   UNL     1       9.200  -5.032  -0.302  0.00  0.00    -0.268 OA
ATOM     13  C   UNL     1       7.471  -3.584   0.371  0.00  0.00    +0.088 A 
ATOM     14  C   UNL     1       6.317  -3.012   0.014  0.00  0.00    +0.098 A 
ENDBRANCH   4   6
BRANCH   1  15
ATOM     15  C   UNL     1       2.645  -0.110   0.225  0.00  0.00    +0.190 C 
BRANCH  15  16
ATOM     16  O   UNL     1       1.283   0.291   0.236  0.00  0.00    -0.392 OA
ATOM     17  H   UNL     1       1.256   1.230  -0.023  0.00  0.00    +0.210 HD
ENDBRANCH  15  16
ENDBRANCH   1  15
BRANCH   2  18
ATOM     18  O   UNL     1       1.274  -2.329  -2.076  0.00  0.00    -0.281 OA
BRANCH  18  19
ATOM     19  P   UNL     1       0.211  -3.517  -2.230  0.00  0.00    +0.473 P 
ATOM     20  O   UNL     1       0.464  -4.750  -1.437  0.00  0.00    -0.228 OA
BRANCH  19  21
ATOM     21  O   UNL     1       0.191  -3.718  -3.814  0.00  0.00    -0.303 OA
ATOM     22  H   UNL     1       1.017  -4.114  -4.141  0.00  0.00    +0.222 HD
ENDBRANCH  19  21
BRANCH  19  23
ATOM     23  O   UNL     1      -1.187  -2.800  -1.945  0.00  0.00    -0.303 OA
ATOM     24  H   UNL     1      -1.361  -2.700  -0.993  0.00  0.00    +0.222 HD
ENDBRANCH  19  23
ENDBRANCH  18  19
ENDBRANCH   2  18
TORSDOF 7
