REMARK  Name = 
REMARK  11 active torsions:
REMARK  status: ('A' for Active; 'I' for Inactive)
REMARK    1  A    between atoms: C_1  and  C_2
REMARK    2  A    between atoms: N_4  and  C_5
REMARK    3  A    between atoms: C_7  and  N_26
REMARK    4  A    between atoms: C_10  and  C_23
REMARK    5  A    between atoms: C_13  and  C_15
REMARK    6  A    between atoms: C_15  and  O_17
REMARK    7  A    between atoms: C_15  and  C_18
REMARK    8  A    between atoms: C_18  and  O_20
REMARK    9  A    between atoms: C_18  and  C_21
REMARK   10  A    between atoms: C_21  and  O_22
REMARK   11  A    between atoms: C_23  and  O_24
REMARK                            x       y       z     vdW  Elec       q    Type
REMARK                         _______ _______ _______ _____ _____    ______ ____
ROOT
ATOM      1  C   UNL     1       4.482   0.676  -0.840  0.00  0.00    +0.141 C 
ATOM      2  C   UNL     1       5.160  -0.716  -0.873  0.00  0.00    +0.174 C 
ATOM      3  O   UNL     1       5.041  -1.408   0.386  0.00  0.00    -0.357 OA
ATOM      4  C   UNL     1       5.540  -0.659   1.516  0.00  0.00    +0.230 C 
ATOM      5  C   UNL     1       5.146   0.829   1.597  0.00  0.00    +0.085 C 
ATOM      6  C   UNL     1       5.179   1.538   0.245  0.00  0.00    +0.170 C 
ENDROOT
BRANCH   6   7
ATOM      7  N   UNL     1       6.579   1.821  -0.081  0.00  0.00    -0.271 N 
ATOM      8  H   UNL     1       7.275   1.322   0.476  0.00  0.00    +0.258 HD
ATOM      9  C   UNL     1       7.069   2.435  -1.172  0.00  0.00    +0.376 C 
ATOM     10  N   UNL     1       6.459   3.256  -1.941  0.00  0.00    -0.130 NA
ATOM     11  H   UNL     1       5.535   3.450  -1.555  0.00  0.00    +0.306 HD
ATOM     12  N   UNL     1       8.333   2.064  -1.440  0.00  0.00    -0.289 N 
ATOM     13  H   UNL     1       8.754   2.685  -2.124  0.00  0.00    +0.255 HD
ATOM     14  H   UNL     1       8.937   1.935  -0.638  0.00  0.00    +0.255 HD
ENDBRANCH   6   7
BRANCH   1  17
ATOM     15  C   UNL     1       0.728   0.354  -0.001  0.00  0.00    +0.109 C 
ATOM     16  C   UNL     1       2.199   0.114   0.217  0.00  0.00    +0.210 C 
ATOM     17  N   UNL     1       3.000   0.691  -0.745  0.00  0.00    -0.307 N 
ATOM     18  H   UNL     1       2.519   0.917  -1.609  0.00  0.00    +0.149 HD
ATOM     19  O   UNL     1       2.597  -0.536   1.178  0.00  0.00    -0.276 OA
ENDBRANCH   1  17
BRANCH   4  20
ATOM     20  C   UNL     1       7.058  -0.848   1.624  0.00  0.00    +0.334 C 
ATOM     21  O   UNL     1       7.883   0.060   1.627  0.00  0.00    -0.248 OA
BRANCH  20  22
ATOM     22  O   UNL     1       7.419  -2.152   1.662  0.00  0.00    -0.479 OA
ATOM     23  H   UNL     1       6.647  -2.748   1.614  0.00  0.00    +0.295 HD
ENDBRANCH  20  22
ENDBRANCH   4  20
BRANCH   2  24
ATOM     24  C   UNL     1       4.664  -1.596  -2.054  0.00  0.00    +0.176 C 
BRANCH  24  25
ATOM     25  O   UNL     1       3.279  -1.921  -1.911  0.00  0.00    -0.387 OA
ATOM     26  H   UNL     1       3.193  -2.416  -1.072  0.00  0.00    +0.210 HD
ENDBRANCH  24  25
BRANCH  24  27
ATOM     27  C   UNL     1       5.488  -2.896  -2.209  0.00  0.00    +0.171 C 
BRANCH  27  28
ATOM     28  O   UNL     1       5.347  -3.746  -1.061  0.00  0.00    -0.387 OA
ATOM     29  H   UNL     1       5.288  -3.164  -0.280  0.00  0.00    +0.210 HD
ENDBRANCH  27  28
BRANCH  27  30
ATOM     30  C   UNL     1       5.064  -3.685  -3.462  0.00  0.00    +0.189 C 
BRANCH  30  31
ATOM     31  O   UNL     1       5.914  -4.808  -3.705  0.00  0.00    -0.392 OA
ATOM     32  H   UNL     1       6.563  -4.856  -2.981  0.00  0.00    +0.210 HD
ENDBRANCH  30  31
ENDBRANCH  27  30
ENDBRANCH  24  27
ENDBRANCH   2  24
TORSDOF 10
