REMARK  Name = 
REMARK  16 active torsions:
REMARK  status: ('A' for Active; 'I' for Inactive)
REMARK    1  A    between atoms: C_2  and  C_4
REMARK    2  A    between atoms: C_9  and  C_11
REMARK    3  A    between atoms: C_14  and  C_16
REMARK    4  A    between atoms: C_16  and  O_17
REMARK    5  A    between atoms: O_17  and  P_18
REMARK    6  A    between atoms: P_18  and  O_21
REMARK    7  A    between atoms: O_21  and  P_22
REMARK    8  A    between atoms: P_22  and  O_23
REMARK    9  A    between atoms: P_22  and  O_25
REMARK   10  A    between atoms: O_25  and  C_26
REMARK   11  A    between atoms: C_26  and  C_27
REMARK   12  A    between atoms: C_30  and  N_38
REMARK   13  A    between atoms: C_32  and  O_34
REMARK   14  A    between atoms: C_35  and  O_37
REMARK   15  A    between atoms: C_48  and  O_50
REMARK   16  A    between atoms: C_51  and  O_53
REMARK                            x       y       z     vdW  Elec       q    Type
REMARK                         _______ _______ _______ _____ _____    ______ ____
ROOT
ATOM      1  O   UNL     1      13.313 -15.436  -4.720  0.00  0.00    -0.229 OA
ENDROOT
BRANCH   1   2
ATOM      2  P   UNL     1      14.186 -16.730  -4.468  0.00  0.00    +0.222 P 
ATOM      3  O   UNL     1      14.837 -16.544  -3.117  0.00  0.00    -0.437 OA
ATOM      4  O   UNL     1      13.404 -17.981  -4.769  0.00  0.00    -0.517 OA
BRANCH   2   5
ATOM      5  O   UNL     1      15.439 -16.702  -5.553  0.00  0.00    -0.324 OA
BRANCH   5   6
ATOM      6  C   UNL     1      16.354 -17.749  -5.192  0.00  0.00    +0.202 C 
BRANCH   6  10
ATOM      7  C   UNL     1      19.640 -19.081  -6.006  0.00  0.00    +0.185 C 
ATOM      8  C   UNL     1      19.944 -17.581  -6.151  0.00  0.00    +0.179 C 
ATOM      9  C   UNL     1      18.573 -16.903  -6.307  0.00  0.00    +0.177 C 
ATOM     10  C   UNL     1      17.561 -18.023  -6.081  0.00  0.00    +0.176 C 
ATOM     11  O   UNL     1      18.314 -19.101  -5.452  0.00  0.00    -0.361 OA
BRANCH   7  14
ATOM     12  C   UNL     1      19.873 -20.398  -9.588  0.00  0.00    +0.100 A 
ATOM     13  C   UNL     1      20.165 -19.642  -8.454  0.00  0.00    +0.031 A 
ATOM     14  C   UNL     1      19.552 -19.958  -7.239  0.00  0.00    +0.048 A 
ATOM     15  C   UNL     1      18.755 -21.110  -7.189  0.00  0.00    +0.313 A 
ATOM     16  N   UNL     1      18.518 -21.833  -8.289  0.00  0.00    -0.216 N 
ATOM     17  H   UNL     1      17.902 -22.641  -8.212  0.00  0.00    +0.452 HD
ATOM     18  C   UNL     1      19.050 -21.513  -9.481  0.00  0.00    +0.320 A 
BRANCH  12  22
ATOM     19  N   UNL     1      20.710 -18.757 -11.165  0.00  0.00    -0.325 N 
ATOM     20  H   UNL     1      20.484 -17.984 -10.550  0.00  0.00    +0.145 HD
ATOM     21  H   UNL     1      20.973 -18.514 -12.112  0.00  0.00    +0.145 HD
ATOM     22  C   UNL     1      20.379 -20.059 -10.929  0.00  0.00    +0.247 C 
ATOM     23  O   UNL     1      20.434 -20.921 -11.790  0.00  0.00    -0.270 OA
ENDBRANCH  12  22
ENDBRANCH   7  14
BRANCH   9  24
ATOM     24  O   UNL     1      18.457 -16.418  -7.651  0.00  0.00    -0.386 OA
ATOM     25  H   UNL     1      17.637 -15.885  -7.665  0.00  0.00    +0.210 HD
ENDBRANCH   9  24
BRANCH   8  26
ATOM     26  O   UNL     1      20.612 -17.117  -4.969  0.00  0.00    -0.386 OA
ATOM     27  H   UNL     1      19.991 -17.179  -4.220  0.00  0.00    +0.210 HD
ENDBRANCH   8  26
ENDBRANCH   6  10
ENDBRANCH   5   6
ENDBRANCH   2   5
ENDBRANCH   1   2
BRANCH   1  28
ATOM     28  P   UNL     1      12.682 -14.525  -5.816  0.00  0.00    +0.480 P 
ATOM     29  O   UNL     1      11.887 -15.114  -6.939  0.00  0.00    -0.227 OA
BRANCH  28  30
ATOM     30  O   UNL     1      13.953 -13.754  -6.435  0.00  0.00    -0.302 OA
ATOM     31  H   UNL     1      13.962 -13.922  -7.393  0.00  0.00    +0.222 HD
ENDBRANCH  28  30
BRANCH  28  32
ATOM     32  O   UNL     1      11.897 -13.313  -5.049  0.00  0.00    -0.284 OA
BRANCH  32  33
ATOM     33  C   UNL     1      11.833 -12.079  -5.757  0.00  0.00    +0.206 C 
BRANCH  33  34
ATOM     34  C   UNL     1      10.942 -10.966  -5.176  0.00  0.00    +0.178 C 
ATOM     35  C   UNL     1       9.441 -11.239  -5.159  0.00  0.00    +0.178 C 
ATOM     36  C   UNL     1       9.080 -11.461  -3.693  0.00  0.00    +0.195 C 
ATOM     37  C   UNL     1      10.422 -11.349  -2.959  0.00  0.00    +0.253 C 
ATOM     38  O   UNL     1      11.311 -10.626  -3.828  0.00  0.00    -0.346 OA
BRANCH  37  39
ATOM     39  N   UNL     1      10.303 -10.650  -1.690  0.00  0.00    -0.286 N 
ATOM     40  C   UNL     1       9.568 -11.094  -0.624  0.00  0.00    +0.167 A 
ATOM     41  N   UNL     1       8.828 -12.214  -0.552  0.00  0.00    -0.216 NA
ATOM     42  C   UNL     1       8.285 -12.343   0.678  0.00  0.00    +0.225 A 
ATOM     43  N   UNL     1       8.384 -11.505   1.735  0.00  0.00    -0.219 NA
ATOM     44  C   UNL     1       9.111 -10.372   1.592  0.00  0.00    +0.147 A 
ATOM     45  N   UNL     1       9.213  -9.512   2.681  0.00  0.00    -0.341 N 
ATOM     46  H   UNL     1      10.032  -8.915   2.631  0.00  0.00    +0.144 HD
ATOM     47  H   UNL     1       9.047  -9.997   3.553  0.00  0.00    +0.144 HD
ATOM     48  C   UNL     1       9.754 -10.141   0.364  0.00  0.00    +0.147 A 
ATOM     49  N   UNL     1      10.581  -9.131  -0.083  0.00  0.00    -0.231 NA
ATOM     50  C   UNL     1      10.897  -9.474  -1.315  0.00  0.00    +0.203 A 
ENDBRANCH  37  39
BRANCH  36  51
ATOM     51  O   UNL     1       8.454 -12.731  -3.509  0.00  0.00    -0.385 OA
ATOM     52  H   UNL     1       8.326 -12.852  -2.545  0.00  0.00    +0.210 HD
ENDBRANCH  36  51
BRANCH  35  53
ATOM     53  O   UNL     1       8.753 -10.061  -5.634  0.00  0.00    -0.386 OA
ATOM     54  H   UNL     1       9.025  -9.299  -5.089  0.00  0.00    +0.210 HD
ENDBRANCH  35  53
ENDBRANCH  33  34
ENDBRANCH  32  33
ENDBRANCH  28  32
ENDBRANCH   1  28
TORSDOF 16
