REMARK  Name = 
REMARK  13 active torsions:
REMARK  status: ('A' for Active; 'I' for Inactive)
REMARK    1  A    between atoms: C_1  and  C_2
REMARK    2  A    between atoms: C_2  and  C_3
REMARK    3  A    between atoms: C_3  and  C_4
REMARK    4  A    between atoms: C_4  and  N_5
REMARK    5  A    between atoms: C_6  and  C_7
REMARK    6  A    between atoms: C_7  and  C_8
REMARK    7  A    between atoms: C_10  and  O_11
REMARK    8  A    between atoms: O_11  and  C_12
REMARK    9  A    between atoms: C_13  and  O_14
REMARK   10  A    between atoms: O_14  and  C_15
REMARK   11  A    between atoms: C_16  and  O_17
REMARK   12  A    between atoms: O_17  and  C_18
REMARK   13  A    between atoms: C_23  and  N_24
REMARK                            x       y       z     vdW  Elec       q    Type
REMARK                         _______ _______ _______ _____ _____    ______ ____
ROOT
ATOM      1  N   UNL     1       4.745  -1.938  -2.054  0.00  0.00    -0.312 N 
ATOM      2  C   UNL     1       4.578  -3.301  -2.071  0.00  0.00    +0.166 A 
ATOM      3  C   UNL     1       5.183  -3.719  -3.240  0.00  0.00    +0.148 A 
ATOM      4  C   UNL     1       5.071  -5.084  -3.560  0.00  0.00    +0.147 A 
ATOM      5  N   UNL     1       4.482  -5.909  -2.665  0.00  0.00    -0.219 NA
ATOM      6  C   UNL     1       3.979  -5.369  -1.535  0.00  0.00    +0.225 A 
ATOM      7  N   UNL     1       5.804  -2.665  -3.863  0.00  0.00    -0.227 NA
ATOM      8  N   UNL     1       3.950  -4.072  -1.165  0.00  0.00    -0.216 NA
ATOM      9  C   UNL     1       5.562  -1.599  -3.111  0.00  0.00    +0.116 A 
ENDROOT
BRANCH   4  10
ATOM     10  N   UNL     1       5.539  -5.634  -4.746  0.00  0.00    -0.341 N 
ATOM     11  H   UNL     1       5.705  -6.629  -4.678  0.00  0.00    +0.144 HD
ATOM     12  H   UNL     1       6.231  -5.066  -5.221  0.00  0.00    +0.144 HD
ENDBRANCH   4  10
BRANCH   1  13
ATOM     13  C   UNL     1       4.150  -1.056  -1.059  0.00  0.00    +0.125 C 
BRANCH  13  14
ATOM     14  C   UNL     1       3.136  -0.051  -1.615  0.00  0.00    +0.021 C 
BRANCH  14  16
ATOM     15  C   UNL     1       1.017   0.362  -2.911  0.00  0.00    +0.004 C 
ATOM     16  C   UNL     1       1.990  -0.691  -2.402  0.00  0.00    -0.002 C 
ENDBRANCH  14  16
ENDBRANCH  13  14
ENDBRANCH   1  13
BRANCH   9  17
ATOM     17  C   UNL     1       6.148  -0.226  -3.342  0.00  0.00    +0.111 C 
BRANCH  17  18
ATOM     18  C   UNL     1       5.996   0.379  -4.737  0.00  0.00    -0.015 A 
ATOM     19  C   UNL     1       6.649   1.589  -5.079  0.00  0.00    +0.090 A 
ATOM     20 CL   UNL     1       7.524   2.413  -3.816  0.00  0.00    -0.079 Cl
ATOM     21  C   UNL     1       6.665   2.065  -6.416  0.00  0.00    +0.184 A 
ATOM     22  C   UNL     1       6.067   1.278  -7.426  0.00  0.00    +0.205 A 
ATOM     23  C   UNL     1       5.361   0.106  -7.077  0.00  0.00    +0.166 A 
ATOM     24  C   UNL     1       5.299  -0.300  -5.744  0.00  0.00    +0.055 A 
BRANCH  21  25
ATOM     25  O   UNL     1       7.383   3.168  -6.814  0.00  0.00    -0.490 OA
ATOM     26  C   UNL     1       7.163   4.382  -6.099  0.00  0.00    +0.277 C 
ENDBRANCH  21  25
BRANCH  22  27
ATOM     27  O   UNL     1       6.152   1.477  -8.785  0.00  0.00    -0.488 OA
ATOM     28  C   UNL     1       6.340   2.786  -9.289  0.00  0.00    +0.277 C 
ENDBRANCH  22  27
BRANCH  23  29
ATOM     29  O   UNL     1       4.806  -0.617  -8.109  0.00  0.00    -0.491 OA
ATOM     30  C   UNL     1       3.891  -1.652  -7.764  0.00  0.00    +0.277 C 
ENDBRANCH  23  29
ENDBRANCH  17  18
ENDBRANCH   9  17
TORSDOF 9
