REMARK  Name = 
REMARK  11 active torsions:
REMARK  status: ('A' for Active; 'I' for Inactive)
REMARK    1  A    between atoms: O_1  and  C_2
REMARK    2  A    between atoms: C_2  and  C_3
REMARK    3  A    between atoms: N_5  and  C_6
REMARK    4  A    between atoms: C_9  and  O_11
REMARK    5  A    between atoms: C_12  and  C_14
REMARK    6  A    between atoms: C_14  and  O_15
REMARK    7  A    between atoms: O_15  and  P_16
REMARK    8  A    between atoms: P_16  and  O_17
REMARK    9  A    between atoms: P_16  and  O_18
REMARK   10  A    between atoms: C_21  and  O_22
REMARK   11  A    between atoms: C_24  and  O_25
REMARK                            x       y       z     vdW  Elec       q    Type
REMARK                         _______ _______ _______ _____ _____    ______ ____
ROOT
ATOM      1  C   UNL     1       1.769  -4.238   0.376  0.00  0.00    +0.195 C 
ATOM      2  O   UNL     1       1.391  -4.526   1.736  0.00  0.00    -0.353 OA
ATOM      3  C   UNL     1       1.155  -5.951   1.843  0.00  0.00    +0.175 C 
ATOM      4  C   UNL     1       1.501  -6.567   0.484  0.00  0.00    +0.149 C 
ATOM      5  C   UNL     1       2.415  -5.524  -0.125  0.00  0.00    +0.082 C 
ENDROOT
BRANCH   1  11
ATOM      6  C   UNL     1       2.507  -0.528   0.493  0.00  0.00    +0.072 C 
ATOM      7  C   UNL     1       3.928  -0.652   1.041  0.00  0.00    +0.192 C 
ATOM      8  N   UNL     1       4.599  -1.858   0.601  0.00  0.00    -0.253 NA
ATOM      9  H   UNL     1       4.714  -1.820  -0.406  0.00  0.00    +0.128 HD
ATOM     10  C   UNL     1       3.859  -3.064   0.887  0.00  0.00    +0.264 C 
ATOM     11  N   UNL     1       2.557  -3.011   0.260  0.00  0.00    -0.239 NA
ATOM     12  C   UNL     1       1.772  -1.852   0.734  0.00  0.00    +0.100 C 
BRANCH   7  13
ATOM     13  O   UNL     1       3.915  -0.597   2.455  0.00  0.00    -0.377 OA
ATOM     14  H   UNL     1       4.202  -1.495   2.718  0.00  0.00    +0.211 HD
ENDBRANCH   7  13
BRANCH  10  15
ATOM     15  O   UNL     1       3.806  -3.271   2.273  0.00  0.00    -0.364 OA
ATOM     16  H   UNL     1       2.925  -3.659   2.422  0.00  0.00    +0.213 HD
ENDBRANCH  10  15
BRANCH   6  17
ATOM     17  C   UNL     1       2.511  -0.131  -0.989  0.00  0.00    +0.164 C 
BRANCH  17  18
ATOM     18  O   UNL     1       1.176   0.074  -1.443  0.00  0.00    -0.395 OA
ATOM     19  H   UNL     1       1.227   0.316  -2.384  0.00  0.00    +0.209 HD
ENDBRANCH  17  18
ENDBRANCH   6  17
ENDBRANCH   1  11
BRANCH   4  20
ATOM     20  O   UNL     1       2.154  -7.823   0.583  0.00  0.00    -0.389 OA
ATOM     21  H   UNL     1       2.931  -7.733   1.161  0.00  0.00    +0.210 HD
ENDBRANCH   4  20
BRANCH   3  22
ATOM     22  C   UNL     1      -0.292  -6.203   2.266  0.00  0.00    +0.206 C 
BRANCH  22  23
ATOM     23  O   UNL     1      -0.549  -7.592   2.471  0.00  0.00    -0.284 OA
BRANCH  23  24
ATOM     24  P   UNL     1      -2.190  -7.870   2.941  0.00  0.00    +0.472 P 
ATOM     25  O   UNL     1      -3.659  -8.119   3.362  0.00  0.00    -0.228 OA
BRANCH  24  26
ATOM     26  O   UNL     1      -1.743  -9.444   3.027  0.00  0.00    -0.303 OA
ATOM     27  H   UNL     1      -1.265  -9.633   3.853  0.00  0.00    +0.222 HD
ENDBRANCH  24  26
BRANCH  24  28
ATOM     28  O   UNL     1      -2.471  -7.929   1.329  0.00  0.00    -0.303 OA
ATOM     29  H   UNL     1      -2.288  -8.852   1.067  0.00  0.00    +0.222 HD
ENDBRANCH  24  28
ENDBRANCH  23  24
ENDBRANCH  22  23
ENDBRANCH   3  22
TORSDOF 11
