REMARK  Name = 
REMARK  5 active torsions:
REMARK  status: ('A' for Active; 'I' for Inactive)
REMARK    1  A    between atoms: N_1  and  CA_2
REMARK    2  A    between atoms: CA_2  and  C_4
REMARK    3  A    between atoms: CA_2  and  C_9
REMARK    4  A    between atoms: C_4  and  C_5
REMARK    5  A    between atoms: C_9  and  O_10
REMARK                            x       y       z     vdW  Elec       q    Type
REMARK                         _______ _______ _______ _____ _____    ______ ____
ROOT
ATOM      1  CA  UNL     1       4.592  -0.322   3.799  0.00  0.00    +0.163 C 
ENDROOT
BRANCH   1   2
ATOM      2  N   UNL     1       5.545  -0.265   2.640  0.00  0.00    -0.318 NA
ATOM      3  H1  UNL     1       5.273  -0.960   1.941  0.00  0.00    +0.119 HD
ATOM      4  H2  UNL     1       5.389   0.630   2.163  0.00  0.00    +0.119 HD
ENDBRANCH   1   2
BRANCH   1   5
ATOM      5  C   UNL     1       5.140  -1.289   4.862  0.00  0.00    +0.322 C 
ATOM      6  OXT UNL     1       4.590  -1.569   5.914  0.00  0.00    -0.249 OA
BRANCH   5   7
ATOM      7  O   UNL     1       6.358  -1.773   4.500  0.00  0.00    -0.480 OA
ATOM      8  H   UNL     1       6.582  -1.322   3.649  0.00  0.00    +0.295 HD
ENDBRANCH   5   7
ENDBRANCH   1   5
BRANCH   1   9
ATOM      9  C   UNL     1       3.159  -0.680   3.386  0.00  0.00    +0.063 C 
BRANCH   9  10
ATOM     10  C   UNL     1       3.007  -2.061   2.809  0.00  0.00    +0.146 C 
ATOM     11  O   UNL     1       2.235  -2.959   3.612  0.00  0.00    -0.372 OA
ATOM     12  C   UNL     1       1.653  -2.554   2.367  0.00  0.00    +0.191 C 
ENDBRANCH   9  10
ENDBRANCH   1   9
TORSDOF 5
