REMARK  Name = 
REMARK  5 active torsions:
REMARK  status: ('A' for Active; 'I' for Inactive)
REMARK    1  A    between atoms: C_1  and  C_2
REMARK    2  A    between atoms: C_5  and  O_7
REMARK    3  A    between atoms: C_8  and  O_10
REMARK    4  A    between atoms: C_11  and  O_13
REMARK    5  A    between atoms: C_14  and  O_16
REMARK                            x       y       z     vdW  Elec       q    Type
REMARK                         _______ _______ _______ _____ _____    ______ ____
ROOT
ATOM      1  C   UNL     1       3.026   0.288   1.346  0.00  0.00    +0.041 C 
ATOM      2  C   UNL     1       2.500   0.073  -0.067  0.00  0.00    +0.149 C 
ATOM      3  C   UNL     1       2.999   1.154  -1.047  0.00  0.00    +0.174 C 
ATOM      4  C   UNL     1       2.540   0.824  -2.468  0.00  0.00    +0.179 C 
ATOM      5  C   UNL     1       2.891  -0.615  -2.849  0.00  0.00    +0.201 C 
ATOM      6  C   UNL     1       2.393  -1.576  -1.760  0.00  0.00    +0.279 C 
ATOM      7  O   UNL     1       2.900  -1.244  -0.481  0.00  0.00    -0.343 OA
ENDROOT
BRANCH   3   8
ATOM      8  O   UNL     1       4.429   1.243  -1.034  0.00  0.00    -0.387 OA
ATOM      9  H   UNL     1       4.657   1.781  -1.820  0.00  0.00    +0.210 HD
ENDBRANCH   3   8
BRANCH   4  10
ATOM     10  O   UNL     1       3.163   1.735  -3.391  0.00  0.00    -0.386 OA
ATOM     11  H   UNL     1       2.991   1.358  -4.278  0.00  0.00    +0.210 HD
ENDBRANCH   4  10
BRANCH   5  12
ATOM     12  O   UNL     1       2.275  -0.911  -4.116  0.00  0.00    -0.384 OA
ATOM     13  H   UNL     1       2.333  -1.885  -4.204  0.00  0.00    +0.210 HD
ENDBRANCH   5  12
BRANCH   6  14
ATOM     14  O   UNL     1       2.837  -2.886  -2.084  0.00  0.00    -0.365 OA
ATOM     15  H   UNL     1       2.797  -3.351  -1.230  0.00  0.00    +0.213 HD
ENDBRANCH   6  14
TORSDOF 4
