REMARK  Name = 
REMARK  1 active torsions:
REMARK  status: ('A' for Active; 'I' for Inactive)
REMARK    1  A    between atoms: C_1  and  N_2
REMARK                            x       y       z     vdW  Elec       q    Type
REMARK                         _______ _______ _______ _____ _____    ______ ____
ROOT
ATOM      1  C   UNL     1       1.142  -0.158   0.039  0.00  0.00    +0.155 C 
ATOM      2  N   UNL     1       2.576  -0.117   0.040  0.00  0.00    -0.281 N 
ATOM      3  C   UNL     1       3.436  -1.184   0.041  0.00  0.00    +0.148 A 
ATOM      4  N   UNL     1       3.152  -2.506   0.040  0.00  0.00    -0.292 N 
ATOM      5  H   UNL     1       2.197  -2.837   0.039  0.00  0.00    +0.172 HD
ATOM      6  C   UNL     1       4.144  -3.457   0.041  0.00  0.00    +0.328 A 
ATOM      7  N   UNL     1       5.437  -2.981   0.043  0.00  0.00    -0.273 N 
ATOM      8  H   UNL     1       6.174  -3.669   0.043  0.00  0.00    +0.173 HD
ATOM      9  C   UNL     1       5.816  -1.655   0.043  0.00  0.00    +0.280 A 
ATOM     10  O   UNL     1       6.982  -1.282   0.045  0.00  0.00    -0.265 OA
ATOM     11  O   UNL     1       3.892  -4.657   0.039  0.00  0.00    -0.247 OA
ATOM     12  C   UNL     1       4.688  -0.723   0.043  0.00  0.00    +0.150 A 
ATOM     13  N   UNL     1       4.685   0.640   0.043  0.00  0.00    -0.300 N 
ATOM     14  H   UNL     1       5.497   1.240   0.044  0.00  0.00    +0.171 HD
ATOM     15  C   UNL     1       3.347   1.077   0.042  0.00  0.00    +0.329 A 
ATOM     16  O   UNL     1       2.959   2.231   0.041  0.00  0.00    -0.247 OA
ENDROOT
TORSDOF 0
