REMARK  Name = 
REMARK  8 active torsions:
REMARK  status: ('A' for Active; 'I' for Inactive)
REMARK    1  A    between atoms: N_1  and  CA_2
REMARK    2  A    between atoms: CA_2  and  C_4
REMARK    3  A    between atoms: CA_2  and  C_9
REMARK    4  A    between atoms: C_4  and  C_5
REMARK    5  A    between atoms: C_5  and  C_6
REMARK    6  A    between atoms: C_6  and  C_7
REMARK    7  A    between atoms: C_7  and  O_8
REMARK    8  A    between atoms: C_9  and  O_10
REMARK                            x       y       z     vdW  Elec       q    Type
REMARK                         _______ _______ _______ _____ _____    ______ ____
ROOT
ATOM      1  CA  UNL     1       2.372   0.112  -0.167  0.00  0.00    +0.161 C 
ENDROOT
BRANCH   1   2
ATOM      2  N   UNL     1       0.877   0.183  -0.185  0.00  0.00    -0.318 NA
ATOM      3  H1  UNL     1       0.547  -0.192  -1.081  0.00  0.00    +0.119 HD
ATOM      4  H2  UNL     1       0.531  -0.492   0.505  0.00  0.00    +0.119 HD
ENDBRANCH   1   2
BRANCH   1   5
ATOM      5  C   UNL     1       2.924   1.445  -0.709  0.00  0.00    +0.322 C 
ATOM      6  OXT UNL     1       4.100   1.685  -0.932  0.00  0.00    -0.249 OA
BRANCH   5   7
ATOM      7  O   UNL     1       1.926   2.346  -0.901  0.00  0.00    -0.480 OA
ATOM      8  H   UNL     1       1.098   1.883  -0.613  0.00  0.00    +0.295 HD
ENDBRANCH   5   7
ENDBRANCH   1   5
BRANCH   1   9
ATOM      9  C   UNL     1       2.902  -1.053  -1.011  0.00  0.00    +0.030 C 
BRANCH   9  10
ATOM     10  C   UNL     1       2.437  -2.423  -0.509  0.00  0.00    +0.004 C 
BRANCH  10  11
ATOM     11  C   UNL     1       2.993  -3.552  -1.383  0.00  0.00    +0.028 C 
BRANCH  11  12
ATOM     12  C   UNL     1       2.519  -4.923  -0.913  0.00  0.00    +0.156 C 
BRANCH  12  13
ATOM     13  O   UNL     1       2.955  -5.175   0.415  0.00  0.00    -0.395 OA
ATOM     14  H   UNL     1       3.928  -5.167   0.409  0.00  0.00    +0.209 HD
ENDBRANCH  12  13
ENDBRANCH  11  12
ENDBRANCH  10  11
ENDBRANCH   9  10
ENDBRANCH   1   9
TORSDOF 8
