REMARK  Name = 
REMARK  2 active torsions:
REMARK  status: ('A' for Active; 'I' for Inactive)
REMARK    1  A    between atoms: O_1  and  C_2
REMARK    2  A    between atoms: C_2  and  C_3
REMARK                            x       y       z     vdW  Elec       q    Type
REMARK                         _______ _______ _______ _____ _____    ______ ____
ROOT
ATOM      1  C   UNL     1       2.875  -0.888  -1.122  0.00  0.00    -0.021 A 
ATOM      2  C   UNL     1       2.765  -2.282  -1.012  0.00  0.00    +0.020 A 
ATOM      3  C   UNL     1       3.025  -3.097  -2.116  0.00  0.00    +0.014 A 
ATOM      4  I   UNL     1       2.859  -5.163  -1.936  0.00  0.00    -0.044 I 
ATOM      5  C   UNL     1       3.394  -2.537  -3.339  0.00  0.00    +0.014 A 
ATOM      6  C   UNL     1       3.506  -1.153  -3.456  0.00  0.00    +0.001 A 
ATOM      7  C   UNL     1       3.248  -0.334  -2.356  0.00  0.00    +0.006 A 
ENDROOT
BRANCH   1   8
ATOM      8  C   UNL     1       2.569   0.002   0.051  0.00  0.00    +0.191 C 
BRANCH   8   9
ATOM      9  O   UNL     1       3.682   0.842   0.317  0.00  0.00    -0.390 OA
ATOM     10  H   UNL     1       3.454   1.368   1.100  0.00  0.00    +0.210 HD
ENDBRANCH   8   9
ENDBRANCH   1   8
TORSDOF 2
