REMARK  Name = 
REMARK  5 active torsions:
REMARK  status: ('A' for Active; 'I' for Inactive)
REMARK    1  A    between atoms: C_2  and  C_15
REMARK    2  A    between atoms: C_5  and  C_12
REMARK    3  A    between atoms: C_8  and  C_9
REMARK    4  A    between atoms: C_9  and  O_10
REMARK    5  A    between atoms: C_12  and  O_13
REMARK                            x       y       z     vdW  Elec       q    Type
REMARK                         _______ _______ _______ _____ _____    ______ ____
ROOT
ATOM      1  C   UNK     1       1.645   0.189   0.062  0.00  0.00    +0.135 C 
ATOM      2  C   UNK     1       2.118   1.604  -0.040  0.00  0.00    +0.073 C 
ATOM      3  C   UNK     1       2.867   2.332   0.822  0.00  0.00    +0.123 C 
ATOM      4  N   UNK     1       3.444   2.080   2.049  0.00  0.00    -0.251 NA
ATOM      5  C   UNK     1       3.916   0.912   2.382  0.00  0.00    +0.134 C 
ATOM      6  C   UNK     1       3.792  -0.377   1.631  0.00  0.00    +0.132 C 
ATOM      7  S   UNK     1       2.015  -0.740   1.570  0.00  0.00    -0.140 S 
ENDROOT
BRANCH   1   8
ATOM      8  C   UNK     1       0.227  -0.115  -0.385  0.00  0.00    +0.078 A 
ATOM      9  N   UNK     1       0.178  -0.986  -1.454  0.00  0.00    -0.225 NA
ATOM     10  C   UNK     1      -1.017  -1.494  -1.340  0.00  0.00    +0.178 A 
ATOM     11  S   UNK     1      -1.526  -3.158  -1.322  0.00  0.00    -0.054 S 
ATOM     12  C   UNK     1      -3.032  -2.639  -0.562  0.00  0.00    +0.013 A 
ATOM     13  C   UNK     1      -4.333  -3.290  -0.858  0.00  0.00    +0.044 C 
ATOM     14  C   UNK     1      -4.906  -2.207  -1.754  0.00  0.00    +0.011 C 
ATOM     15  C   UNK     1      -4.442  -0.888  -1.081  0.00  0.00    +0.055 C 
ATOM     16  C   UNK     1      -3.127  -1.294  -0.436  0.00  0.00    +0.035 A 
ATOM     17  N   UNK     1      -1.895  -0.687  -0.678  0.00  0.00    -0.297 N 
ATOM     18  C   UNK     1      -1.065   0.149   0.080  0.00  0.00    +0.118 A 
ENDBRANCH   1   8
BRANCH   2  19
ATOM     19  C   UNK     1       1.956   2.294  -1.366  0.00  0.00    +0.336 C 
ATOM     20  O   UNK     1       2.406   3.411  -1.588  0.00  0.00    -0.245 OA
BRANCH  19  21
ATOM     21  O   UNK     1       1.361   1.620  -2.374  0.00  0.00    -0.477 OA
ATOM     22  H   UNK     1       0.996   0.717  -2.271  0.00  0.00    +0.295 HD
ENDBRANCH  19  21
ENDBRANCH   2  19
BRANCH   5  23
ATOM     23  C   UNK     1       4.706   0.843   3.702  0.00  0.00    +0.352 C 
ATOM     24  O   UNK     1       5.243  -0.168   4.103  0.00  0.00    -0.244 OA
BRANCH  23  25
ATOM     25  O   UNK     1       4.752   2.048   4.285  0.00  0.00    -0.476 OA
ATOM     26  H   UNK     1       4.251   2.697   3.727  0.00  0.00    +0.295 HD
ENDBRANCH  23  25
ENDBRANCH   5  23
TORSDOF 5
