REMARK  Name = 
REMARK  12 active torsions:
REMARK  status: ('A' for Active; 'I' for Inactive)
REMARK    1  A    between atoms: O_1  and  C_2
REMARK    2  A    between atoms: C_4  and  C_6
REMARK    3  A    between atoms: C_6  and  O_7
REMARK    4  A    between atoms: O_7  and  P_8
REMARK    5  A    between atoms: P_8  and  O_9
REMARK    6  A    between atoms: P_8  and  O_10
REMARK    7  A    between atoms: C_13  and  N_18
REMARK    8  A    between atoms: C_15  and  O_17
REMARK    9  A    between atoms: C_26  and  O_27
REMARK   10  A    between atoms: O_27  and  P_28
REMARK   11  A    between atoms: P_28  and  O_29
REMARK   12  A    between atoms: P_28  and  O_30
REMARK                            x       y       z     vdW  Elec       q    Type
REMARK                         _______ _______ _______ _____ _____    ______ ____
ROOT
ATOM      1  C   UNL     1       2.408  -0.032  -0.050  0.00  0.00    +0.178 C 
ATOM      2  C   UNL     1       2.934  -1.285   0.637  0.00  0.00    +0.195 C 
ATOM      3  C   UNL     1       4.110  -0.780   1.492  0.00  0.00    +0.253 C 
ATOM      4  O   UNL     1       4.136   0.668   1.398  0.00  0.00    -0.346 OA
ATOM      5  C   UNL     1       2.871   1.088   0.870  0.00  0.00    +0.178 C 
ENDROOT
BRANCH   3   6
ATOM      6  N   UNL     1       4.018  -1.169   2.892  0.00  0.00    -0.285 N 
ATOM      7  C   UNL     1       3.930  -2.455   3.360  0.00  0.00    +0.169 A 
ATOM      8  N   UNL     1       3.847  -3.593   2.646  0.00  0.00    -0.216 NA
ATOM      9  C   UNL     1       3.770  -4.671   3.462  0.00  0.00    +0.227 A 
ATOM     10  N   UNL     1       3.766  -4.701   4.812  0.00  0.00    -0.199 NA
ATOM     11  C   UNL     1       3.869  -3.523   5.461  0.00  0.00    +0.255 A 
ATOM     12  C   UNL     1       3.942  -2.333   4.741  0.00  0.00    +0.170 A 
ATOM     13  N   UNL     1       4.027  -1.014   5.117  0.00  0.00    -0.229 NA
ATOM     14  C   UNL     1       4.085  -0.346   3.986  0.00  0.00    +0.203 A 
BRANCH  11  15
ATOM     15  O   UNL     1       3.971  -3.521   6.823  0.00  0.00    -0.384 OA
BRANCH  15  16
ATOM     16  P   UNL     1       2.800  -4.149   7.702  0.00  0.00    +0.529 P 
ATOM     17  O   UNL     1       2.585  -5.625   7.681  0.00  0.00    -0.216 OA
BRANCH  16  18
ATOM     18  O   UNL     1       1.470  -3.356   7.286  0.00  0.00    -0.293 OA
ATOM     19  H   UNL     1       0.937  -3.908   6.684  0.00  0.00    +0.223 HD
ENDBRANCH  16  18
BRANCH  16  20
ATOM     20  O   UNL     1       3.029  -3.540   9.165  0.00  0.00    -0.293 OA
ATOM     21  H   UNL     1       2.929  -2.571   9.155  0.00  0.00    +0.223 HD
ENDBRANCH  16  20
ENDBRANCH  15  16
ENDBRANCH  11  15
ENDBRANCH   3   6
BRANCH   1  22
ATOM     22  O   UNL     1       0.990  -0.069  -0.157  0.00  0.00    -0.386 OA
ATOM     23  H   UNL     1       0.715   0.748  -0.618  0.00  0.00    +0.210 HD
ENDBRANCH   1  22
BRANCH   2  24
ATOM     24  O   UNL     1       3.383  -2.229  -0.344  0.00  0.00    -0.385 OA
ATOM     25  H   UNL     1       3.524  -3.076   0.121  0.00  0.00    +0.210 HD
ENDBRANCH   2  24
BRANCH   5  26
ATOM     26  C   UNL     1       3.015   2.428   0.155  0.00  0.00    +0.206 C 
BRANCH  26  27
ATOM     27  O   UNL     1       1.758   2.842  -0.358  0.00  0.00    -0.284 OA
BRANCH  27  28
ATOM     28  P   UNL     1       1.794   4.342  -1.218  0.00  0.00    +0.472 P 
ATOM     29  O   UNL     1       1.827   5.685  -1.988  0.00  0.00    -0.228 OA
BRANCH  28  30
ATOM     30  O   UNL     1       0.163   4.226  -1.237  0.00  0.00    -0.303 OA
ATOM     31  H   UNL     1      -0.249   4.979  -0.783  0.00  0.00    +0.222 HD
ENDBRANCH  28  30
BRANCH  28  32
ATOM     32  O   UNL     1       2.055   3.429  -2.553  0.00  0.00    -0.303 OA
ATOM     33  H   UNL     1       2.978   3.449  -2.851  0.00  0.00    +0.222 HD
ENDBRANCH  28  32
ENDBRANCH  27  28
ENDBRANCH  26  27
ENDBRANCH   5  26
TORSDOF 12
