REMARK  Name = 
REMARK  12 active torsions:
REMARK  status: ('A' for Active; 'I' for Inactive)
REMARK    1  A    between atoms: C_2  and  C_3
REMARK    2  A    between atoms: C_2  and  N_7
REMARK    3  A    between atoms: C_2  and  C_11
REMARK    4  A    between atoms: C_3  and  C_4
REMARK    5  A    between atoms: C_4  and  C_5
REMARK    6  A    between atoms: C_4  and  C_6
REMARK    7  A    between atoms: C_8  and  C_9
REMARK    8  A    between atoms: C_14  and  C_23
REMARK    9  A    between atoms: C_17  and  C_19
REMARK   10  A    between atoms: C_19  and  O_21
REMARK   11  A    between atoms: O_21  and  C_22
REMARK   12  A    between atoms: C_23  and  O_24
REMARK                            x       y       z     vdW  Elec       q    Type
REMARK                         _______ _______ _______ _____ _____    ______ ____
ROOT
ATOM      1  C   UNL     1       2.472  -1.393   1.015  0.00  0.00    +0.153 C 
ATOM      2  C   UNL     1       1.350  -1.043   1.994  0.00  0.00    +0.131 C 
ATOM      3  C   UNL     1       0.510   0.028   1.320  0.00  0.00    +0.060 C 
ATOM      4  C   UNL     1       1.155   0.245  -0.029  0.00  0.00    +0.227 C 
ATOM      5  O   UNL     1       2.029  -0.869  -0.258  0.00  0.00    -0.360 OA
ENDROOT
BRANCH   2   6
ATOM      6  C   UNL     1       0.551  -2.295   2.253  0.00  0.00    +0.313 C 
ATOM      7  O   UNL     1      -0.334  -2.720   1.521  0.00  0.00    -0.250 OA
BRANCH   6   8
ATOM      8  O   UNL     1       0.969  -2.890   3.402  0.00  0.00    -0.468 OA
ATOM      9  C   UNL     1       0.298  -4.116   3.695  0.00  0.00    +0.280 C 
ENDBRANCH   6   8
ENDBRANCH   2   6
BRANCH   4  10
ATOM     10  C   UNL     1       0.152   0.368  -1.172  0.00  0.00    +0.334 C 
ATOM     11  O   UNL     1      -0.742   1.198  -1.223  0.00  0.00    -0.248 OA
BRANCH  10  12
ATOM     12  O   UNL     1       0.393  -0.529  -2.162  0.00  0.00    -0.479 OA
ATOM     13  H   UNL     1       1.147  -1.101  -1.886  0.00  0.00    +0.295 HD
ENDBRANCH  10  12
ENDBRANCH   4  10
BRANCH   1  14
ATOM     14  C   UNL     1       3.858  -0.795   1.421  0.00  0.00    +0.103 C 
BRANCH  14  15
ATOM     15  N   UNL     1       4.242  -1.126   2.804  0.00  0.00    -0.310 N 
ATOM     16  H   UNL     1       4.615  -0.379   3.378  0.00  0.00    +0.149 HD
ATOM     17  C   UNL     1       4.403  -2.418   3.263  0.00  0.00    +0.210 C 
ATOM     18  O   UNL     1       4.206  -3.414   2.576  0.00  0.00    -0.276 OA
ATOM     19  C   UNL     1       4.858  -2.508   4.698  0.00  0.00    +0.109 C 
ENDBRANCH  14  15
BRANCH  14  20
ATOM     20  C   UNL     1       5.017  -1.163   0.455  0.00  0.00    +0.028 C 
BRANCH  20  21
ATOM     21  C   UNL     1       4.852  -0.768  -1.026  0.00  0.00    -0.015 C 
ATOM     22  C   UNL     1       6.038  -1.271  -1.852  0.00  0.00    +0.007 C 
ATOM     23  C   UNL     1       4.706   0.741  -1.217  0.00  0.00    +0.007 C 
ENDBRANCH  20  21
ENDBRANCH  14  20
ENDBRANCH   1  14
TORSDOF 8
