REMARK  Name = 
REMARK  4 active torsions:
REMARK  status: ('A' for Active; 'I' for Inactive)
REMARK    1  A    between atoms: C_1  and  C_2
REMARK    2  A    between atoms: C_2  and  O_4
REMARK    3  A    between atoms: C_2  and  C_5
REMARK    4  A    between atoms: C_5  and  N_6
REMARK                            x       y       z     vdW  Elec       q    Type
REMARK                         _______ _______ _______ _____ _____    ______ ____
ROOT
ATOM      1  N   UNL     1       4.578   0.941  -0.979  0.00  0.00    -0.312 N 
ATOM      2  C   UNL     1       5.437  -0.123  -1.009  0.00  0.00    +0.165 A 
ATOM      3  N   UNL     1       5.130  -1.428  -1.091  0.00  0.00    -0.216 NA
ATOM      4  C   UNL     1       6.248  -2.183  -1.083  0.00  0.00    +0.225 A 
ATOM      5  N   UNL     1       7.535  -1.779  -1.000  0.00  0.00    -0.219 NA
ATOM      6  C   UNL     1       7.786  -0.453  -0.901  0.00  0.00    +0.147 A 
ATOM      7  N   UNL     1       9.109  -0.041  -0.803  0.00  0.00    -0.341 N 
ATOM      8  H   UNL     1       9.248   0.923  -1.084  0.00  0.00    +0.144 HD
ATOM      9  H   UNL     1       9.749  -0.735  -1.167  0.00  0.00    +0.144 HD
ATOM     10  C   UNL     1       6.700   0.438  -0.918  0.00  0.00    +0.147 A 
ATOM     11  N   UNL     1       6.622   1.817  -0.868  0.00  0.00    -0.231 NA
ATOM     12  C   UNL     1       5.333   2.081  -0.911  0.00  0.00    +0.201 A 
ENDROOT
BRANCH   1  13
ATOM     13  C   UNL     1       3.137   0.879  -1.028  0.00  0.00    +0.155 C 
BRANCH  13  15
ATOM     14  C   UNL     1       2.779   0.790   1.495  0.00  0.00    +0.039 C 
ATOM     15  C   UNL     1       2.489   0.138   0.148  0.00  0.00    +0.131 C 
BRANCH  15  16
ATOM     16  O   UNL     1       1.072   0.140  -0.056  0.00  0.00    -0.390 OA
ATOM     17  H   UNL     1       0.693  -0.525   0.546  0.00  0.00    +0.210 HD
ENDBRANCH  15  16
ENDBRANCH  13  15
ENDBRANCH   1  13
TORSDOF 3
