REMARK  Name = 
REMARK  5 active torsions:
REMARK  status: ('A' for Active; 'I' for Inactive)
REMARK    1  A    between atoms: C_2  and  C_8
REMARK    2  A    between atoms: C_11  and  O_12
REMARK    3  A    between atoms: O_12  and  C_13
REMARK    4  A    between atoms: C_14  and  O_15
REMARK    5  A    between atoms: O_15  and  C_16
REMARK                            x       y       z     vdW  Elec       q    Type
REMARK                         _______ _______ _______ _____ _____    ______ ____
ROOT
ATOM      1  C   UNL     1       2.531   0.121  -1.514  0.00  0.00    -0.039 A 
ATOM      2  C   UNL     1       2.684  -1.056  -2.272  0.00  0.00    +0.053 A 
ATOM      3  C   UNL     1       2.893  -1.010  -3.658  0.00  0.00    +0.163 A 
ATOM      4  C   UNL     1       3.001   0.234  -4.304  0.00  0.00    +0.162 A 
ATOM      5  C   UNL     1       2.871   1.404  -3.553  0.00  0.00    +0.049 A 
ATOM      6  C   UNL     1       2.626   1.348  -2.177  0.00  0.00    +0.008 A 
ENDROOT
BRANCH   1   7
ATOM      7  C   UNL     1       2.215  -0.002  -0.027  0.00  0.00    +0.045 C 
ATOM      8  C   UNL     1       2.499   1.240   0.836  0.00  0.00    +0.105 C 
ATOM      9  C   UNL     1       1.191   1.994   0.787  0.00  0.00    +0.214 C 
ATOM     10  O   UNL     1       1.016   3.160   1.092  0.00  0.00    -0.276 OA
ATOM     11  N   UNL     1       0.208   1.120   0.376  0.00  0.00    -0.315 N 
ATOM     12  H   UNL     1      -0.762   1.405   0.329  0.00  0.00    +0.149 HD
ATOM     13  C   UNL     1       0.712  -0.209   0.190  0.00  0.00    +0.112 C 
ENDBRANCH   1   7
BRANCH   4  14
ATOM     14  O   UNL     1       3.211   0.205  -5.660  0.00  0.00    -0.491 OA
ATOM     15  C   UNL     1       3.272   1.454  -6.337  0.00  0.00    +0.277 C 
ENDBRANCH   4  14
BRANCH   3  16
ATOM     16  O   UNL     1       3.037  -2.127  -4.444  0.00  0.00    -0.485 OA
BRANCH  16  17
ATOM     17  C   UNL     1       2.378  -3.318  -4.029  0.00  0.00    +0.174 C 
ATOM     18  C   UNL     1       3.337  -4.284  -3.328  0.00  0.00    +0.044 C 
ATOM     19  C   UNL     1       2.889  -5.692  -3.724  0.00  0.00    +0.004 C 
ATOM     20  C   UNL     1       1.733  -5.509  -4.701  0.00  0.00    +0.004 C 
ATOM     21  C   UNL     1       1.936  -4.111  -5.258  0.00  0.00    +0.044 C 
ENDBRANCH  16  17
ENDBRANCH   3  16
TORSDOF 4
