REMARK  Name = 
REMARK  7 active torsions:
REMARK  status: ('A' for Active; 'I' for Inactive)
REMARK    1  A    between atoms: C_1  and  C_2
REMARK    2  A    between atoms: N_4  and  C_5
REMARK    3  A    between atoms: C_7  and  O_9
REMARK    4  A    between atoms: C_11  and  C_13
REMARK    5  A    between atoms: C_13  and  O_14
REMARK    6  A    between atoms: C_15  and  O_17
REMARK    7  A    between atoms: C_18  and  O_20
REMARK                            x       y       z     vdW  Elec       q    Type
REMARK                         _______ _______ _______ _____ _____    ______ ____
ROOT
ATOM      1  C   UNL     1       4.715   0.926   0.878  0.00  0.00    +0.160 C 
ATOM      2  C   UNL     1       5.173   1.993   1.885  0.00  0.00    +0.171 C 
ATOM      3  C   UNL     1       4.928   3.409   1.345  0.00  0.00    +0.176 C 
ATOM      4  C   UNL     1       5.513   3.599  -0.066  0.00  0.00    +0.178 C 
ATOM      5  O   UNL     1       5.101   2.547  -0.954  0.00  0.00    -0.341 OA
ATOM      6  C   UNL     1       5.351   1.214  -0.504  0.00  0.00    +0.270 C 
ENDROOT
BRANCH   1   9
ATOM      7  C   UNL     1       1.048   0.143   1.511  0.00  0.00    +0.109 C 
ATOM      8  C   UNL     1       2.534   0.102   1.725  0.00  0.00    +0.210 C 
ATOM      9  N   UNL     1       3.253   0.831   0.803  0.00  0.00    -0.305 N 
ATOM     10  H   UNL     1       2.757   1.411   0.135  0.00  0.00    +0.149 HD
ATOM     11  O   UNL     1       3.053  -0.515   2.648  0.00  0.00    -0.276 OA
ENDBRANCH   1   9
BRANCH   2  12
ATOM     12  O   UNL     1       6.577   1.828   2.154  0.00  0.00    -0.387 OA
ATOM     13  H   UNL     1       6.799   2.561   2.767  0.00  0.00    +0.210 HD
ENDBRANCH   2  12
BRANCH   3  14
ATOM     14  O   UNL     1       5.458   4.356   2.278  0.00  0.00    -0.387 OA
ATOM     15  H   UNL     1       5.241   5.249   1.951  0.00  0.00    +0.210 HD
ENDBRANCH   3  14
BRANCH   6  16
ATOM     16  O   UNL     1       6.737   0.913  -0.547  0.00  0.00    -0.365 OA
ATOM     17  H   UNL     1       7.068   0.950   0.373  0.00  0.00    +0.213 HD
ENDBRANCH   6  16
BRANCH   4  18
ATOM     18  C   UNL     1       7.031   3.866  -0.103  0.00  0.00    +0.190 C 
BRANCH  18  19
ATOM     19  O   UNL     1       7.442   4.188  -1.432  0.00  0.00    -0.392 OA
ATOM     20  H   UNL     1       7.308   3.373  -1.952  0.00  0.00    +0.210 HD
ENDBRANCH  18  19
ENDBRANCH   4  18
TORSDOF 6
