REMARK  Name = 
REMARK  33 active torsions:
REMARK  status: ('A' for Active; 'I' for Inactive)
REMARK    1  A    between atoms: C_1  and  C_2
REMARK    2  A    between atoms: C_5  and  O_7
REMARK    3  A    between atoms: O_7  and  C_8
REMARK    4  A    between atoms: C_10  and  C_12
REMARK    5  A    between atoms: C_12  and  O_13
REMARK    6  A    between atoms: C_15  and  O_17
REMARK    7  A    between atoms: O_17  and  C_18
REMARK    8  A    between atoms: C_20  and  O_22
REMARK    9  A    between atoms: C_23  and  O_25
REMARK   10  A    between atoms: C_26  and  N_28
REMARK   11  A    between atoms: N_28  and  C_29
REMARK   12  A    between atoms: C_31  and  C_33
REMARK   13  A    between atoms: C_35  and  O_37
REMARK   14  A    between atoms: O_37  and  C_38
REMARK   15  A    between atoms: C_40  and  C_42
REMARK   16  A    between atoms: C_42  and  O_43
REMARK   17  A    between atoms: C_45  and  O_47
REMARK   18  A    between atoms: O_47  and  C_48
REMARK   19  A    between atoms: C_50  and  C_52
REMARK   20  A    between atoms: C_54  and  O_56
REMARK   21  A    between atoms: C_57  and  O_59
REMARK   22  A    between atoms: C_60  and  O_62
REMARK   23  A    between atoms: C_63  and  O_65
REMARK   24  A    between atoms: C_66  and  O_68
REMARK   25  A    between atoms: C_69  and  O_71
REMARK   26  A    between atoms: C_72  and  O_74
REMARK   27  A    between atoms: C_76  and  C_77
REMARK   28  A    between atoms: C_77  and  O_78
REMARK   29  A    between atoms: C_79  and  O_81
REMARK   30  A    between atoms: C_82  and  O_84
REMARK   31  A    between atoms: C_85  and  O_87
REMARK   32  A    between atoms: C_88  and  O_90
REMARK   33  A    between atoms: C_91  and  O_93
REMARK                            x       y       z     vdW  Elec       q    Type
REMARK                         _______ _______ _______ _____ _____    ______ ____
ROOT
ATOM      1  C   UNL     1      -9.200  -1.441   1.582  0.00  0.00    +0.180 C 
ATOM      2  C   UNL     1      -7.966  -1.911   0.859  0.00  0.00    -0.016 C 
ATOM      3  C   UNL     1      -7.199  -2.908   1.336  0.00  0.00    -0.002 C 
ATOM      4  C   UNL     1      -7.428  -3.667   2.617  0.00  0.00    +0.109 C 
ATOM      5  C   UNL     1      -8.577  -3.107   3.495  0.00  0.00    +0.166 C 
ATOM      6  C   UNL     1      -9.691  -2.408   2.693  0.00  0.00    +0.178 C 
ENDROOT
BRANCH   6   7
ATOM      7  O   UNL     1     -10.604  -1.787   3.619  0.00  0.00    -0.386 OA
ATOM      8  H   UNL     1     -10.919  -0.961   3.207  0.00  0.00    +0.210 HD
ENDBRANCH   6   7
BRANCH   5   9
ATOM      9  O   UNL     1      -9.187  -4.206   4.219  0.00  0.00    -0.387 OA
ATOM     10  H   UNL     1     -10.020  -3.849   4.585  0.00  0.00    +0.210 HD
ENDBRANCH   5   9
BRANCH   4  11
ATOM     11  N   UNL     1      -6.123  -3.706   3.315  0.00  0.00    -0.300 NA
ATOM     12  H   UNL     1      -5.454  -4.105   2.645  0.00  0.00    +0.123 HD
BRANCH  11  13
ATOM     13  C   UNL     1      -6.050  -4.579   4.526  0.00  0.00    +0.114 C 
ATOM     14  C   UNL     1      -4.602  -4.466   5.080  0.00  0.00    +0.167 C 
ATOM     15  C   UNL     1      -3.588  -5.089   4.099  0.00  0.00    +0.200 C 
ATOM     16  C   UNL     1      -4.034  -6.502   3.638  0.00  0.00    +0.282 C 
ATOM     17  O   UNL     1      -5.408  -6.585   3.268  0.00  0.00    -0.344 OA
ATOM     18  C   UNL     1      -6.353  -6.065   4.215  0.00  0.00    +0.138 C 
ATOM     19  C   UNL     1      -6.531  -6.944   5.457  0.00  0.00    +0.039 C 
BRANCH  15  20
ATOM     20  O   UNL     1      -3.425  -4.245   2.938  0.00  0.00    -0.384 OA
ATOM     21  H   UNL     1      -3.555  -3.318   3.210  0.00  0.00    +0.210 HD
ENDBRANCH  15  20
BRANCH  14  22
ATOM     22  O   UNL     1      -4.490  -5.047   6.382  0.00  0.00    -0.387 OA
ATOM     23  H   UNL     1      -3.587  -4.888   6.711  0.00  0.00    +0.210 HD
ENDBRANCH  14  22
BRANCH  16  24
ATOM     24  O   UNL     1      -3.688  -7.489   4.603  0.00  0.00    -0.340 OA
BRANCH  24  25
ATOM     25  C   UNL     1      -4.072  -8.842   4.269  0.00  0.00    +0.183 C 
ATOM     26  C   UNL     1      -3.558  -9.698   5.448  0.00  0.00    +0.179 C 
ATOM     27  C   UNL     1      -2.011  -9.603   5.522  0.00  0.00    +0.201 C 
ATOM     28  C   UNL     1      -1.325  -9.731   4.119  0.00  0.00    +0.282 C 
ATOM     29  O   UNL     1      -2.027  -9.028   3.083  0.00  0.00    -0.341 OA
ATOM     30  C   UNL     1      -3.404  -9.413   3.013  0.00  0.00    +0.178 C 
BRANCH  27  31
ATOM     31  O   UNL     1      -1.641  -8.365   6.158  0.00  0.00    -0.384 OA
ATOM     32  H   UNL     1      -2.284  -7.695   5.847  0.00  0.00    +0.210 HD
ENDBRANCH  27  31
BRANCH  26  33
ATOM     33  O   UNL     1      -4.032 -11.037   5.305  0.00  0.00    -0.386 OA
ATOM     34  H   UNL     1      -3.613 -11.575   5.988  0.00  0.00    +0.210 HD
ENDBRANCH  26  33
BRANCH  28  35
ATOM     35  O   UNL     1      -1.248 -11.109   3.813  0.00  0.00    -0.340 OA
BRANCH  35  36
ATOM     36  C   UNL     1      -0.505 -11.579   2.674  0.00  0.00    +0.181 C 
ATOM     37  C   UNL     1      -0.835 -13.098   2.718  0.00  0.00    +0.179 C 
ATOM     38  C   UNL     1      -0.571 -13.840   1.411  0.00  0.00    +0.201 C 
ATOM     39  C   UNL     1      -1.213 -13.052   0.272  0.00  0.00    +0.279 C 
ATOM     40  O   UNL     1      -0.582 -11.793   0.181  0.00  0.00    -0.343 OA
ATOM     41  C   UNL     1      -0.897 -10.958   1.303  0.00  0.00    +0.150 C 
ATOM     42  C   UNL     1      -0.202  -9.632   0.983  0.00  0.00    +0.041 C 
BRANCH  39  43
ATOM     43  O   UNL     1      -0.998 -13.733  -0.951  0.00  0.00    -0.365 OA
ATOM     44  H   UNL     1      -0.186 -13.325  -1.299  0.00  0.00    +0.213 HD
ENDBRANCH  39  43
BRANCH  38  45
ATOM     45  O   UNL     1      -1.120 -15.163   1.454  0.00  0.00    -0.384 OA
ATOM     46  H   UNL     1      -1.180 -15.457   0.524  0.00  0.00    +0.210 HD
ENDBRANCH  38  45
BRANCH  37  47
ATOM     47  O   UNL     1      -0.147 -13.726   3.824  0.00  0.00    -0.386 OA
ATOM     48  H   UNL     1       0.781 -13.439   3.808  0.00  0.00    +0.210 HD
ENDBRANCH  37  47
ENDBRANCH  35  36
ENDBRANCH  28  35
BRANCH  30  49
ATOM     49  C   UNL     1      -4.049  -9.063   1.659  0.00  0.00    +0.190 C 
BRANCH  49  50
ATOM     50  O   UNL     1      -5.356  -9.605   1.503  0.00  0.00    -0.392 OA
ATOM     51  H   UNL     1      -5.587 -10.147   2.276  0.00  0.00    +0.210 HD
ENDBRANCH  49  50
ENDBRANCH  30  49
ENDBRANCH  24  25
ENDBRANCH  16  24
ENDBRANCH  11  13
ENDBRANCH   4  11
BRANCH   2  52
ATOM     52  C   UNL     1      -7.667  -1.269  -0.467  0.00  0.00    +0.189 C 
BRANCH  52  53
ATOM     53  O   UNL     1      -8.749  -1.504  -1.355  0.00  0.00    -0.391 OA
ATOM     54  H   UNL     1      -8.640  -2.405  -1.703  0.00  0.00    +0.210 HD
ENDBRANCH  52  53
ENDBRANCH   2  52
BRANCH   1  55
ATOM     55  O   UNL     1      -9.148  -0.042   1.885  0.00  0.00    -0.338 OA
BRANCH  55  59
ATOM     56  C   UNL     1      -6.796   2.776   2.697  0.00  0.00    +0.183 C 
ATOM     57  C   UNL     1      -8.343   2.956   2.572  0.00  0.00    +0.179 C 
ATOM     58  C   UNL     1      -9.057   1.841   3.383  0.00  0.00    +0.201 C 
ATOM     59  C   UNL     1      -8.513   0.416   3.072  0.00  0.00    +0.282 C 
ATOM     60  O   UNL     1      -7.089   0.357   3.016  0.00  0.00    -0.341 OA
ATOM     61  C   UNL     1      -6.483   1.350   2.181  0.00  0.00    +0.178 C 
BRANCH  58  62
ATOM     62  O   UNL     1      -8.976   2.112   4.797  0.00  0.00    -0.384 OA
ATOM     63  H   UNL     1      -8.107   2.536   4.963  0.00  0.00    +0.210 HD
ENDBRANCH  58  62
BRANCH  57  64
ATOM     64  O   UNL     1      -8.753   2.984   1.214  0.00  0.00    -0.386 OA
ATOM     65  H   UNL     1      -9.727   3.059   1.199  0.00  0.00    +0.210 HD
ENDBRANCH  57  64
BRANCH  56  66
ATOM     66  O   UNL     1      -6.534   3.035   4.085  0.00  0.00    -0.340 OA
BRANCH  66  72
ATOM     67  C   UNL     1      -2.050   4.701   3.662  0.00  0.00    +0.041 C 
ATOM     68  C   UNL     1      -2.991   3.831   4.491  0.00  0.00    +0.149 C 
ATOM     69  C   UNL     1      -2.984   4.268   5.967  0.00  0.00    +0.174 C 
ATOM     70  C   UNL     1      -3.976   3.409   6.759  0.00  0.00    +0.179 C 
ATOM     71  C   UNL     1      -5.338   3.374   6.090  0.00  0.00    +0.201 C 
ATOM     72  C   UNL     1      -5.209   2.992   4.596  0.00  0.00    +0.282 C 
ATOM     73  O   UNL     1      -4.314   3.870   3.916  0.00  0.00    -0.343 OA
BRANCH  71  74
ATOM     74  O   UNL     1      -6.158   2.441   6.822  0.00  0.00    -0.384 OA
ATOM     75  H   UNL     1      -5.939   1.536   6.535  0.00  0.00    +0.210 HD
ENDBRANCH  71  74
BRANCH  70  76
ATOM     76  O   UNL     1      -4.089   3.902   8.100  0.00  0.00    -0.386 OA
ATOM     77  H   UNL     1      -4.951   3.584   8.437  0.00  0.00    +0.210 HD
ENDBRANCH  70  76
BRANCH  69  78
ATOM     78  O   UNL     1      -1.664   4.088   6.501  0.00  0.00    -0.387 OA
ATOM     79  H   UNL     1      -1.759   3.755   7.414  0.00  0.00    +0.210 HD
ENDBRANCH  69  78
ENDBRANCH  66  72
ENDBRANCH  56  66
BRANCH  61  80
ATOM     80  C   UNL     1      -5.005   0.970   2.038  0.00  0.00    +0.190 C 
BRANCH  80  81
ATOM     81  O   UNL     1      -4.233   1.922   1.327  0.00  0.00    -0.392 OA
ATOM     82  H   UNL     1      -4.185   2.742   1.852  0.00  0.00    +0.210 HD
ENDBRANCH  80  81
ENDBRANCH  61  80
ENDBRANCH  55  59
ENDBRANCH   1  55
TORSDOF 30
