REMARK  Name = 
REMARK  5 active torsions:
REMARK  status: ('A' for Active; 'I' for Inactive)
REMARK    1  A    between atoms: N_1  and  CA_2
REMARK    2  A    between atoms: CA_2  and  C_4
REMARK    3  A    between atoms: CA_2  and  C_13
REMARK    4  A    between atoms: C_4  and  C_5
REMARK    5  A    between atoms: C_13  and  O_14
REMARK                            x       y       z     vdW  Elec       q    Type
REMARK                         _______ _______ _______ _____ _____    ______ ____
ROOT
ATOM      1  C   UNL     1       3.029  -0.793   1.090  0.00  0.00    +0.000 C 
ENDROOT
BRANCH   1   2
ATOM      2  C   UNL     1       2.586  -0.217   2.404  0.00  0.00    +0.000 A 
ATOM      3  C   UNL     1       3.376   0.310   3.402  0.00  0.00    +0.000 A 
ATOM      4  C   UNL     1       2.570   0.716   4.390  0.00  0.00    +0.000 A 
ATOM      5 SE   UNL     1       3.374   1.454   5.823  0.00  0.00    +0.000 Se
ATOM      6  C   UNL     1       4.913   1.111   4.857  0.00  0.00    +0.000 A 
ATOM      7  N   UNL     1       1.279   0.486   4.103  0.00  0.00    +0.000 N 
ATOM      8  H   UNL     1       0.451   0.707   4.698  0.00  0.00    +0.000 HD
ATOM      9  C   UNL     1       4.712   0.511   3.616  0.00  0.00    +0.000 A 
ATOM     10  C   UNL     1       1.278  -0.093   2.876  0.00  0.00    +0.000 A 
ENDBRANCH   1   2
BRANCH   1  11
ATOM     11  CA  UNL     1       2.428  -0.016  -0.101  0.00  0.00    +0.000 C 
BRANCH  11  12
ATOM     12  N   UNL     1       2.843  -0.615  -1.371  0.00  0.00    +0.000 NA
ATOM     13  H1  UNL     1       3.886  -0.646  -1.441  0.00  0.00    +0.000 HD
ATOM     14  H2  UNL     1       2.479  -1.593  -1.433  0.00  0.00    +0.000 HD
ENDBRANCH  11  12
BRANCH  11  15
ATOM     15  C   UNL     1       2.824   1.444  -0.071  0.00  0.00    +0.000 C 
ATOM     16  OXT UNL     1       1.958   2.299   0.027  0.00  0.00    +0.000 OA
BRANCH  15  17
ATOM     17  O   UNL     1       4.118   1.825  -0.142  0.00  0.00    +0.000 OA
ATOM     18  H   UNL     1       4.840   1.187  -0.216  0.00  0.00    +0.000 HD
ENDBRANCH  15  17
ENDBRANCH  11  15
ENDBRANCH   1  11
TORSDOF 5
