REMARK  Name = 
REMARK  16 active torsions:
REMARK  status: ('A' for Active; 'I' for Inactive)
REMARK    1  A    between atoms: O_1  and  C_2
REMARK    2  A    between atoms: C_2  and  C_3
REMARK    3  A    between atoms: C_3  and  O_5
REMARK    4  A    between atoms: C_3  and  C_6
REMARK    5  A    between atoms: C_6  and  O_8
REMARK    6  A    between atoms: C_6  and  C_9
REMARK    7  A    between atoms: C_9  and  O_11
REMARK    8  A    between atoms: C_9  and  C_12
REMARK    9  A    between atoms: C_12  and  N_13
REMARK   10  A    between atoms: N_16  and  C_17
REMARK   11  A    between atoms: C_17  and  C_18
REMARK   12  A    between atoms: C_18  and  C_19
REMARK   13  A    between atoms: C_19  and  O_20
REMARK   14  A    between atoms: O_20  and  P_21
REMARK   15  A    between atoms: P_21  and  O_22
REMARK   16  A    between atoms: P_21  and  O_23
REMARK                            x       y       z     vdW  Elec       q    Type
REMARK                         _______ _______ _______ _____ _____    ______ ____
ROOT
ATOM      1  N   UNL     1       6.854   3.549   2.292  0.00  0.00    -0.275 N 
ATOM      2  C   UNL     1       6.552   4.873   2.130  0.00  0.00    +0.149 A 
ATOM      3  N   UNL     1       5.881   5.442   1.103  0.00  0.00    -0.292 N 
ATOM      4  H   UNL     1       5.655   4.878   0.288  0.00  0.00    +0.172 HD
ATOM      5  C   UNL     1       5.622   6.783   1.057  0.00  0.00    +0.328 A 
ATOM      6  N   UNL     1       6.058   7.506   2.144  0.00  0.00    -0.273 N 
ATOM      7  H   UNL     1       5.895   8.501   2.113  0.00  0.00    +0.173 HD
ATOM      8  C   UNL     1       6.833   7.026   3.179  0.00  0.00    +0.280 A 
ATOM      9  O   UNL     1       7.317   7.767   4.029  0.00  0.00    -0.265 OA
ATOM     10  O   UNL     1       5.053   7.317   0.110  0.00  0.00    -0.247 OA
ATOM     11  C   UNL     1       7.034   5.568   3.158  0.00  0.00    +0.152 A 
ATOM     12  N   UNL     1       7.666   4.711   4.029  0.00  0.00    -0.286 N 
ATOM     13  C   UNL     1       7.568   3.395   3.509  0.00  0.00    +0.331 A 
ATOM     14  O   UNL     1       7.982   2.361   4.005  0.00  0.00    -0.246 OA
ENDROOT
BRANCH  12  15
ATOM     15  C   UNL     1       8.279   5.027   5.290  0.00  0.00    +0.129 C 
BRANCH  15  16
ATOM     16  C   UNL     1       7.267   5.517   6.320  0.00  0.00    +0.050 C 
BRANCH  16  17
ATOM     17  C   UNL     1       7.933   5.756   7.655  0.00  0.00    +0.174 C 
BRANCH  17  18
ATOM     18  O   UNL     1       9.028   6.655   7.492  0.00  0.00    -0.287 OA
BRANCH  18  19
ATOM     19  P   UNL     1       9.770   6.975   9.022  0.00  0.00    +0.472 P 
ATOM     20  O   UNL     1      10.434   7.262  10.391  0.00  0.00    -0.228 OA
BRANCH  19  21
ATOM     21  O   UNL     1      10.645   5.624   8.729  0.00  0.00    -0.303 OA
ATOM     22  H   UNL     1      10.940   5.258   9.583  0.00  0.00    +0.222 HD
ENDBRANCH  19  21
BRANCH  19  23
ATOM     23  O   UNL     1      10.700   8.027   8.188  0.00  0.00    -0.303 OA
ATOM     24  H   UNL     1      10.298   8.157   7.309  0.00  0.00    +0.222 HD
ENDBRANCH  19  23
ENDBRANCH  18  19
ENDBRANCH  17  18
ENDBRANCH  16  17
ENDBRANCH  15  16
ENDBRANCH  12  15
BRANCH   1  25
ATOM     25  C   UNL     1       6.406   2.449   1.470  0.00  0.00    +0.162 C 
BRANCH  25  26
ATOM     26  C   UNL     1       7.094   2.381   0.097  0.00  0.00    +0.165 C 
BRANCH  26  27
ATOM     27  O   UNL     1       6.833   3.597  -0.647  0.00  0.00    -0.387 OA
ATOM     28  H   UNL     1       7.517   3.638  -1.341  0.00  0.00    +0.210 HD
ENDBRANCH  26  27
BRANCH  26  29
ATOM     29  C   UNL     1       6.584   1.225  -0.790  0.00  0.00    +0.175 C 
BRANCH  29  30
ATOM     30  O   UNL     1       7.384   1.211  -1.987  0.00  0.00    -0.387 OA
ATOM     31  H   UNL     1       7.002   1.880  -2.584  0.00  0.00    +0.210 HD
ENDBRANCH  29  30
BRANCH  29  32
ATOM     32  C   UNL     1       6.584  -0.176  -0.164  0.00  0.00    +0.171 C 
BRANCH  32  33
ATOM     33  O   UNL     1       5.665  -0.240   0.934  0.00  0.00    -0.387 OA
ATOM     34  H   UNL     1       5.910  -1.058   1.418  0.00  0.00    +0.210 HD
ENDBRANCH  32  33
BRANCH  32  35
ATOM     35  C   UNL     1       7.966  -0.647   0.299  0.00  0.00    +0.189 C 
BRANCH  35  36
ATOM     36  O   UNL     1       7.807  -1.931   0.910  0.00  0.00    -0.392 OA
ATOM     37  H   UNL     1       8.699  -2.236   1.154  0.00  0.00    +0.210 HD
ENDBRANCH  35  36
ENDBRANCH  32  35
ENDBRANCH  29  32
ENDBRANCH  26  29
ENDBRANCH  25  26
ENDBRANCH   1  25
TORSDOF 16
