REMARK  Name = 
REMARK  27 active torsions:
REMARK  status: ('A' for Active; 'I' for Inactive)
REMARK    1  A    between atoms: C_1  and  C_2
REMARK    2  A    between atoms: C_2  and  C_3
REMARK    3  A    between atoms: C_2  and  C_4
REMARK    4  A    between atoms: C_4  and  N_6
REMARK    5  A    between atoms: C_4  and  C_53
REMARK    6  A    between atoms: C_7  and  C_9
REMARK    7  A    between atoms: C_9  and  O_11
REMARK    8  A    between atoms: C_9  and  C_19
REMARK    9  A    between atoms: O_11  and  C_12
REMARK   10  A    between atoms: C_12  and  C_13
REMARK   11  A    between atoms: C_19  and  O_21
REMARK   12  A    between atoms: C_19  and  C_22
REMARK   13  A    between atoms: C_22  and  O_24
REMARK   14  A    between atoms: C_22  and  C_25
REMARK   15  A    between atoms: C_25  and  O_27
REMARK   16  A    between atoms: C_25  and  C_35
REMARK   17  A    between atoms: O_27  and  C_28
REMARK   18  A    between atoms: C_28  and  C_29
REMARK   19  A    between atoms: N_37  and  C_38
REMARK   20  A    between atoms: C_38  and  C_40
REMARK   21  A    between atoms: C_38  and  C_43
REMARK   22  A    between atoms: C_40  and  C_41
REMARK   23  A    between atoms: C_40  and  C_42
REMARK   24  A    between atoms: N_45  and  C_46
REMARK   25  A    between atoms: C_46  and  C_47
REMARK   26  A    between atoms: N_55  and  C_56
REMARK   27  A    between atoms: C_56  and  C_57
REMARK                            x       y       z     vdW  Elec       q    Type
REMARK                         _______ _______ _______ _____ _____    ______ ____
ROOT
ATOM      1  C   UNL     1      -4.632   6.111  -4.857  0.00  0.00    +0.184 C 
ENDROOT
BRANCH   1   2
ATOM      2  O   UNL     1      -6.050   6.294  -4.659  0.00  0.00    -0.386 OA
ATOM      3  H   UNL     1      -6.156   7.224  -4.361  0.00  0.00    +0.210 HD
ENDBRANCH   1   2
BRANCH   1   4
ATOM      4  C   UNL     1      -4.131   6.943  -6.074  0.00  0.00    +0.235 C 
BRANCH   4   7
ATOM      5  N   UNL     1      -4.254   9.237  -6.969  0.00  0.00    -0.302 N 
ATOM      6  H   UNL     1      -3.755   8.836  -7.762  0.00  0.00    +0.150 HD
ATOM      7  C   UNL     1      -4.551   8.428  -5.897  0.00  0.00    +0.245 C 
ATOM      8  O   UNL     1      -5.090   8.858  -4.877  0.00  0.00    -0.273 OA
BRANCH   5   9
ATOM      9  C   UNL     1      -4.470  10.688  -6.985  0.00  0.00    +0.161 C 
BRANCH   9  10
ATOM     10  C   UNL     1      -3.360  11.281  -7.889  0.00  0.00    +0.234 C 
ATOM     11  N   UNL     1      -3.004  12.582  -7.625  0.00  0.00    -0.308 N 
ATOM     12  H   UNL     1      -3.337  13.047  -6.790  0.00  0.00    +0.149 HD
ATOM     13  O   UNL     1      -2.846  10.625  -8.796  0.00  0.00    -0.274 OA
BRANCH  11  14
ATOM     14  C   UNL     1      -1.946  13.254  -8.359  0.00  0.00    +0.159 C 
BRANCH  14  15
ATOM     15  C   UNL     1      -0.716  13.466  -7.506  0.00  0.00    +0.058 A 
ATOM     16  N   UNL     1      -0.668  14.603  -6.762  0.00  0.00    -0.258 NA
ATOM     17  C   UNL     1       0.430  14.799  -5.997  0.00  0.00    +0.111 A 
ATOM     18  C   UNL     1       1.481  13.903  -5.913  0.00  0.00    +0.020 A 
ATOM     19  C   UNL     1       1.409  12.736  -6.663  0.00  0.00    +0.003 A 
ATOM     20  C   UNL     1       0.296  12.509  -7.470  0.00  0.00    +0.025 A 
ENDBRANCH  14  15
ENDBRANCH  11  14
ENDBRANCH   9  10
BRANCH   9  22
ATOM     21  C   UNL     1      -6.229  12.531  -7.332  0.00  0.00    +0.009 C 
ATOM     22  C   UNL     1      -5.910  11.036  -7.434  0.00  0.00    +0.012 C 
ATOM     23  C   UNL     1      -6.235  10.533  -8.844  0.00  0.00    +0.009 C 
ENDBRANCH   9  22
ENDBRANCH   5   9
ENDBRANCH   4   7
BRANCH   4  24
ATOM     24  O   UNL     1      -2.729   6.860  -6.364  0.00  0.00    -0.360 OA
BRANCH  24  25
ATOM     25  C   UNL     1      -1.872   7.374  -5.341  0.00  0.00    +0.196 C 
BRANCH  25  26
ATOM     26  C   UNL     1      -0.426   7.256  -5.762  0.00  0.00    -0.022 A 
ATOM     27  C   UNL     1       0.128   5.994  -6.020  0.00  0.00    +0.006 A 
ATOM     28  C   UNL     1       1.478   5.862  -6.346  0.00  0.00    +0.000 A 
ATOM     29  C   UNL     1       2.293   6.991  -6.415  0.00  0.00    +0.000 A 
ATOM     30  C   UNL     1       1.753   8.251  -6.164  0.00  0.00    +0.000 A 
ATOM     31  C   UNL     1       0.404   8.385  -5.839  0.00  0.00    +0.006 A 
ENDBRANCH  25  26
ENDBRANCH  24  25
ENDBRANCH   4  24
ENDBRANCH   1   4
BRANCH   1  32
ATOM     32  C   UNL     1      -4.360   4.587  -4.840  0.00  0.00    +0.184 C 
BRANCH  32  33
ATOM     33  O   UNL     1      -2.956   4.319  -4.918  0.00  0.00    -0.386 OA
ATOM     34  H   UNL     1      -2.852   3.354  -4.790  0.00  0.00    +0.210 HD
ENDBRANCH  32  33
BRANCH  32  35
ATOM     35  C   UNL     1      -5.199   3.731  -5.842  0.00  0.00    +0.235 C 
BRANCH  35  36
ATOM     36  C   UNL     1      -5.164   2.257  -5.333  0.00  0.00    +0.245 C 
ATOM     37  N   UNL     1      -6.263   1.478  -5.650  0.00  0.00    -0.302 N 
ATOM     38  H   UNL     1      -7.082   1.932  -6.031  0.00  0.00    +0.150 HD
ATOM     39  O   UNL     1      -4.227   1.802  -4.674  0.00  0.00    -0.273 OA
BRANCH  37  40
ATOM     40  C   UNL     1      -6.394   0.067  -5.231  0.00  0.00    +0.161 C 
BRANCH  40  41
ATOM     41  C   UNL     1      -6.877  -0.056  -3.754  0.00  0.00    +0.234 C 
ATOM     42  N   UNL     1      -6.140   0.668  -2.850  0.00  0.00    -0.308 N 
ATOM     43  H   UNL     1      -5.354   1.220  -3.180  0.00  0.00    +0.149 HD
ATOM     44  O   UNL     1      -7.783  -0.808  -3.397  0.00  0.00    -0.274 OA
BRANCH  42  45
ATOM     45  C   UNL     1      -6.582   0.874  -1.486  0.00  0.00    +0.159 C 
BRANCH  45  46
ATOM     46  C   UNL     1      -7.563   2.023  -1.399  0.00  0.00    +0.058 A 
ATOM     47  N   UNL     1      -7.049   3.276  -1.286  0.00  0.00    -0.258 NA
ATOM     48  C   UNL     1      -7.926   4.305  -1.258  0.00  0.00    +0.111 A 
ATOM     49  C   UNL     1      -9.299   4.153  -1.355  0.00  0.00    +0.020 A 
ATOM     50  C   UNL     1      -9.809   2.867  -1.486  0.00  0.00    +0.003 A 
ATOM     51  C   UNL     1      -8.932   1.786  -1.510  0.00  0.00    +0.025 A 
ENDBRANCH  45  46
ENDBRANCH  42  45
ENDBRANCH  40  41
BRANCH  40  52
ATOM     52  C   UNL     1      -7.287  -0.756  -6.202  0.00  0.00    +0.012 C 
ATOM     53  C   UNL     1      -6.717  -0.758  -7.624  0.00  0.00    +0.009 C 
ATOM     54  C   UNL     1      -8.754  -0.307  -6.252  0.00  0.00    +0.009 C 
ENDBRANCH  40  52
ENDBRANCH  37  40
ENDBRANCH  35  36
BRANCH  35  55
ATOM     55  O   UNL     1      -4.717   3.905  -7.176  0.00  0.00    -0.360 OA
BRANCH  55  56
ATOM     56  C   UNL     1      -5.475   3.189  -8.151  0.00  0.00    +0.196 C 
BRANCH  56  57
ATOM     57  C   UNL     1      -5.074   3.494  -9.574  0.00  0.00    -0.022 A 
ATOM     58  C   UNL     1      -5.720   2.809 -10.619  0.00  0.00    +0.006 A 
ATOM     59  C   UNL     1      -5.388   3.059 -11.952  0.00  0.00    +0.000 A 
ATOM     60  C   UNL     1      -4.405   3.996 -12.257  0.00  0.00    +0.000 A 
ATOM     61  C   UNL     1      -3.752   4.677 -11.231  0.00  0.00    +0.000 A 
ATOM     62  C   UNL     1      -4.083   4.427  -9.895  0.00  0.00    +0.006 A 
ENDBRANCH  56  57
ENDBRANCH  55  56
ENDBRANCH  35  55
ENDBRANCH  32  35
ENDBRANCH   1  32
TORSDOF 23
