REMARK  Name = 
REMARK  11 active torsions:
REMARK  status: ('A' for Active; 'I' for Inactive)
REMARK    1  A    between atoms: CA_2  and  N_3
REMARK    2  A    between atoms: CA_2  and  C_12
REMARK    3  A    between atoms: CA_2  and  C_14
REMARK    4  A    between atoms: C_4  and  C_6
REMARK    5  A    between atoms: C_6  and  C_7
REMARK    6  A    between atoms: CA_17  and  C_18
REMARK    7  A    between atoms: C_18  and  O_19
REMARK    8  A    between atoms: C_21  and  C_22
REMARK    9  A    between atoms: C_22  and  C_23
REMARK   10  A    between atoms: C_23  and  O_25
REMARK   11  A    between atoms: O_25  and  C_26
REMARK                            x       y       z     vdW  Elec       q    Type
REMARK                         _______ _______ _______ _____ _____    ______ ____
ROOT
ATOM      1  C   UNL     1       2.737  -0.880  -0.871  0.00  0.00    +0.156 C 
ATOM      2  S   UNL     1       0.952  -0.783  -1.200  0.00  0.00    -0.132 S 
ATOM      3  C   UNL     1       0.769  -2.265  -2.219  0.00  0.00    +0.104 C 
ATOM      4  C   UNL     1       1.480  -3.481  -1.692  0.00  0.00    -0.021 C 
ATOM      5  CA  UNL     1       2.482  -3.404  -0.791  0.00  0.00    +0.114 C 
ATOM      6  N   UNL     1       3.037  -2.204  -0.324  0.00  0.00    -0.325 N 
ATOM      7  H   UNL     1       3.015  -2.201   0.699  0.00  0.00    +0.147 HD
ENDROOT
BRANCH   5   8
ATOM      8  C   UNL     1       3.095  -4.663  -0.206  0.00  0.00    +0.351 C 
ATOM      9  OXT UNL     1       2.554  -5.747  -0.091  0.00  0.00    -0.244 OA
BRANCH   8  10
ATOM     10  O   UNL     1       4.349  -4.385   0.226  0.00  0.00    -0.476 OA
ATOM     11  H   UNL     1       4.612  -3.517  -0.161  0.00  0.00    +0.295 HD
ENDBRANCH   8  10
ENDBRANCH   5   8
BRANCH   1  12
ATOM     12  CA  UNL     1       3.657  -0.512  -2.070  0.00  0.00    +0.166 C 
BRANCH  12  13
ATOM     13  N   UNL     1       5.087  -0.395  -1.713  0.00  0.00    -0.303 N 
ATOM     14  H   UNL     1       5.462   0.548  -1.622  0.00  0.00    +0.149 HD
ATOM     15  C   UNL     1       5.947  -1.467  -1.701  0.00  0.00    +0.218 C 
ATOM     16  O   UNL     1       5.572  -2.613  -1.936  0.00  0.00    -0.275 OA
BRANCH  15  17
ATOM     17  C   UNL     1       7.377  -1.143  -1.298  0.00  0.00    +0.138 C 
BRANCH  17  18
ATOM     18  C   UNL     1       8.199  -0.694  -2.469  0.00  0.00    -0.001 A 
ATOM     19  S   UNL     1       8.357   0.978  -2.822  0.00  0.00    -0.101 S 
ATOM     20  C   UNL     1       9.437   0.671  -4.112  0.00  0.00    +0.045 A 
ATOM     21  C   UNL     1       9.671  -0.675  -4.281  0.00  0.00    +0.008 A 
ATOM     22  C   UNL     1       8.954  -1.463  -3.333  0.00  0.00    +0.011 A 
ENDBRANCH  17  18
ENDBRANCH  15  17
ENDBRANCH  12  13
BRANCH  12  23
ATOM     23  C   UNL     1       3.273   0.863  -2.600  0.00  0.00    +0.248 C 
ATOM     24  O   UNL     1       3.850   1.899  -2.270  0.00  0.00    -0.299 OA
ENDBRANCH  12  23
ENDBRANCH   1  12
BRANCH   4  25
ATOM     25  C   UNL     1       0.954  -4.782  -2.284  0.00  0.00    +0.154 C 
BRANCH  25  26
ATOM     26  C   UNL     1      -0.210  -5.378  -1.502  0.00  0.00    +0.311 C 
ATOM     27  O   UNL     1      -0.772  -4.858  -0.548  0.00  0.00    -0.251 OA
BRANCH  26  28
ATOM     28  O   UNL     1      -0.581  -6.556  -2.086  0.00  0.00    -0.468 OA
ATOM     29  C   UNL     1      -1.672  -7.222  -1.447  0.00  0.00    +0.280 C 
ENDBRANCH  26  28
ENDBRANCH  25  26
ENDBRANCH   4  25
TORSDOF 10
