REMARK  Name = 
REMARK  6 active torsions:
REMARK  status: ('A' for Active; 'I' for Inactive)
REMARK    1  A    between atoms: C_1  and  C_2
REMARK    2  A    between atoms: C_2  and  C_3
REMARK    3  A    between atoms: C_2  and  N_4
REMARK    4  A    between atoms: N_4  and  O_5
REMARK    5  A    between atoms: C_6  and  C_8
REMARK    6  A    between atoms: C_8  and  O_9
REMARK                            x       y       z     vdW  Elec       q    Type
REMARK                         _______ _______ _______ _____ _____    ______ ____
ROOT
ATOM      1  N   UNL     1       2.985   0.826  -1.190  0.00  0.00    -0.172 N 
ATOM      2  C   UNL     1       4.192   1.504  -1.126  0.00  0.00    +0.346 C 
ATOM      3  O   UNL     1       4.884   1.650  -0.115  0.00  0.00    -0.261 OA
ENDROOT
BRANCH   1   5
ATOM      4  C   UNL     1       1.000  -0.002  -0.016  0.00  0.00    +0.030 C 
ATOM      5  C   UNL     1       2.525  -0.023  -0.089  0.00  0.00    +0.100 C 
ATOM      6  C   UNL     1       3.058  -1.453  -0.184  0.00  0.00    +0.030 C 
ENDBRANCH   1   5
BRANCH   2   7
ATOM      7  C   UNL     1       4.658   2.273  -2.379  0.00  0.00    +0.395 C 
ATOM      8  O   UNL     1       4.053   2.357  -3.429  0.00  0.00    -0.240 OA
BRANCH   7   9
ATOM      9  O   UNL     1       5.819   2.920  -2.109  0.00  0.00    -0.474 OA
ATOM     10  H   UNL     1       6.065   2.745  -1.169  0.00  0.00    +0.296 HD
ENDBRANCH   7   9
ENDBRANCH   2   7
BRANCH   1  11
ATOM     11  O   UNL     1       2.652   0.272  -2.448  0.00  0.00    -0.292 OA
ATOM     12  H   UNL     1       1.960   0.884  -2.770  0.00  0.00    +0.242 HD
ENDBRANCH   1  11
TORSDOF 4
