REMARK  Name = 
REMARK  8 active torsions:
REMARK  status: ('A' for Active; 'I' for Inactive)
REMARK    1  A    between atoms: O_1  and  C_2
REMARK    2  A    between atoms: C_4  and  C_6
REMARK    3  A    between atoms: C_6  and  O_7
REMARK    4  A    between atoms: O_7  and  P_8
REMARK    5  A    between atoms: P_8  and  O_9
REMARK    6  A    between atoms: P_8  and  O_10
REMARK    7  A    between atoms: C_13  and  N_18
REMARK    8  A    between atoms: C_15  and  O_17
REMARK                            x       y       z     vdW  Elec       q    Type
REMARK                         _______ _______ _______ _____ _____    ______ ____
ROOT
ATOM      1  C   UNL     1       2.431  -0.106  -0.060  0.00  0.00    +0.178 C 
ATOM      2  C   UNL     1       2.986  -1.332   0.650  0.00  0.00    +0.197 C 
ATOM      3  C   UNL     1       4.177  -0.779   1.451  0.00  0.00    +0.273 C 
ATOM      4  O   UNL     1       4.200   0.652   1.315  0.00  0.00    -0.344 OA
ATOM      5  C   UNL     1       2.924   1.045   0.806  0.00  0.00    +0.178 C 
ENDROOT
BRANCH   3   6
ATOM      6  N   UNL     1       4.098  -1.128   2.871  0.00  0.00    -0.183 N 
ATOM      7  C   UNL     1       4.552  -2.378   3.252  0.00  0.00    +0.348 A 
ATOM      8  O   UNL     1       4.981  -3.222   2.466  0.00  0.00    -0.245 OA
ATOM      9  N   UNL     1       4.500  -2.659   4.591  0.00  0.00    -0.272 N 
ATOM     10  H   UNL     1       4.865  -3.547   4.900  0.00  0.00    +0.174 HD
ATOM     11  C   UNL     1       3.966  -1.826   5.525  0.00  0.00    +0.272 A 
ATOM     12  O   UNL     1       3.916  -2.044   6.722  0.00  0.00    -0.266 OA
ATOM     13  C   UNL     1       3.393  -0.557   4.976  0.00  0.00    +0.203 A 
ATOM     14  N   UNL     1       3.453  -0.245   3.725  0.00  0.00    -0.168 NA
ENDBRANCH   3   6
BRANCH   1  15
ATOM     15  O   UNL     1       1.007  -0.148  -0.136  0.00  0.00    -0.386 OA
ATOM     16  H   UNL     1       0.721   0.692  -0.542  0.00  0.00    +0.210 HD
ENDBRANCH   1  15
BRANCH   2  17
ATOM     17  O   UNL     1       3.394  -2.313  -0.315  0.00  0.00    -0.385 OA
ATOM     18  H   UNL     1       3.736  -3.080   0.182  0.00  0.00    +0.210 HD
ENDBRANCH   2  17
BRANCH   5  19
ATOM     19  C   UNL     1       3.085   2.338   0.026  0.00  0.00    +0.206 C 
BRANCH  19  20
ATOM     20  O   UNL     1       1.864   2.687  -0.605  0.00  0.00    -0.284 OA
BRANCH  20  21
ATOM     21  P   UNL     1       1.840   4.057  -1.433  0.00  0.00    +0.472 P 
ATOM     22  O   UNL     1       0.555   4.373  -2.112  0.00  0.00    -0.228 OA
BRANCH  21  23
ATOM     23  O   UNL     1       3.083   3.931  -2.424  0.00  0.00    -0.303 OA
ATOM     24  H   UNL     1       2.838   3.476  -3.249  0.00  0.00    +0.222 HD
ENDBRANCH  21  23
BRANCH  21  25
ATOM     25  O   UNL     1       2.307   5.153  -0.374  0.00  0.00    -0.303 OA
ATOM     26  H   UNL     1       1.571   5.430   0.200  0.00  0.00    +0.222 HD
ENDBRANCH  21  25
ENDBRANCH  20  21
ENDBRANCH  19  20
ENDBRANCH   5  19
TORSDOF 8
