REMARK  Name = 
REMARK  5 active torsions:
REMARK  status: ('A' for Active; 'I' for Inactive)
REMARK    1  A    between atoms: O_1  and  C_2
REMARK    2  A    between atoms: C_2  and  C_3
REMARK    3  A    between atoms: C_3  and  O_5
REMARK    4  A    between atoms: C_3  and  C_6
REMARK    5  A    between atoms: C_6  and  S_7
REMARK                            x       y       z     vdW  Elec       q    Type
REMARK                         _______ _______ _______ _____ _____    ______ ____
ROOT
ATOM      1  C   UNL     1       2.872   0.610  -1.205  0.00  0.00    +0.149 C 
ENDROOT
BRANCH   1   2
ATOM      2  O   UNL     1       2.349   1.943  -1.307  0.00  0.00    -0.389 OA
ATOM      3  H   UNL     1       1.392   1.849  -1.122  0.00  0.00    +0.210 HD
ENDBRANCH   1   2
BRANCH   1   4
ATOM      4  C   UNL     1       2.310  -0.051   0.058  0.00  0.00    +0.187 C 
BRANCH   4   5
ATOM      5  O   UNL     1       0.882  -0.064  -0.047  0.00  0.00    -0.392 OA
ATOM      6  H   UNL     1       0.545  -0.454   0.780  0.00  0.00    +0.210 HD
ENDBRANCH   4   5
ENDBRANCH   1   4
BRANCH   1   7
ATOM      7  C   UNL     1       4.401   0.640  -1.274  0.00  0.00    +0.099 C 
BRANCH   7   8
ATOM      8  S   UNL     1       5.181   1.554   0.097  0.00  0.00    -0.176 S 
ATOM      9  H   UNL     1       4.456   2.673  -0.074  0.00  0.00    +0.102 HD
ENDBRANCH   7   8
ENDBRANCH   1   7
TORSDOF 5
