REMARK  Name = 
REMARK  3 active torsions:
REMARK  status: ('A' for Active; 'I' for Inactive)
REMARK    1  A    between atoms: C_1  and  C_2
REMARK    2  A    between atoms: C_8  and  C_10
REMARK    3  A    between atoms: C_10  and  O_11
REMARK                            x       y       z     vdW  Elec       q    Type
REMARK                         _______ _______ _______ _____ _____    ______ ____
ROOT
ATOM      1  C   UNL     1       3.334   0.704   1.320  0.00  0.00    +0.109 C 
ATOM      2  C   UNL     1       2.896   0.197  -0.027  0.00  0.00    +0.213 C 
ATOM      3  N   UNL     1       3.063   1.030  -1.106  0.00  0.00    -0.288 N 
ATOM      4  C   UNL     1       3.412   0.469  -2.424  0.00  0.00    +0.184 C 
ATOM      5  C   UNL     1       3.822   1.695  -3.265  0.00  0.00    +0.035 C 
ATOM      6  C   UNL     1       3.434   2.911  -2.432  0.00  0.00    +0.021 C 
ATOM      7  C   UNL     1       3.515   2.407  -1.009  0.00  0.00    +0.109 C 
ATOM      8  O   UNL     1       2.414  -0.923  -0.184  0.00  0.00    -0.276 OA
ENDROOT
BRANCH   4   9
ATOM      9  C   UNL     1       2.417  -0.386  -3.225  0.00  0.00    +0.325 C 
ATOM     10  O   UNL     1       2.634  -0.759  -4.371  0.00  0.00    -0.249 OA
BRANCH   9  11
ATOM     11  O   UNL     1       1.294  -0.745  -2.567  0.00  0.00    -0.479 OA
ATOM     12  H   UNL     1       1.396  -0.633  -1.596  0.00  0.00    +0.295 HD
ENDBRANCH   9  11
ENDBRANCH   4   9
TORSDOF 2
