REMARK  Name = 
REMARK  10 active torsions:
REMARK  status: ('A' for Active; 'I' for Inactive)
REMARK    1  A    between atoms: O_1  and  C_2
REMARK    2  A    between atoms: C_2  and  C_3
REMARK    3  A    between atoms: C_3  and  O_5
REMARK    4  A    between atoms: C_3  and  C_6
REMARK    5  A    between atoms: C_6  and  O_8
REMARK    6  A    between atoms: C_6  and  C_9
REMARK    7  A    between atoms: C_9  and  C_10
REMARK    8  A    between atoms: C_10  and  O_12
REMARK    9  A    between atoms: C_10  and  C_13
REMARK   10  A    between atoms: C_13  and  O_14
REMARK                            x       y       z     vdW  Elec       q    Type
REMARK                         _______ _______ _______ _____ _____    ______ ____
ROOT
ATOM      1  C   UNL     1       8.547   1.694   2.352  0.00  0.00    +0.148 C 
ENDROOT
BRANCH   1   2
ATOM      2  O   UNL     1       9.280   0.466   2.474  0.00  0.00    -0.389 OA
ATOM      3  H   UNL     1      10.208   0.667   2.257  0.00  0.00    +0.210 HD
ENDBRANCH   1   2
BRANCH   1   4
ATOM      4  C   UNL     1       8.869   2.609   3.551  0.00  0.00    +0.168 C 
BRANCH   4   5
ATOM      5  O   UNL     1      10.282   2.901   3.531  0.00  0.00    -0.387 OA
ATOM      6  H   UNL     1      10.738   2.072   3.756  0.00  0.00    +0.210 HD
ENDBRANCH   4   5
BRANCH   4   7
ATOM      7  C   UNL     1       8.097   3.936   3.552  0.00  0.00    +0.189 C 
BRANCH   7   8
ATOM      8  O   UNL     1       8.334   4.672   2.351  0.00  0.00    -0.392 OA
ATOM      9  H   UNL     1       8.435   5.604   2.615  0.00  0.00    +0.210 HD
ENDBRANCH   7   8
ENDBRANCH   4   7
ENDBRANCH   1   4
BRANCH   1  10
ATOM     10  C   UNL     1       7.071   1.320   2.153  0.00  0.00    +0.076 C 
BRANCH  10  11
ATOM     11  C   UNL     1       6.395   0.572   3.308  0.00  0.00    +0.225 C 
BRANCH  11  12
ATOM     12  C   UNL     1       7.015  -0.787   3.671  0.00  0.00    +0.334 C 
ATOM     13  O   UNL     1       7.344  -1.055   4.818  0.00  0.00    -0.248 OA
BRANCH  12  14
ATOM     14  O   UNL     1       7.051  -1.696   2.672  0.00  0.00    -0.479 OA
ATOM     15  H   UNL     1       6.800  -1.348   1.797  0.00  0.00    +0.295 HD
ENDBRANCH  12  14
ENDBRANCH  11  12
BRANCH  11  16
ATOM     16  O   UNL     1       6.342   1.424   4.456  0.00  0.00    -0.381 OA
ATOM     17  H   UNL     1       6.625   0.867   5.213  0.00  0.00    +0.211 HD
ENDBRANCH  11  16
ENDBRANCH  10  11
ENDBRANCH   1  10
TORSDOF 10
