REMARK  Name = 
REMARK  1 active torsions:
REMARK  status: ('A' for Active; 'I' for Inactive)
REMARK    1  A    between atoms: N_3  and  C_4
REMARK                            x       y       z     vdW  Elec       q    Type
REMARK                         _______ _______ _______ _____ _____    ______ ____
ROOT
ATOM      1  C   UNL     1       4.399   0.563  -1.185  0.00  0.00    +0.073 C 
ATOM      2  C   UNL     1       4.874   1.124  -2.533  0.00  0.00    +0.022 C 
ATOM      3  C   UNL     1       4.542   0.193  -3.700  0.00  0.00    +0.002 C 
ATOM      4  C   UNL     1       5.063  -1.223  -3.467  0.00  0.00    +0.000 C 
ATOM      5  C   UNL     1       4.605  -1.794  -2.129  0.00  0.00    +0.002 C 
ATOM      6  C   UNL     1       4.939  -0.856  -0.968  0.00  0.00    +0.022 C 
ENDROOT
BRANCH   1   9
ATOM      7  O   UNL     1       2.736   2.764  -0.356  0.00  0.00    -0.280 OA
ATOM      8  C   UNL     1       2.249   1.701  -0.711  0.00  0.00    +0.325 C 
ATOM      9  N   UNL     1       2.944   0.582  -1.087  0.00  0.00    -0.315 N 
ATOM     10  H   UNL     1       2.415  -0.186  -1.480  0.00  0.00    +0.149 HD
ENDBRANCH   1   9
TORSDOF 1
