REMARK  Name = 
REMARK  6 active torsions:
REMARK  status: ('A' for Active; 'I' for Inactive)
REMARK    1  A    between atoms: O_1  and  C_2
REMARK    2  A    between atoms: C_2  and  CA_4
REMARK    3  A    between atoms: C_10  and  C_22
REMARK    4  A    between atoms: CA_12  and  C_19
REMARK    5  A    between atoms: C_19  and  O_20
REMARK    6  A    between atoms: C_22  and  O_23
REMARK                            x       y       z     vdW  Elec       q    Type
REMARK                         _______ _______ _______ _____ _____    ______ ____
ROOT
ATOM      1  CA  UNL     1       3.207  -0.537  -1.122  0.00  0.00    +0.125 A 
ATOM      2  N   UNL     1       3.178  -1.917  -1.244  0.00  0.00    -0.348 N 
ATOM      3  H   UNL     1       2.646  -2.518  -0.615  0.00  0.00    +0.166 HD
ATOM      4  C   UNL     1       3.851  -2.322  -2.379  0.00  0.00    +0.061 A 
ATOM      5  C   UNL     1       4.005  -3.672  -2.953  0.00  0.00    +0.042 A 
ATOM      6  C   UNL     1       4.752  -3.770  -4.147  0.00  0.00    +0.125 A 
ATOM      7  C   UNL     1       5.373  -2.574  -4.801  0.00  0.00    +0.252 C 
ATOM      8  C   UNL     1       5.151  -1.207  -4.163  0.00  0.00    +0.237 C 
ATOM      9  O   UNL     1       5.615  -0.198  -4.673  0.00  0.00    -0.283 OA
ATOM     10  O   UNL     1       6.039  -2.681  -5.823  0.00  0.00    -0.282 OA
ATOM     11  N   UNL     1       4.985  -4.930  -4.825  0.00  0.00    -0.236 NA
ATOM     12  CA  UNL     1       4.438  -6.056  -4.325  0.00  0.00    +0.149 A 
ATOM     13  C   UNL     1       3.684  -6.089  -3.169  0.00  0.00    +0.050 A 
ATOM     14  C   UNL     1       3.486  -4.890  -2.461  0.00  0.00    +0.072 A 
ATOM     15  C   UNL     1       4.368  -1.171  -2.948  0.00  0.00    +0.052 A 
ATOM     16  C   UNL     1       3.978  -0.061  -2.166  0.00  0.00    +0.046 A 
ENDROOT
BRANCH   1  17
ATOM     17  C   UNL     1       2.536   0.153  -0.043  0.00  0.00    +0.353 C 
ATOM     18  OXT UNL     1       2.174  -0.368   0.997  0.00  0.00    -0.243 OA
BRANCH  17  19
ATOM     19  O   UNL     1       2.323   1.462  -0.315  0.00  0.00    -0.476 OA
ATOM     20  H   UNL     1       2.549   1.721  -1.227  0.00  0.00    +0.295 HD
ENDBRANCH  17  19
ENDBRANCH   1  17
BRANCH  12  21
ATOM     21  C   UNL     1       4.700  -7.302  -5.097  0.00  0.00    +0.355 C 
ATOM     22  OXT UNL     1       4.302  -8.402  -4.757  0.00  0.00    -0.243 OA
BRANCH  21  23
ATOM     23  O   UNL     1       5.441  -7.050  -6.199  0.00  0.00    -0.476 OA
ATOM     24  H   UNL     1       5.656  -6.089  -6.269  0.00  0.00    +0.295 HD
ENDBRANCH  21  23
ENDBRANCH  12  21
BRANCH  14  25
ATOM     25  C   UNL     1       2.650  -4.979  -1.241  0.00  0.00    +0.338 C 
ATOM     26  O   UNL     1       1.815  -4.141  -0.955  0.00  0.00    -0.245 OA
BRANCH  25  27
ATOM     27  O   UNL     1       2.905  -6.054  -0.470  0.00  0.00    -0.477 OA
ATOM     28  H   UNL     1       3.675  -6.613  -0.687  0.00  0.00    +0.295 HD
ENDBRANCH  25  27
ENDBRANCH  14  25
TORSDOF 6
