REMARK  Name = 
REMARK  3 active torsions:
REMARK  status: ('A' for Active; 'I' for Inactive)
REMARK    1  A    between atoms: C_2  and  C_6
REMARK    2  A    between atoms: C_11  and  C_15
REMARK    3  A    between atoms: C_19  and  C_22
REMARK                            x       y       z     vdW  Elec       q    Type
REMARK                         _______ _______ _______ _____ _____    ______ ____
ROOT
ATOM      1  C   UNL     1       3.289  -1.322   0.038  0.00  0.00    +0.061 A 
ATOM      2  C   UNL     1       4.690  -1.261  -0.088  0.00  0.00    +0.025 A 
ATOM      3  C   UNL     1       5.440  -2.446  -0.185  0.00  0.00    +0.001 A 
ATOM      4  C   UNL     1       4.775  -3.665  -0.129  0.00  0.00    +0.047 A 
ATOM      5  N   UNL     1       5.725  -4.635  -0.324  0.00  0.00    -0.354 N 
ATOM      6  H   UNL     1       5.588  -5.642  -0.426  0.00  0.00    +0.166 HD
ATOM      7  C   UNL     1       6.961  -4.085  -0.591  0.00  0.00    +0.047 A 
ATOM      8  C   UNL     1       3.396  -3.776   0.053  0.00  0.00    +0.027 A 
ATOM      9  C   UNL     1       6.819  -2.722  -0.401  0.00  0.00    +0.036 A 
ATOM     10  C   UNL     1       2.668  -2.582   0.135  0.00  0.00    +0.018 A 
ENDROOT
BRANCH   1  14
ATOM     11  N   UNL     1       1.314  -0.067  -0.561  0.00  0.00    -0.250 N 
ATOM     12  H   UNL     1       0.970  -0.903  -1.022  0.00  0.00    +0.288 HD
ATOM     13  H   UNL     1       0.737   0.761  -0.601  0.00  0.00    +0.288 HD
ATOM     14  C   UNL     1       2.500  -0.082   0.018  0.00  0.00    +0.266 C 
ATOM     15  N   UNL     1       2.982   1.016   0.560  0.00  0.00    -0.288 N 
ATOM     16  H   UNL     1       2.488   1.896   0.548  0.00  0.00    +0.301 HD
ATOM     17  H   UNL     1       3.887   0.993   1.019  0.00  0.00    +0.301 HD
ENDBRANCH   1  14
BRANCH   7  18
ATOM     18  C   UNL     1       8.094  -4.942  -1.040  0.00  0.00    -0.009 A 
ATOM     19  C   UNL     1       7.916  -6.362  -1.308  0.00  0.00    -0.091 A 
ATOM     20  O   UNL     1       6.769  -6.935  -1.170  0.00  0.00    -0.873 OA
ATOM     21  C   UNL     1       9.097  -7.069  -1.769  0.00  0.00    -0.025 A 
ATOM     22  C   UNL     1      10.322  -6.362  -1.919  0.00  0.00    +0.008 A 
ATOM     23  C   UNL     1      10.438  -5.001  -1.682  0.00  0.00    +0.001 A 
ATOM     24  C   UNL     1       9.332  -4.299  -1.242  0.00  0.00    +0.009 A 
BRANCH  21  25
ATOM     25  C   UNL     1       9.114  -8.539  -2.130  0.00  0.00    -0.018 A 
ATOM     26  C   UNL     1       9.920  -9.027  -3.183  0.00  0.00    +0.008 A 
ATOM     27  C   UNL     1       9.972 -10.387  -3.516  0.00  0.00    +0.001 A 
ATOM     28  C   UNL     1       9.190 -11.303  -2.824  0.00  0.00    +0.000 A 
ATOM     29  C   UNL     1       8.374 -10.858  -1.791  0.00  0.00    +0.001 A 
ATOM     30  C   UNL     1       8.356  -9.501  -1.441  0.00  0.00    +0.008 A 
ENDBRANCH  21  25
ENDBRANCH   7  18
TORSDOF 3
