REMARK  Name = 
REMARK  5 active torsions:
REMARK  status: ('A' for Active; 'I' for Inactive)
REMARK    1  A    between atoms: O_1  and  C_2
REMARK    2  A    between atoms: C_2  and  C_4
REMARK    3  A    between atoms: C_2  and  C_7
REMARK    4  A    between atoms: C_7  and  C_12
REMARK    5  A    between atoms: C_8  and  C_9
REMARK                            x       y       z     vdW  Elec       q    Type
REMARK                         _______ _______ _______ _____ _____    ______ ____
ROOT
ATOM      1  C   UNL     1       3.207   1.587   0.281  0.00  0.00    +0.010 C 
ATOM      2  C   UNL     1       2.367   2.608   0.582  0.00  0.00    +0.032 C 
ENDROOT
BRANCH   1   3
ATOM      3  C   UNL     1       4.757   1.625   0.403  0.00  0.00    +0.071 C 
ATOM      4  O   UNL     1       5.256   2.250   1.391  0.00  0.00    -0.545 OA
ATOM      5  O   UNL     1       5.379   0.858  -0.402  0.00  0.00    -0.545 OA
ENDBRANCH   1   3
BRANCH   2   6
ATOM      6  C   UNL     1       2.506   4.071   1.036  0.00  0.00    +0.065 C 
ATOM      7  O   UNL     1       1.510   4.479   1.726  0.00  0.00    -0.545 OA
ATOM      8  O   UNL     1       3.447   4.771   0.572  0.00  0.00    -0.545 OA
ENDBRANCH   2   6
BRANCH   1   9
ATOM      9  C   UNL     1       2.614   0.235  -0.113  0.00  0.00    +0.192 C 
BRANCH   9  10
ATOM     10  C   UNL     1       2.448  -0.061  -1.659  0.00  0.00    +0.075 C 
ATOM     11  O   UNL     1       3.026  -1.109  -2.107  0.00  0.00    -0.547 OA
ATOM     12  O   UNL     1       1.598   0.649  -2.290  0.00  0.00    -0.547 OA
ENDBRANCH   9  10
BRANCH   9  13
ATOM     13  O   UNL     1       3.361  -0.831   0.537  0.00  0.00    -0.381 OA
ATOM     14  H   UNL     1       4.192  -0.798   0.006  0.00  0.00    +0.211 HD
ENDBRANCH   9  13
ENDBRANCH   1   9
TORSDOF 5
