REMARK  Name = 
REMARK  31 active torsions:
REMARK  status: ('A' for Active; 'I' for Inactive)
REMARK    1  A    between atoms: C_1  and  C_2
REMARK    2  A    between atoms: C_2  and  C_4
REMARK    3  A    between atoms: C_4  and  C_5
REMARK    4  A    between atoms: C_5  and  S_7
REMARK    5  A    between atoms: S_7  and  C_8
REMARK    6  A    between atoms: C_8  and  C_9
REMARK    7  A    between atoms: C_9  and  N_10
REMARK    8  A    between atoms: C_11  and  C_13
REMARK    9  A    between atoms: C_13  and  C_14
REMARK   10  A    between atoms: C_14  and  N_15
REMARK   11  A    between atoms: C_16  and  C_18
REMARK   12  A    between atoms: C_18  and  O_20
REMARK   13  A    between atoms: C_18  and  C_21
REMARK   14  A    between atoms: C_21  and  C_22
REMARK   15  A    between atoms: C_21  and  C_23
REMARK   16  A    between atoms: C_21  and  C_24
REMARK   17  A    between atoms: C_24  and  O_25
REMARK   18  A    between atoms: O_25  and  P_26
REMARK   19  A    between atoms: P_26  and  O_27
REMARK   20  A    between atoms: P_26  and  O_29
REMARK   21  A    between atoms: O_29  and  P_30
REMARK   22  A    between atoms: P_30  and  O_31
REMARK   23  A    between atoms: P_30  and  O_33
REMARK   24  A    between atoms: O_33  and  C_34
REMARK   25  A    between atoms: C_34  and  C_35
REMARK   26  A    between atoms: C_38  and  N_50
REMARK   27  A    between atoms: C_40  and  O_42
REMARK   28  A    between atoms: C_43  and  O_45
REMARK   29  A    between atoms: O_45  and  P_46
REMARK   30  A    between atoms: P_46  and  O_47
REMARK   31  A    between atoms: P_46  and  O_48
REMARK                            x       y       z     vdW  Elec       q    Type
REMARK                         _______ _______ _______ _____ _____    ______ ____
ROOT
ATOM      1  O   UNL     1      30.468  -0.002   5.201  0.00  0.00    -0.186 OA
ENDROOT
BRANCH   1   2
ATOM      2  P   UNL     1      30.862  -1.266   6.314  0.00  0.00    +0.483 P 
ATOM      3  O   UNL     1      31.571  -2.097   5.232  0.00  0.00    -0.227 OA
BRANCH   2   4
ATOM      4  O   UNL     1      31.256  -2.531   7.428  0.00  0.00    -0.302 OA
ATOM      5  H   UNL     1      32.119  -2.856   7.101  0.00  0.00    +0.222 HD
ENDBRANCH   2   4
BRANCH   2   6
ATOM      6  O   UNL     1      32.138  -0.388   6.861  0.00  0.00    -0.286 OA
BRANCH   6   7
ATOM      7  C   UNL     1      32.156   0.444   8.004  0.00  0.00    +0.181 C 
BRANCH   7   8
ATOM      8  C   UNL     1      31.414   1.796   7.822  0.00  0.00    +0.024 C 
ATOM      9  C   UNL     1      31.891   2.792   8.891  0.00  0.00    +0.016 C 
ATOM     10  C   UNL     1      31.894   2.376   6.498  0.00  0.00    +0.016 C 
BRANCH   8  11
ATOM     11  C   UNL     1      29.863   1.648   7.954  0.00  0.00    +0.208 C 
BRANCH  11  14
ATOM     12  N   UNL     1      27.659   2.342   7.111  0.00  0.00    -0.313 N 
ATOM     13  H   UNL     1      27.346   1.642   7.780  0.00  0.00    +0.149 HD
ATOM     14  C   UNL     1      28.989   2.744   7.287  0.00  0.00    +0.242 C 
ATOM     15  O   UNL     1      29.389   3.853   6.961  0.00  0.00    -0.273 OA
BRANCH  12  16
ATOM     16  C   UNL     1      26.651   3.347   6.785  0.00  0.00    +0.113 C 
BRANCH  16  17
ATOM     17  C   UNL     1      26.691   3.898   5.364  0.00  0.00    +0.114 C 
BRANCH  17  20
ATOM     18  N   UNL     1      25.702   1.777   4.417  0.00  0.00    -0.314 N 
ATOM     19  H   UNL     1      25.962   1.334   5.289  0.00  0.00    +0.149 HD
ATOM     20  C   UNL     1      26.022   3.112   4.225  0.00  0.00    +0.215 C 
ATOM     21  O   UNL     1      25.928   3.641   3.115  0.00  0.00    -0.276 OA
BRANCH  18  22
ATOM     22  C   UNL     1      25.227   0.840   3.331  0.00  0.00    +0.115 C 
BRANCH  22  23
ATOM     23  C   UNL     1      25.854  -0.603   3.322  0.00  0.00    +0.096 C 
BRANCH  23  24
ATOM     24  S   UNL     1      25.732  -1.146   5.037  0.00  0.00    -0.086 S 
BRANCH  24  25
ATOM     25  C   UNL     1      26.246  -2.800   5.346  0.00  0.00    +0.196 C 
ATOM     26  O   UNL     1      25.877  -3.254   6.436  0.00  0.00    -0.285 OA
BRANCH  25  27
ATOM     27  C   UNL     1      27.137  -3.609   4.467  0.00  0.00    +0.160 C 
BRANCH  27  29
ATOM     28  C   UNL     1      29.199  -4.305   6.017  0.00  0.00    +0.086 C 
ATOM     29  C   UNL     1      27.989  -4.671   5.198  0.00  0.00    +0.138 C 
ATOM     30  O   UNL     1      27.703  -5.858   5.049  0.00  0.00    -0.297 OA
ENDBRANCH  27  29
ENDBRANCH  25  27
ENDBRANCH  24  25
ENDBRANCH  23  24
ENDBRANCH  22  23
ENDBRANCH  18  22
ENDBRANCH  17  20
ENDBRANCH  16  17
ENDBRANCH  12  16
ENDBRANCH  11  14
BRANCH  11  31
ATOM     31  O   UNL     1      29.402   0.368   7.541  0.00  0.00    -0.382 OA
ATOM     32  H   UNL     1      28.611   0.481   6.976  0.00  0.00    +0.210 HD
ENDBRANCH  11  31
ENDBRANCH   8  11
ENDBRANCH   7   8
ENDBRANCH   6   7
ENDBRANCH   2   6
ENDBRANCH   1   2
BRANCH   1  33
ATOM     33  P   UNL     1      29.220  -0.850   4.631  0.00  0.00    +0.483 P 
ATOM     34  O   UNL     1      28.403  -1.377   5.754  0.00  0.00    -0.227 OA
BRANCH  33  35
ATOM     35  O   UNL     1      29.765  -1.970   3.625  0.00  0.00    -0.302 OA
ATOM     36  H   UNL     1      30.708  -1.815   3.358  0.00  0.00    +0.222 HD
ENDBRANCH  33  35
BRANCH  33  37
ATOM     37  O   UNL     1      28.492   0.075   3.600  0.00  0.00    -0.284 OA
BRANCH  37  38
ATOM     38  C   UNL     1      28.478   1.468   3.551  0.00  0.00    +0.206 C 
BRANCH  38  39
ATOM     39  C   UNL     1      29.310   1.914   2.381  0.00  0.00    +0.179 C 
ATOM     40  C   UNL     1      30.647   1.465   2.776  0.00  0.00    +0.194 C 
ATOM     41  C   UNL     1      31.142   0.418   1.849  0.00  0.00    +0.196 C 
ATOM     42  C   UNL     1      29.860   0.056   1.088  0.00  0.00    +0.253 C 
ATOM     43  O   UNL     1      28.981   1.199   1.183  0.00  0.00    -0.346 OA
BRANCH  42  44
ATOM     44  N   UNL     1      30.215  -0.224  -0.260  0.00  0.00    -0.286 N 
ATOM     45  C   UNL     1      31.184  -1.131  -0.591  0.00  0.00    +0.167 A 
ATOM     46  N   UNL     1      31.813  -2.005   0.213  0.00  0.00    -0.216 NA
ATOM     47  C   UNL     1      32.781  -2.659  -0.461  0.00  0.00    +0.225 A 
ATOM     48  N   UNL     1      33.162  -2.482  -1.744  0.00  0.00    -0.219 NA
ATOM     49  C   UNL     1      32.535  -1.528  -2.469  0.00  0.00    +0.147 A 
ATOM     50  N   UNL     1      32.931  -1.286  -3.773  0.00  0.00    -0.341 N 
ATOM     51  H   UNL     1      32.221  -0.805  -4.325  0.00  0.00    +0.144 HD
ATOM     52  H   UNL     1      33.399  -2.069  -4.198  0.00  0.00    +0.144 HD
ATOM     53  C   UNL     1      31.468  -0.824  -1.899  0.00  0.00    +0.147 A 
ATOM     54  N   UNL     1      30.648   0.158  -2.388  0.00  0.00    -0.231 NA
ATOM     55  C   UNL     1      29.904   0.501  -1.364  0.00  0.00    +0.203 A 
ENDBRANCH  42  44
BRANCH  41  56
ATOM     56  O   UNL     1      31.678  -0.670   2.629  0.00  0.00    -0.385 OA
ATOM     57  H   UNL     1      32.280  -1.175   2.035  0.00  0.00    +0.210 HD
ENDBRANCH  41  56
BRANCH  40  58
ATOM     58  O   UNL     1      31.353   2.510   3.284  0.00  0.00    -0.278 OA
BRANCH  58  59
ATOM     59  P   UNL     1      32.929   1.947   3.725  0.00  0.00    +0.473 P 
ATOM     60  O   UNL     1      34.338   1.443   4.120  0.00  0.00    -0.228 OA
BRANCH  59  61
ATOM     61  O   UNL     1      33.260   2.159   2.131  0.00  0.00    -0.303 OA
ATOM     62  H   UNL     1      33.290   3.122   1.981  0.00  0.00    +0.222 HD
ENDBRANCH  59  61
BRANCH  59  63
ATOM     63  O   UNL     1      33.236   3.536   4.009  0.00  0.00    -0.303 OA
ATOM     64  H   UNL     1      32.568   3.944   4.585  0.00  0.00    +0.222 HD
ENDBRANCH  59  63
ENDBRANCH  58  59
ENDBRANCH  40  58
ENDBRANCH  38  39
ENDBRANCH  37  38
ENDBRANCH  33  37
ENDBRANCH   1  33
TORSDOF 28
