REMARK  Name = 
REMARK  3 active torsions:
REMARK  status: ('A' for Active; 'I' for Inactive)
REMARK    1  A    between atoms: C_1  and  C_2
REMARK    2  A    between atoms: C_2  and  O_4
REMARK    3  A    between atoms: C_2  and  C_5
REMARK                            x       y       z     vdW  Elec       q    Type
REMARK                         _______ _______ _______ _____ _____    ______ ____
ROOT
ATOM      1  C   UNL     1       2.976  -1.370  -0.256  0.00  0.00    +0.038 C 
ATOM      2  C   UNL     1       2.515   0.035   0.106  0.00  0.00    +0.122 C 
ENDROOT
BRANCH   2   3
ATOM      3  C   UNL     1       3.035   0.436   1.482  0.00  0.00    +0.111 C 
ATOM      4 BR   UNL     1       2.269   2.161   1.996  0.00  0.00    -0.089 Br
ENDBRANCH   2   3
BRANCH   2   5
ATOM      5  O   UNL     1       3.019   0.922  -0.894  0.00  0.00    -0.391 OA
ATOM      6  H   UNL     1       2.736   1.821  -0.645  0.00  0.00    +0.210 HD
ENDBRANCH   2   5
TORSDOF 2
