REMARK  Name = 
REMARK  7 active torsions:
REMARK  status: ('A' for Active; 'I' for Inactive)
REMARK    1  A    between atoms: C_2  and  N_3
REMARK    2  A    between atoms: C_2  and  C_11
REMARK    3  A    between atoms: C_2  and  P_17
REMARK    4  A    between atoms: N_3  and  C_4
REMARK    5  A    between atoms: C_4  and  C_5
REMARK    6  A    between atoms: P_17  and  O_18
REMARK    7  A    between atoms: P_17  and  O_19
REMARK                            x       y       z     vdW  Elec       q    Type
REMARK                         _______ _______ _______ _____ _____    ______ ____
ROOT
ATOM      1  C   UNL     1       2.151  -0.056  -0.019  0.00  0.00    +0.200 C 
ENDROOT
BRANCH   1   2
ATOM      2  C   UNL     1       2.690  -1.360   0.562  0.00  0.00    -0.019 A 
ATOM      3  C   UNL     1       2.074  -2.594   0.305  0.00  0.00    +0.006 A 
ATOM      4  C   UNL     1       2.606  -3.784   0.806  0.00  0.00    +0.000 A 
ATOM      5  C   UNL     1       3.775  -3.760   1.562  0.00  0.00    +0.000 A 
ATOM      6  C   UNL     1       4.407  -2.548   1.823  0.00  0.00    +0.000 A 
ATOM      7  C   UNL     1       3.869  -1.352   1.333  0.00  0.00    +0.006 A 
ENDBRANCH   1   2
BRANCH   1   8
ATOM      8  N   UNL     1       0.659  -0.045  -0.111  0.00  0.00    -0.296 NA
ATOM      9  H   UNL     1       0.413   0.821  -0.606  0.00  0.00    +0.123 HD
BRANCH   8  10
ATOM     10  C   UNL     1       0.020  -0.009   1.211  0.00  0.00    +0.117 C 
BRANCH  10  11
ATOM     11  C   UNL     1      -1.487   0.060   1.095  0.00  0.00    -0.034 A 
ATOM     12  C   UNL     1      -2.197   1.145   1.629  0.00  0.00    +0.005 A 
ATOM     13  C   UNL     1      -3.591   1.196   1.539  0.00  0.00    +0.000 A 
ATOM     14  C   UNL     1      -4.290   0.161   0.920  0.00  0.00    +0.000 A 
ATOM     15  C   UNL     1      -3.599  -0.927   0.391  0.00  0.00    +0.000 A 
ATOM     16  C   UNL     1      -2.207  -0.984   0.482  0.00  0.00    +0.005 A 
ENDBRANCH  10  11
ENDBRANCH   8  10
ENDBRANCH   1   8
BRANCH   1  17
ATOM     17  P   UNL     1       2.761   0.207  -1.724  0.00  0.00    +0.349 P 
ATOM     18  O   UNL     1       3.277   0.429  -3.167  0.00  0.00    -0.257 OA
BRANCH  17  19
ATOM     19  O   UNL     1       4.145   0.857  -1.084  0.00  0.00    -0.323 OA
ATOM     20  H   UNL     1       4.068   1.392  -0.277  0.00  0.00    +0.220 HD
ENDBRANCH  17  19
BRANCH  17  21
ATOM     21  O   UNL     1       1.914   1.629  -1.784  0.00  0.00    -0.323 OA
ATOM     22  H   UNL     1       2.122   1.993  -2.673  0.00  0.00    +0.220 HD
ENDBRANCH  17  21
ENDBRANCH   1  17
TORSDOF 7
