REMARK  Name = 
REMARK  5 active torsions:
REMARK  status: ('A' for Active; 'I' for Inactive)
REMARK    1  A    between atoms: O_1  and  C_2
REMARK    2  A    between atoms: C_2  and  C_4
REMARK    3  A    between atoms: C_2  and  C_8
REMARK    4  A    between atoms: C_4  and  C_5
REMARK    5  A    between atoms: C_5  and  O_6
REMARK                            x       y       z     vdW  Elec       q    Type
REMARK                         _______ _______ _______ _____ _____    ______ ____
ROOT
ATOM      1  C   UNL     1       2.255  -0.033  -0.041  0.00  0.00    +0.170 C 
ENDROOT
BRANCH   1   2
ATOM      2  C   UNL     1       2.858   0.231   1.362  0.00  0.00    +0.071 C 
ATOM      3  O   UNL     1       3.815  -0.559   1.633  0.00  0.00    -0.547 OA
ATOM      4  O   UNL     1       2.321   1.141   2.041  0.00  0.00    -0.547 OA
ENDBRANCH   1   2
BRANCH   1   5
ATOM      5  O   UNL     1       2.771  -1.296  -0.556  0.00  0.00    -0.385 OA
ATOM      6  H   UNL     1       3.426  -1.541   0.157  0.00  0.00    +0.210 HD
ENDBRANCH   1   5
BRANCH   1   7
ATOM      7  C   UNL     1       2.732   1.077  -0.957  0.00  0.00    +0.157 C 
BRANCH   7   8
ATOM      8  C   UNL     1       2.164   0.948  -2.350  0.00  0.00    +0.308 C 
ATOM      9  O   UNL     1       1.894   1.904  -3.065  0.00  0.00    -0.251 OA
BRANCH   8  10
ATOM     10  O   UNL     1       2.068  -0.327  -2.803  0.00  0.00    -0.481 OA
ATOM     11  H   UNL     1       2.356  -0.963  -2.094  0.00  0.00    +0.295 HD
ENDBRANCH   8  10
ENDBRANCH   7   8
ENDBRANCH   1   7
TORSDOF 5
