REMARK  Name = 
REMARK  8 active torsions:
REMARK  status: ('A' for Active; 'I' for Inactive)
REMARK    1  A    between atoms: C_1  and  O_2
REMARK    2  A    between atoms: O_2  and  C_3
REMARK    3  A    between atoms: N_5  and  C_6
REMARK    4  A    between atoms: C_9  and  C_11
REMARK    5  A    between atoms: C_11  and  O_12
REMARK    6  A    between atoms: C_13  and  O_15
REMARK    7  A    between atoms: C_16  and  O_18
REMARK    8  A    between atoms: C_19  and  O_21
REMARK                            x       y       z     vdW  Elec       q    Type
REMARK                         _______ _______ _______ _____ _____    ______ ____
ROOT
ATOM      1  C   UNL     1       5.169   1.739   1.691  0.00  0.00    +0.240 C 
ATOM      2  C   UNL     1       5.246   3.149   1.050  0.00  0.00    +0.192 C 
ATOM      3  C   UNL     1       5.891   3.100  -0.347  0.00  0.00    +0.178 C 
ATOM      4  C   UNL     1       7.211   2.321  -0.328  0.00  0.00    +0.177 C 
ATOM      5  C   UNL     1       7.087   0.950   0.363  0.00  0.00    +0.177 C 
ATOM      6  O   UNL     1       6.404   1.013   1.625  0.00  0.00    -0.348 OA
ENDROOT
BRANCH   1   8
ATOM      7  C   UNL     1       2.827   1.082   1.124  0.00  0.00    +0.402 C 
ATOM      8  N   UNL     1       4.160   0.866   1.172  0.00  0.00    -0.253 N 
ATOM      9  H   UNL     1       4.463   0.022   0.698  0.00  0.00    +0.155 HD
ATOM     10  O   UNL     1       2.237   2.065   1.542  0.00  0.00    -0.226 OA
BRANCH   7  12
ATOM     11  C   UNL     1       0.883   0.131   0.198  0.00  0.00    +0.282 C 
ATOM     12  O   UNL     1       2.274   0.031   0.476  0.00  0.00    -0.454 OA
ENDBRANCH   7  12
ENDBRANCH   1   8
BRANCH   2  13
ATOM     13  O   UNL     1       5.968   4.024   1.939  0.00  0.00    -0.385 OA
ATOM     14  H   UNL     1       6.604   4.545   1.413  0.00  0.00    +0.210 HD
ENDBRANCH   2  13
BRANCH   3  15
ATOM     15  O   UNL     1       4.997   2.580  -1.333  0.00  0.00    -0.386 OA
ATOM     16  H   UNL     1       4.569   1.786  -0.951  0.00  0.00    +0.210 HD
ENDBRANCH   3  15
BRANCH   4  17
ATOM     17  O   UNL     1       8.179   3.143   0.352  0.00  0.00    -0.386 OA
ATOM     18  H   UNL     1       8.920   2.573   0.648  0.00  0.00    +0.210 HD
ENDBRANCH   4  17
BRANCH   5  19
ATOM     19  C   UNL     1       6.579  -0.179  -0.561  0.00  0.00    +0.190 C 
BRANCH  19  20
ATOM     20  O   UNL     1       5.245   0.013  -1.022  0.00  0.00    -0.392 OA
ATOM     21  H   UNL     1       5.273   0.098  -1.994  0.00  0.00    +0.210 HD
ENDBRANCH  19  20
ENDBRANCH   5  19
TORSDOF 7
