REMARK  Name = 
REMARK  4 active torsions:
REMARK  status: ('A' for Active; 'I' for Inactive)
REMARK    1  A    between atoms: C_1  and  C_2
REMARK    2  A    between atoms: C_2  and  O_4
REMARK    3  A    between atoms: C_2  and  C_5
REMARK    4  A    between atoms: C_5  and  O_6
REMARK                            x       y       z     vdW  Elec       q    Type
REMARK                         _______ _______ _______ _____ _____    ______ ____
ROOT
ATOM      1  C   UNL     1       0.998   0.081   0.068  0.00  0.00    +0.049 C 
ATOM      2  C   UNL     1       2.514   0.035   0.036  0.00  0.00    +0.219 C 
ENDROOT
BRANCH   2   3
ATOM      3  C   UNL     1       3.016  -0.432  -1.330  0.00  0.00    +0.333 C 
ATOM      4  O   UNL     1       2.797   0.132  -2.391  0.00  0.00    -0.248 OA
BRANCH   3   5
ATOM      5  O   UNL     1       3.752  -1.570  -1.223  0.00  0.00    -0.479 OA
ATOM      6  H   UNL     1       3.759  -1.814  -0.267  0.00  0.00    +0.295 HD
ENDBRANCH   3   5
ENDBRANCH   2   3
BRANCH   2   7
ATOM      7  O   UNL     1       2.985  -0.886   1.034  0.00  0.00    -0.381 OA
ATOM      8  H   UNL     1       2.851  -0.450   1.897  0.00  0.00    +0.210 HD
ENDBRANCH   2   7
TORSDOF 3
