REMARK  Name = 
REMARK  8 active torsions:
REMARK  status: ('A' for Active; 'I' for Inactive)
REMARK    1  A    between atoms: C_1  and  C_2
REMARK    2  A    between atoms: C_2  and  C_3
REMARK    3  A    between atoms: C_6  and  C_7
REMARK    4  A    between atoms: C_6  and  C_8
REMARK    5  A    between atoms: C_11  and  N_12
REMARK    6  A    between atoms: C_13  and  C_15
REMARK    7  A    between atoms: C_18  and  C_21
REMARK    8  A    between atoms: C_21  and  O_22
REMARK                            x       y       z     vdW  Elec       q    Type
REMARK                         _______ _______ _______ _____ _____    ______ ____
ROOT
ATOM      1  C   UNL     1       0.867  -0.132  -0.254  0.00  0.00    +0.020 C 
ATOM      2  C   UNL     1       2.406  -0.086  -0.169  0.00  0.00    +0.008 C 
ATOM      3  C   UNL     1       2.856   1.196   0.546  0.00  0.00    -0.034 A 
ATOM      4  C   UNL     1       3.636   1.153   1.716  0.00  0.00    -0.032 A 
ATOM      5  C   UNL     1       4.034   2.370   2.314  0.00  0.00    +0.028 A 
ATOM      6  C   UNL     1       3.696   3.613   1.792  0.00  0.00    +0.034 A 
ATOM      7  C   UNL     1       2.918   3.651   0.637  0.00  0.00    +0.023 A 
ATOM      8  C   UNL     1       4.081  -0.161   2.371  0.00  0.00    +0.008 C 
ATOM      9  C   UNL     1       5.623  -0.234   2.392  0.00  0.00    +0.020 C 
ATOM     10  C   UNL     1       3.530  -0.235   3.812  0.00  0.00    +0.020 C 
ATOM     11  C   UNL     1       3.585  -1.390   1.645  0.00  0.00    -0.019 C 
ATOM     12  C   UNL     1       2.503   2.461   0.026  0.00  0.00    +0.006 A 
ATOM     13  C   UNL     1       2.846  -1.356   0.530  0.00  0.00    -0.019 C 
ATOM     14  C   UNL     1       3.016  -0.126  -1.585  0.00  0.00    +0.020 C 
ENDROOT
BRANCH   6  15
ATOM     15  N   UNL     1       4.113   4.835   2.369  0.00  0.00    -0.281 N 
ATOM     16  H   UNL     1       3.860   5.667   1.854  0.00  0.00    +0.155 HD
ATOM     17  C   UNL     1       4.891   4.979   3.508  0.00  0.00    +0.248 C 
ATOM     18  O   UNL     1       5.340   4.081   4.211  0.00  0.00    -0.270 OA
BRANCH  17  19
ATOM     19  C   UNL     1       5.244   6.372   3.895  0.00  0.00    +0.037 A 
ATOM     20  C   UNL     1       6.451   6.566   4.585  0.00  0.00    +0.014 A 
ATOM     21  C   UNL     1       6.832   7.840   5.001  0.00  0.00    +0.016 A 
ATOM     22  C   UNL     1       6.010   8.937   4.728  0.00  0.00    +0.059 A 
ATOM     23  C   UNL     1       4.783   8.745   4.073  0.00  0.00    +0.016 A 
ATOM     24  C   UNL     1       4.401   7.464   3.655  0.00  0.00    +0.014 A 
BRANCH  22  25
ATOM     25  C   UNL     1       6.455  10.273   5.202  0.00  0.00    +0.337 C 
ATOM     26  O   UNL     1       7.146  10.424   6.193  0.00  0.00    -0.245 OA
BRANCH  25  27
ATOM     27  O   UNL     1       6.065  11.289   4.408  0.00  0.00    -0.477 OA
ATOM     28  H   UNL     1       5.690  11.027   3.548  0.00  0.00    +0.295 HD
ENDBRANCH  25  27
ENDBRANCH  22  25
ENDBRANCH  17  19
ENDBRANCH   6  15
TORSDOF 4
