REMARK  Name = 
REMARK  4 active torsions:
REMARK  status: ('A' for Active; 'I' for Inactive)
REMARK    1  A    between atoms: O_1  and  C_2
REMARK    2  A    between atoms: C_2  and  C_4
REMARK    3  A    between atoms: C_2  and  C_8
REMARK    4  A    between atoms: C_5  and  O_6
REMARK                            x       y       z     vdW  Elec       q    Type
REMARK                         _______ _______ _______ _____ _____    ______ ____
ROOT
ATOM      1  C   UNL     1       2.380  -0.047   0.084  0.00  0.00    +0.185 C 
ENDROOT
BRANCH   1   2
ATOM      2  C   UNL     1       2.970   0.613  -1.213  0.00  0.00    +0.074 C 
ATOM      3  O   UNL     1       3.992   1.348  -0.999  0.00  0.00    -0.547 OA
ATOM      4  O   UNL     1       2.321   0.454  -2.289  0.00  0.00    -0.547 OA
ENDBRANCH   1   2
BRANCH   1   5
ATOM      5  C   UNL     1       2.770  -1.500   0.235  0.00  0.00    +0.039 C 
ATOM      6  C   UNL     1       2.990  -2.224   1.361  0.00  0.00    +0.046 C 
ATOM      7  O   UNL     1       3.283  -3.450   1.381  0.00  0.00    -0.848 OA
BRANCH   6   8
ATOM      8  O   UNL     1       2.850  -1.507   2.556  0.00  0.00    -0.522 OA
ATOM      9  H   UNL     1       2.782  -0.568   2.287  0.00  0.00    +0.290 HD
ENDBRANCH   6   8
ENDBRANCH   1   5
BRANCH   1  10
ATOM     10  O   UNL     1       2.841   0.713   1.238  0.00  0.00    -0.382 OA
ATOM     11  H   UNL     1       3.658   1.121   0.859  0.00  0.00    +0.211 HD
ENDBRANCH   1  10
TORSDOF 4
