REMARK  Name = 
REMARK  4 active torsions:
REMARK  status: ('A' for Active; 'I' for Inactive)
REMARK    1  A    between atoms: N_8  and  C_9
REMARK    2  A    between atoms: C_12  and  C_14
REMARK    3  A    between atoms: C_14  and  O_15
REMARK    4  A    between atoms: C_17  and  O_19
REMARK                            x       y       z     vdW  Elec       q    Type
REMARK                         _______ _______ _______ _____ _____    ______ ____
ROOT
ATOM      1  N   UNL     1       1.260   0.168   0.920  0.00  0.00    -0.329 N 
ATOM      2  H   UNL     1       0.949   0.909   1.531  0.00  0.00    +0.145 HD
ATOM      3  H   UNL     1       0.852  -0.736   1.146  0.00  0.00    +0.145 HD
ATOM      4  C   UNL     1       2.586   0.076   0.654  0.00  0.00    +0.195 A 
ATOM      5  N   UNL     1       3.308   1.252   0.637  0.00  0.00    -0.293 N 
ATOM      6  H   UNL     1       2.847   2.130   0.793  0.00  0.00    +0.172 HD
ATOM      7  C   UNL     1       4.671   1.340   0.356  0.00  0.00    +0.280 A 
ATOM      8  O   UNL     1       5.258   2.414   0.340  0.00  0.00    -0.265 OA
ATOM      9  C   UNL     1       5.264   0.043   0.102  0.00  0.00    +0.172 A 
ATOM     10  N   UNL     1       6.552  -0.335  -0.197  0.00  0.00    -0.229 NA
ATOM     11  C   UNL     1       6.496  -1.653  -0.304  0.00  0.00    +0.203 A 
ATOM     12  N   UNL     1       5.238  -2.129  -0.053  0.00  0.00    -0.286 N 
ATOM     13  C   UNL     1       4.437  -1.049   0.174  0.00  0.00    +0.171 A 
ATOM     14  N   UNL     1       3.112  -1.095   0.436  0.00  0.00    -0.196 NA
ENDROOT
BRANCH  12  15
ATOM     15  C   UNL     1       4.769  -3.492   0.051  0.00  0.00    +0.251 C 
ATOM     16  C   UNL     1       4.870  -4.072   1.464  0.00  0.00    +0.167 C 
ATOM     17  C   UNL     1       5.118  -5.554   1.235  0.00  0.00    +0.069 C 
ATOM     18  C   UNL     1       5.238  -5.705  -0.278  0.00  0.00    +0.149 C 
ATOM     19  O   UNL     1       5.532  -4.382  -0.784  0.00  0.00    -0.348 OA
BRANCH  16  20
ATOM     20  O   UNL     1       3.673  -3.895   2.214  0.00  0.00    -0.387 OA
ATOM     21  H   UNL     1       3.868  -4.122   3.140  0.00  0.00    +0.210 HD
ENDBRANCH  16  20
BRANCH  18  22
ATOM     22  C   UNL     1       3.932  -6.224  -0.907  0.00  0.00    +0.187 C 
BRANCH  22  23
ATOM     23  O   UNL     1       4.064  -6.299  -2.323  0.00  0.00    -0.392 OA
ATOM     24  H   UNL     1       4.319  -5.408  -2.626  0.00  0.00    +0.210 HD
ENDBRANCH  22  23
ENDBRANCH  18  22
ENDBRANCH  12  15
TORSDOF 4
