REMARK  Name = 
REMARK  13 active torsions:
REMARK  status: ('A' for Active; 'I' for Inactive)
REMARK    1  A    between atoms: C_1  and  C_2
REMARK    2  A    between atoms: C_2  and  C_3
REMARK    3  A    between atoms: C_3  and  C_4
REMARK    4  A    between atoms: C_3  and  N_6
REMARK    5  A    between atoms: C_4  and  C_5
REMARK    6  A    between atoms: N_6  and  C_7
REMARK    7  A    between atoms: C_9  and  C_23
REMARK    8  A    between atoms: C_12  and  N_13
REMARK    9  A    between atoms: C_18  and  C_19
REMARK   10  A    between atoms: C_18  and  C_21
REMARK   11  A    between atoms: C_19  and  O_20
REMARK   12  A    between atoms: C_21  and  O_22
REMARK   13  A    between atoms: C_23  and  O_24
REMARK                            x       y       z     vdW  Elec       q    Type
REMARK                         _______ _______ _______ _____ _____    ______ ____
ROOT
ATOM      1  C   UNL     1       5.131   2.098   1.602  0.00  0.00    +0.050 A 
ATOM      2  C   UNL     1       6.279   1.720   2.356  0.00  0.00    +0.058 A 
ATOM      3  C   UNL     1       6.985   2.682   3.093  0.00  0.00    +0.026 A 
ATOM      4  C   UNL     1       6.573   4.018   3.106  0.00  0.00    +0.017 A 
ATOM      5  C   UNL     1       5.461   4.405   2.363  0.00  0.00    +0.061 A 
ATOM      6  C   UNL     1       4.742   3.447   1.643  0.00  0.00    +0.039 A 
ENDROOT
BRANCH   2   7
ATOM      7  N   UNL     1       6.792   0.403   2.217  0.00  0.00    -0.259 N 
ATOM      8  C   UNL     1       7.037  -0.553   3.292  0.00  0.00    +0.089 C 
ATOM      9  C   UNL     1       7.480  -1.826   2.528  0.00  0.00    +0.040 C 
ATOM     10  C   UNL     1       7.849  -1.384   1.120  0.00  0.00    +0.098 C 
ATOM     11  C   UNL     1       7.478   0.066   1.050  0.00  0.00    +0.221 C 
ATOM     12  O   UNL     1       7.732   0.786   0.095  0.00  0.00    -0.275 OA
BRANCH   8  13
ATOM     13  C   UNL     1       5.786  -0.845   4.143  0.00  0.00    +0.184 C 
BRANCH  13  14
ATOM     14  O   UNL     1       4.695  -1.301   3.335  0.00  0.00    -0.393 OA
ATOM     15  H   UNL     1       4.346  -0.514   2.871  0.00  0.00    +0.209 HD
ENDBRANCH  13  14
ENDBRANCH   8  13
BRANCH   8  16
ATOM     16  C   UNL     1       8.173  -0.155   4.286  0.00  0.00    +0.184 C 
BRANCH  16  17
ATOM     17  O   UNL     1       9.393   0.185   3.636  0.00  0.00    -0.393 OA
ATOM     18  H   UNL     1       9.858  -0.637   3.400  0.00  0.00    +0.209 HD
ENDBRANCH  16  17
ENDBRANCH   8  16
ENDBRANCH   2   7
BRANCH   1  19
ATOM     19  N   UNL     1       4.355   1.133   0.948  0.00  0.00    -0.340 N 
ATOM     20  H   UNL     1       4.784   0.220   0.842  0.00  0.00    +0.146 HD
BRANCH  19  21
ATOM     21  C   UNL     1       3.301   1.481  -0.017  0.00  0.00    +0.070 C 
BRANCH  21  23
ATOM     22  C   UNL     1       2.267   0.838  -2.268  0.00  0.00    +0.006 C 
ATOM     23  C   UNL     1       3.342   0.527  -1.229  0.00  0.00    +0.019 C 
ENDBRANCH  21  23
BRANCH  21  24
ATOM     24  C   UNL     1       1.950   1.519   0.722  0.00  0.00    +0.019 C 
ATOM     25  C   UNL     1       1.536   0.198   1.356  0.00  0.00    +0.006 C 
ENDBRANCH  21  24
ENDBRANCH  19  21
ENDBRANCH   1  19
BRANCH   5  26
ATOM     26  C   UNL     1       4.971   5.807   2.314  0.00  0.00    +0.337 C 
ATOM     27  O   UNL     1       3.793   6.099   2.209  0.00  0.00    -0.245 OA
BRANCH  26  28
ATOM     28  O   UNL     1       5.964   6.727   2.336  0.00  0.00    -0.477 OA
ATOM     29  H   UNL     1       6.857   6.363   2.197  0.00  0.00    +0.295 HD
ENDBRANCH  26  28
ENDBRANCH   5  26
TORSDOF 11
