REMARK  Name = 
REMARK  15 active torsions:
REMARK  status: ('A' for Active; 'I' for Inactive)
REMARK    1  A    between atoms: N_1  and  C_2
REMARK    2  A    between atoms: C_2  and  C_4
REMARK    3  A    between atoms: C_2  and  C_28
REMARK    4  A    between atoms: C_4  and  C_5
REMARK    5  A    between atoms: C_5  and  C_6
REMARK    6  A    between atoms: N_8  and  C_9
REMARK    7  A    between atoms: C_9  and  C_11
REMARK    8  A    between atoms: C_9  and  C_21
REMARK    9  A    between atoms: C_11  and  S_12
REMARK   10  A    between atoms: S_12  and  C_13
REMARK   11  A    between atoms: C_13  and  C_14
REMARK   12  A    between atoms: N_23  and  CA_24
REMARK   13  A    between atoms: CA_24  and  C_25
REMARK   14  A    between atoms: C_25  and  O_26
REMARK   15  A    between atoms: C_28  and  O_29
REMARK                            x       y       z     vdW  Elec       q    Type
REMARK                         _______ _______ _______ _____ _____    ______ ____
ROOT
ATOM      1  C   UNK A   1       3.153   6.240  -1.488  0.00  0.00    +0.169 C 
ENDROOT
BRANCH   1   3
ATOM      2  C   UNK A   1       1.929   6.681   0.628  0.00  0.00    +0.214 C 
ATOM      3  N   UNK A   1       2.921   7.006  -0.264  0.00  0.00    -0.303 N 
ATOM      4  H   UNK A   1       3.343   7.928  -0.202  0.00  0.00    +0.149 HD
ATOM      5  O   UNK A   1       1.168   5.730   0.469  0.00  0.00    -0.276 OA
BRANCH   2   6
ATOM      6  C   UNK A   1       1.865   7.580   1.845  0.00  0.00    +0.098 C 
BRANCH   6   7
ATOM      7  C   UNK A   1       0.925   8.770   1.644  0.00  0.00    +0.039 C 
BRANCH   7   8
ATOM      8  C   UNK A   1       0.849   9.692   2.872  0.00  0.00    +0.161 C 
BRANCH   8   9
ATOM      9  N   UNK A   1      -0.195  10.747   2.659  0.00  0.00    -0.318 NA
ATOM     10  H   UNK A   1      -0.227  10.981   1.660  0.00  0.00    +0.119 HD
ATOM     11  H   UNK A   1      -1.110  10.322   2.840  0.00  0.00    +0.119 HD
ENDBRANCH   8   9
BRANCH   8  12
ATOM     12  C   UNK A   1       2.186  10.411   3.169  0.00  0.00    +0.322 C 
ATOM     13  O   UNK A   1       3.269   9.870   3.315  0.00  0.00    -0.249 OA
BRANCH  12  14
ATOM     14  O   UNK A   1       2.012  11.754   3.274  0.00  0.00    -0.480 OA
ATOM     15  H   UNK A   1       1.039  11.903   3.161  0.00  0.00    +0.295 HD
ENDBRANCH  12  14
ENDBRANCH   8  12
ENDBRANCH   7   8
ENDBRANCH   6   7
ENDBRANCH   2   6
ENDBRANCH   1   3
BRANCH   1  16
ATOM     16  C   UNK A   1       2.671   7.081  -2.691  0.00  0.00    +0.235 C 
ATOM     17  N   GLY A   2       2.628   6.413  -3.904  0.00  0.00    -0.303 N 
ATOM     18  H   GLY A   2       3.193   5.581  -4.037  0.00  0.00    +0.149 HD
ATOM     19  O   UNK A   1       2.276   8.239  -2.581  0.00  0.00    -0.274 OA
BRANCH  17  20
ATOM     20  CA  GLY A   2       2.168   7.094  -5.120  0.00  0.00    +0.224 C 
BRANCH  20  21
ATOM     21  C   GLY A   2       0.664   6.954  -5.355  0.00  0.00    +0.322 C 
ATOM     22  OXT GLY A   2       0.077   7.439  -6.312  0.00  0.00    -0.249 OA
BRANCH  21  23
ATOM     23  O   GLY A   2       0.032   6.190  -4.432  0.00  0.00    -0.480 OA
ATOM     24  H   GLY A   2       0.652   5.928  -3.724  0.00  0.00    +0.295 HD
ENDBRANCH  21  23
ENDBRANCH  20  21
ENDBRANCH  17  20
ENDBRANCH   1  16
BRANCH   1  25
ATOM     25  C   UNK A   1       4.626   5.832  -1.643  0.00  0.00    +0.101 C 
BRANCH  25  26
ATOM     26  S   UNK A   1       5.331   4.912  -0.218  0.00  0.00    -0.154 S 
BRANCH  26  27
ATOM     27  C   UNK A   1       4.238   3.454  -0.203  0.00  0.00    +0.105 C 
BRANCH  27  28
ATOM     28  C   UNK A   1       4.592   2.484   0.898  0.00  0.00    -0.024 A 
ATOM     29  C   UNK A   1       5.503   1.422   0.759  0.00  0.00    +0.017 A 
ATOM     30  I   UNK A   1       6.593   1.062  -1.001  0.00  0.00    -0.044 I 
ATOM     31  C   UNK A   1       5.732   0.535   1.823  0.00  0.00    +0.014 A 
ATOM     32  C   UNK A   1       5.073   0.705   3.039  0.00  0.00    +0.001 A 
ATOM     33  C   UNK A   1       4.193   1.769   3.205  0.00  0.00    +0.000 A 
ATOM     34  C   UNK A   1       3.956   2.648   2.146  0.00  0.00    +0.005 A 
ENDBRANCH  27  28
ENDBRANCH  26  27
ENDBRANCH  25  26
ENDBRANCH   1  25
TORSDOF 15
