REMARK  Name = 
REMARK  8 active torsions:
REMARK  status: ('A' for Active; 'I' for Inactive)
REMARK    1  A    between atoms: C_1  and  O_2
REMARK    2  A    between atoms: O_2  and  C_3
REMARK    3  A    between atoms: C_5  and  C_6
REMARK    4  A    between atoms: C_7  and  C_8
REMARK    5  A    between atoms: C_9  and  C_10
REMARK    6  A    between atoms: C_12  and  N_13
REMARK    7  A    between atoms: C_21  and  O_22
REMARK    8  A    between atoms: O_22  and  C_23
REMARK                            x       y       z     vdW  Elec       q    Type
REMARK                         _______ _______ _______ _____ _____    ______ ____
ROOT
ATOM      1  C   UNL     1       4.301   2.323  -3.142  0.00  0.00    -0.003 A 
ATOM      2  C   UNL     1       2.979   2.430  -2.751  0.00  0.00    +0.121 A 
ATOM      3  N   UNL     1       2.558   3.079  -1.647  0.00  0.00    -0.235 NA
ATOM      4  C   UNL     1       3.455   3.665  -0.858  0.00  0.00    +0.167 A 
ATOM      5  C   UNL     1       4.809   3.739  -1.204  0.00  0.00    +0.062 A 
ATOM      6  C   UNL     1       5.566   4.500  -0.285  0.00  0.00    +0.131 A 
ATOM      7  N   UNL     1       5.073   4.982   0.862  0.00  0.00    -0.199 NA
ATOM      8  C   UNL     1       3.801   4.725   1.118  0.00  0.00    +0.216 A 
ATOM      9  N   UNL     1       3.311   5.084   2.355  0.00  0.00    -0.327 N 
ATOM     10  H   UNL     1       2.306   5.185   2.321  0.00  0.00    +0.145 HD
ATOM     11  H   UNL     1       3.853   5.835   2.755  0.00  0.00    +0.145 HD
ATOM     12  N   UNL     1       2.965   4.142   0.274  0.00  0.00    -0.195 NA
ATOM     13  C   UNL     1       5.248   3.045  -2.393  0.00  0.00    -0.028 A 
ATOM     14  C   UNL     1       6.698   3.037  -2.806  0.00  0.00    +0.045 C 
ENDROOT
BRANCH   6  15
ATOM     15  N   UNL     1       6.905   4.845  -0.480  0.00  0.00    -0.342 N 
ATOM     16  H   UNL     1       7.182   5.389   0.334  0.00  0.00    +0.144 HD
ATOM     17  H   UNL     1       7.498   4.031  -0.577  0.00  0.00    +0.144 HD
ENDBRANCH   6  15
BRANCH   1  19
ATOM     18  C   UNL     1       4.657   0.084  -4.172  0.00  0.00    +0.012 C 
ATOM     19  C   UNL     1       4.649   1.427  -4.254  0.00  0.00    +0.010 C 
BRANCH  18  24
ATOM     20  C   UNL     1       4.879  -1.443  -0.739  0.00  0.00    +0.121 A 
ATOM     21  C   UNL     1       3.609  -1.991  -0.588  0.00  0.00    +0.049 A 
ATOM     22  C   UNL     1       2.675  -1.888  -1.621  0.00  0.00    +0.050 A 
ATOM     23  C   UNL     1       3.003  -1.232  -2.812  0.00  0.00    +0.127 A 
ATOM     24  C   UNL     1       4.296  -0.692  -2.970  0.00  0.00    +0.020 A 
ATOM     25  C   UNL     1       5.240  -0.837  -1.942  0.00  0.00    +0.057 A 
BRANCH  20  27
ATOM     26  C   UNL     1       5.300  -1.139   1.532  0.00  0.00    +0.277 C 
ATOM     27  O   UNL     1       5.830  -1.471   0.247  0.00  0.00    -0.495 OA
ENDBRANCH  20  27
BRANCH  23  28
ATOM     28  O   UNL     1       2.138  -1.068  -3.864  0.00  0.00    -0.495 OA
ATOM     29  C   UNL     1       0.822  -1.586  -3.704  0.00  0.00    +0.277 C 
ENDBRANCH  23  28
ENDBRANCH  18  24
ENDBRANCH   1  19
TORSDOF 5
