REMARK  Name = 
REMARK  11 active torsions:
REMARK  status: ('A' for Active; 'I' for Inactive)
REMARK    1  A    between atoms: C_2  and  C_3
REMARK    2  A    between atoms: C_3  and  C_5
REMARK    3  A    between atoms: C_3  and  C_8
REMARK    4  A    between atoms: C_5  and  C_6
REMARK    5  A    between atoms: C_5  and  C_7
REMARK    6  A    between atoms: C_13  and  N_15
REMARK    7  A    between atoms: N_15  and  S_16
REMARK    8  A    between atoms: S_16  and  C_19
REMARK    9  A    between atoms: C_20  and  C_22
REMARK   10  A    between atoms: C_23  and  C_24
REMARK   11  A    between atoms: C_24  and  N_25
REMARK                            x       y       z     vdW  Elec       q    Type
REMARK                         _______ _______ _______ _____ _____    ______ ____
ROOT
ATOM      1  C   UNL     1       4.512  -0.720   0.946  0.00  0.00    +0.105 C 
ATOM      2  C   UNL     1       5.227  -1.959   1.552  0.00  0.00    +0.099 C 
ATOM      3  C   UNL     1       6.578  -1.413   2.040  0.00  0.00    +0.041 C 
ATOM      4  C   UNL     1       6.393   0.089   2.216  0.00  0.00    +0.110 C 
ATOM      5  N   UNL     1       5.039   0.381   1.778  0.00  0.00    -0.293 N 
ATOM      6  C   UNL     1       4.454   1.571   2.156  0.00  0.00    +0.239 C 
ATOM      7  O   UNL     1       5.072   2.454   2.742  0.00  0.00    -0.271 OA
ENDROOT
BRANCH   2   8
ATOM      8  N   UNL     1       4.414  -2.455   2.731  0.00  0.00    -0.190 NA
ATOM      9  H   UNL     1       4.358  -1.733   3.456  0.00  0.00    +0.148 HD
BRANCH   8  10
ATOM     10  S   UNL     1       4.946  -3.921   3.410  0.00  0.00    +0.027 S 
ATOM     11  C   UNL     1       3.554  -4.392   4.409  0.00  0.00    +0.214 C 
ATOM     12  O   UNL     1       6.034  -3.596   4.307  0.00  0.00    -0.158 OA
ATOM     13  O   UNL     1       5.093  -4.879   2.341  0.00  0.00    -0.158 OA
ENDBRANCH   8  10
ENDBRANCH   2   8
BRANCH   6  14
ATOM     14  C   UNL     1       3.006   1.718   1.884  0.00  0.00    +0.064 C 
ATOM     15  C   UNL     1       2.411   2.922   1.857  0.00  0.00    -0.007 C 
BRANCH  15  16
ATOM     16  C   UNL     1       0.927   3.070   1.688  0.00  0.00    +0.112 C 
BRANCH  16  17
ATOM     17  N   UNL     1       0.521   3.838   0.505  0.00  0.00    -0.299 NA
ATOM     18  C   UNL     1      -0.950   3.927   0.427  0.00  0.00    +0.085 C 
ATOM     19  C   UNL     1      -1.633   2.605   0.048  0.00  0.00    +0.015 C 
ATOM     20  C   UNL     1      -1.052   2.022  -1.236  0.00  0.00    +0.002 C 
ATOM     21  C   UNL     1       0.471   1.984  -1.192  0.00  0.00    +0.015 C 
ATOM     22  C   UNL     1       1.053   3.333  -0.769  0.00  0.00    +0.085 C 
ENDBRANCH  16  17
ENDBRANCH  15  16
ENDBRANCH   6  14
BRANCH   1  23
ATOM     23  C   UNL     1       4.732  -0.461  -0.578  0.00  0.00    +0.076 C 
BRANCH  23  24
ATOM     24  C   UNL     1       4.041  -1.486  -1.528  0.00  0.00    -0.005 C 
ATOM     25  C   UNL     1       4.340  -1.185  -3.009  0.00  0.00    +0.008 C 
ATOM     26  C   UNL     1       2.518  -1.505  -1.357  0.00  0.00    +0.008 C 
ENDBRANCH  23  24
BRANCH  23  28
ATOM     27  O   UNL     1       6.912  -1.362  -1.153  0.00  0.00    -0.301 OA
ATOM     28  C   UNL     1       6.211  -0.381  -0.895  0.00  0.00    +0.228 C 
ENDBRANCH  23  28
ENDBRANCH   1  23
TORSDOF 8
