REMARK  Name = 
REMARK  17 active torsions:
REMARK  status: ('A' for Active; 'I' for Inactive)
REMARK    1  A    between atoms: N_10  and  C_11
REMARK    2  A    between atoms: C_14  and  C_16
REMARK    3  A    between atoms: C_16  and  O_17
REMARK    4  A    between atoms: O_17  and  P_18
REMARK    5  A    between atoms: P_18  and  O_19
REMARK    6  A    between atoms: P_18  and  O_21
REMARK    7  A    between atoms: O_21  and  P_22
REMARK    8  A    between atoms: P_22  and  O_23
REMARK    9  A    between atoms: P_22  and  C_25
REMARK   10  A    between atoms: C_25  and  P_26
REMARK   11  A    between atoms: P_26  and  O_27
REMARK   12  A    between atoms: P_26  and  O_29
REMARK   13  A    between atoms: O_29  and  P_30
REMARK   14  A    between atoms: P_30  and  O_31
REMARK   15  A    between atoms: P_30  and  O_32
REMARK   16  A    between atoms: C_34  and  O_36
REMARK   17  A    between atoms: C_37  and  O_39
REMARK                            x       y       z     vdW  Elec       q    Type
REMARK                         _______ _______ _______ _____ _____    ______ ____
ROOT
ATOM      1  C   UNL     1       3.599  -1.051   1.801  0.00  0.00    +0.206 C 
ENDROOT
BRANCH   1   5
ATOM      2  C   UNL     1       2.091   1.443  -0.442  0.00  0.00    +0.253 C 
ATOM      3  C   UNL     1       2.571   2.412   0.662  0.00  0.00    +0.195 C 
ATOM      4  C   UNL     1       3.025   1.501   1.817  0.00  0.00    +0.178 C 
ATOM      5  C   UNL     1       2.762   0.102   1.265  0.00  0.00    +0.178 C 
ATOM      6  O   UNL     1       2.872   0.247  -0.164  0.00  0.00    -0.346 OA
BRANCH   2  14
ATOM      7  N   UNL     1      -3.851   0.391   0.163  0.00  0.00    -0.341 N 
ATOM      8  H   UNL     1      -3.748  -0.374  -0.495  0.00  0.00    +0.144 HD
ATOM      9  H   UNL     1      -4.709   0.924   0.139  0.00  0.00    +0.144 HD
ATOM     10  C   UNL     1      -2.728   1.208   0.228  0.00  0.00    +0.147 A 
ATOM     11  C   UNL     1      -1.456   0.794  -0.199  0.00  0.00    +0.147 A 
ATOM     12  N   UNL     1      -1.015  -0.383  -0.759  0.00  0.00    -0.231 NA
ATOM     13  C   UNL     1       0.274  -0.202  -0.929  0.00  0.00    +0.203 A 
ATOM     14  N   UNL     1       0.696   1.035  -0.486  0.00  0.00    -0.286 N 
ATOM     15  C   UNL     1      -0.416   1.703  -0.057  0.00  0.00    +0.167 A 
ATOM     16  N   UNL     1      -0.507   2.951   0.426  0.00  0.00    -0.216 NA
ATOM     17  C   UNL     1      -1.772   3.242   0.792  0.00  0.00    +0.225 A 
ATOM     18  N   UNL     1      -2.870   2.459   0.715  0.00  0.00    -0.219 NA
ENDBRANCH   2  14
BRANCH   4  19
ATOM     19  O   UNL     1       2.228   1.706   2.981  0.00  0.00    -0.386 OA
ATOM     20  H   UNL     1       2.818   1.984   3.704  0.00  0.00    +0.210 HD
ENDBRANCH   4  19
BRANCH   3  21
ATOM     21  O   UNL     1       3.716   3.160   0.188  0.00  0.00    -0.385 OA
ATOM     22  H   UNL     1       4.416   2.524  -0.050  0.00  0.00    +0.210 HD
ENDBRANCH   3  21
ENDBRANCH   1   5
BRANCH   1  23
ATOM     23  O   UNL     1       4.975  -0.969   1.495  0.00  0.00    -0.284 OA
BRANCH  23  24
ATOM     24  P   UNL     1       5.841  -2.192   2.117  0.00  0.00    +0.482 P 
ATOM     25  O   UNL     1       5.514  -3.523   1.525  0.00  0.00    -0.227 OA
BRANCH  24  26
ATOM     26  O   UNL     1       7.322  -1.709   1.799  0.00  0.00    -0.302 OA
ATOM     27  H   UNL     1       7.561  -1.867   0.867  0.00  0.00    +0.222 HD
ENDBRANCH  24  26
BRANCH  24  28
ATOM     28  O   UNL     1       5.595  -1.985   3.657  0.00  0.00    -0.208 OA
BRANCH  28  29
ATOM     29  P   UNL     1       6.534  -2.336   5.067  0.00  0.00    +0.350 P 
ATOM     30  O   UNL     1       6.006  -3.778   5.097  0.00  0.00    -0.258 OA
BRANCH  29  31
ATOM     31  O   UNL     1       5.420  -1.518   5.967  0.00  0.00    -0.323 OA
ATOM     32  H   UNL     1       4.592  -2.042   5.956  0.00  0.00    +0.220 HD
ENDBRANCH  29  31
BRANCH  29  33
ATOM     33  C   UNL     1       7.527  -2.708   6.559  0.00  0.00    +0.254 C 
BRANCH  33  34
ATOM     34  P   UNL     1       8.745  -1.556   7.037  0.00  0.00    +0.350 P 
ATOM     35  O   UNL     1       8.403  -0.142   7.391  0.00  0.00    -0.258 OA
BRANCH  34  36
ATOM     36  O   UNL     1       9.600  -2.255   8.202  0.00  0.00    -0.323 OA
ATOM     37  H   UNL     1      10.180  -1.625   8.674  0.00  0.00    +0.220 HD
ENDBRANCH  34  36
BRANCH  34  38
ATOM     38  O   UNL     1       9.683  -1.683   5.755  0.00  0.00    -0.208 OA
BRANCH  38  39
ATOM     39  P   UNL     1       9.565  -0.557   4.447  0.00  0.00    +0.479 P 
ATOM     40  O   UNL     1       9.461   0.451   3.276  0.00  0.00    -0.227 OA
BRANCH  39  41
ATOM     41  O   UNL     1       7.996  -0.336   4.828  0.00  0.00    -0.302 OA
ATOM     42  H   UNL     1       7.875   0.474   5.376  0.00  0.00    +0.222 HD
ENDBRANCH  39  41
BRANCH  39  43
ATOM     43  O   UNL     1       9.358  -1.910   3.557  0.00  0.00    -0.302 OA
ATOM     44  H   UNL     1      10.203  -2.297   3.268  0.00  0.00    +0.222 HD
ENDBRANCH  39  43
ENDBRANCH  38  39
ENDBRANCH  34  38
ENDBRANCH  33  34
ENDBRANCH  29  33
ENDBRANCH  28  29
ENDBRANCH  24  28
ENDBRANCH  23  24
ENDBRANCH   1  23
TORSDOF 17
