REMARK  Name = 
REMARK  4 active torsions:
REMARK  status: ('A' for Active; 'I' for Inactive)
REMARK    1  A    between atoms: O_1  and  C_2
REMARK    2  A    between atoms: C_2  and  C_3
REMARK    3  A    between atoms: C_8  and  O_10
REMARK    4  A    between atoms: C_11  and  O_13
REMARK                            x       y       z     vdW  Elec       q    Type
REMARK                         _______ _______ _______ _____ _____    ______ ____
ROOT
ATOM      1  C   UNL     1       2.877  -0.482   1.221  0.00  0.00    +0.198 C 
ATOM      2  C   UNL     1       4.416  -0.417   1.182  0.00  0.00    +0.177 C 
ATOM      3  C   UNL     1       4.983  -1.453   0.204  0.00  0.00    +0.162 C 
ATOM      4  C   UNL     1       4.341  -2.824   0.456  0.00  0.00    +0.145 C 
ATOM      5  N   UNL     1       2.883  -2.753   0.336  0.00  0.00    -0.198 NA
ATOM      6  H   UNL     1       2.595  -2.320  -0.537  0.00  0.00    +0.154 HD
ATOM      7  O   UNL     1       2.407  -1.842   1.376  0.00  0.00    -0.291 OA
ENDROOT
BRANCH   2   8
ATOM      8  O   UNL     1       4.937  -0.674   2.501  0.00  0.00    -0.386 OA
ATOM      9  H   UNL     1       5.884  -0.452   2.488  0.00  0.00    +0.210 HD
ENDBRANCH   2   8
BRANCH   3  10
ATOM     10  O   UNL     1       4.746  -1.026  -1.141  0.00  0.00    -0.388 OA
ATOM     11  H   UNL     1       4.723  -1.814  -1.711  0.00  0.00    +0.210 HD
ENDBRANCH   3  10
BRANCH   1  12
ATOM     12  C   UNL     1       2.176   0.212   0.042  0.00  0.00    +0.192 C 
BRANCH  12  13
ATOM     13  O   UNL     1       2.539   1.588  -0.041  0.00  0.00    -0.392 OA
ATOM     14  H   UNL     1       2.139   1.935  -0.858  0.00  0.00    +0.210 HD
ENDBRANCH  12  13
ENDBRANCH   1  12
TORSDOF 4
