REMARK  Name = 
REMARK  11 active torsions:
REMARK  status: ('A' for Active; 'I' for Inactive)
REMARK    1  A    between atoms: O_1  and  C_2
REMARK    2  A    between atoms: C_4  and  O_6
REMARK    3  A    between atoms: C_7  and  N_22
REMARK    4  A    between atoms: C_10  and  C_12
REMARK    5  A    between atoms: C_12  and  O_13
REMARK    6  A    between atoms: O_13  and  P_14
REMARK    7  A    between atoms: P_14  and  O_15
REMARK    8  A    between atoms: P_14  and  O_17
REMARK    9  A    between atoms: O_17  and  P_18
REMARK   10  A    between atoms: P_18  and  O_19
REMARK   11  A    between atoms: P_18  and  O_20
REMARK                            x       y       z     vdW  Elec       q    Type
REMARK                         _______ _______ _______ _____ _____    ______ ____
ROOT
ATOM      1  C   UNL     1       0.509  -7.254  -0.409  0.00  0.00    +0.178 C 
ATOM      2  C   UNL     1       0.764  -5.923   0.306  0.00  0.00    +0.178 C 
ATOM      3  O   UNL     1      -0.467  -5.549   0.972  0.00  0.00    -0.346 OA
ATOM      4  C   UNL     1      -1.482  -6.544   0.690  0.00  0.00    +0.255 C 
ATOM      5  C   UNL     1      -0.701  -7.820   0.314  0.00  0.00    +0.195 C 
ENDROOT
BRANCH   4   6
ATOM      6  N   UNL     1      -2.417  -6.041  -0.346  0.00  0.00    -0.271 N 
ATOM      7  C   UNL     1      -3.502  -6.858  -0.681  0.00  0.00    +0.331 A 
ATOM      8  O   UNL     1      -3.679  -7.980  -0.222  0.00  0.00    -0.246 OA
ATOM      9  N   UNL     1      -4.382  -6.332  -1.595  0.00  0.00    -0.275 N 
ATOM     10  H   UNL     1      -5.168  -6.911  -1.848  0.00  0.00    +0.173 HD
ATOM     11  C   UNL     1      -4.359  -5.070  -2.102  0.00  0.00    +0.254 A 
ATOM     12  O   UNL     1      -5.219  -4.628  -2.854  0.00  0.00    -0.268 OA
ATOM     13  C   UNL     1      -3.230  -4.234  -1.675  0.00  0.00    +0.088 A 
ATOM     14  C   UNL     1      -2.332  -4.743  -0.823  0.00  0.00    +0.098 A 
ENDBRANCH   4   6
BRANCH   1  15
ATOM     15  O   UNL     1       0.189  -7.046  -1.791  0.00  0.00    -0.386 OA
ATOM     16  H   UNL     1      -0.503  -6.366  -1.855  0.00  0.00    +0.210 HD
ENDBRANCH   1  15
BRANCH   5  17
ATOM     17  O   UNL     1      -0.266  -8.506   1.499  0.00  0.00    -0.385 OA
ATOM     18  H   UNL     1       0.126  -9.349   1.212  0.00  0.00    +0.210 HD
ENDBRANCH   5  17
BRANCH   2  19
ATOM     19  C   UNL     1       1.912  -5.960   1.328  0.00  0.00    +0.206 C 
BRANCH  19  20
ATOM     20  O   UNL     1       3.164  -6.236   0.696  0.00  0.00    -0.284 OA
BRANCH  20  21
ATOM     21  P   UNL     1       4.470  -6.301   1.706  0.00  0.00    +0.483 P 
ATOM     22  O   UNL     1       5.694  -6.693   0.877  0.00  0.00    -0.227 OA
BRANCH  21  23
ATOM     23  O   UNL     1       4.822  -4.646   1.347  0.00  0.00    -0.302 OA
ATOM     24  H   UNL     1       5.519  -4.718   0.662  0.00  0.00    +0.222 HD
ENDBRANCH  21  23
BRANCH  21  25
ATOM     25  O   UNL     1       4.119  -7.956   2.065  0.00  0.00    -0.186 OA
BRANCH  25  26
ATOM     26  P   UNL     1       5.067  -8.467   3.419  0.00  0.00    +0.481 P 
ATOM     27  O   UNL     1       5.917  -8.924   4.630  0.00  0.00    -0.227 OA
BRANCH  26  28
ATOM     28  O   UNL     1       3.784  -9.431   3.746  0.00  0.00    -0.302 OA
ATOM     29  H   UNL     1       3.590 -10.013   2.990  0.00  0.00    +0.222 HD
ENDBRANCH  26  28
BRANCH  26  30
ATOM     30  O   UNL     1       4.476  -7.171   4.230  0.00  0.00    -0.302 OA
ATOM     31  H   UNL     1       4.486  -7.457   5.170  0.00  0.00    +0.222 HD
ENDBRANCH  26  30
ENDBRANCH  25  26
ENDBRANCH  21  25
ENDBRANCH  20  21
ENDBRANCH  19  20
ENDBRANCH   2  19
TORSDOF 11
