REMARK  Name = 
REMARK  16 active torsions:
REMARK  status: ('A' for Active; 'I' for Inactive)
REMARK    1  A    between atoms: C_2  and  C_3
REMARK    2  A    between atoms: C_2  and  N_10
REMARK    3  A    between atoms: C_2  and  C_32
REMARK    4  A    between atoms: C_3  and  C_4
REMARK    5  A    between atoms: C_11  and  C_13
REMARK    6  A    between atoms: C_13  and  C_15
REMARK    7  A    between atoms: C_13  and  C_19
REMARK    8  A    between atoms: C_15  and  C_16
REMARK    9  A    between atoms: C_16  and  C_17
REMARK   10  A    between atoms: C_16  and  C_18
REMARK   11  A    between atoms: C_19  and  C_21
REMARK   12  A    between atoms: C_19  and  C_28
REMARK   13  A    between atoms: C_21  and  S_22
REMARK   14  A    between atoms: S_22  and  C_23
REMARK   15  A    between atoms: N_30  and  O_31
REMARK   16  A    between atoms: N_34  and  C_35
REMARK                            x       y       z     vdW  Elec       q    Type
REMARK                         _______ _______ _______ _____ _____    ______ ____
ROOT
ATOM      1  C   UNL     1       2.792  -4.669  -2.641  0.00  0.00    +0.088 C 
ENDROOT
BRANCH   1   4
ATOM      2  N   UNL     1       4.858  -5.662  -3.543  0.00  0.00    -0.303 N 
ATOM      3  H   UNL     1       4.354  -5.705  -4.418  0.00  0.00    +0.149 HD
ATOM      4  C   UNL     1       4.296  -4.936  -2.529  0.00  0.00    +0.217 C 
ATOM      5  O   UNL     1       4.916  -4.507  -1.561  0.00  0.00    -0.275 OA
BRANCH   2   6
ATOM      6  C   UNL     1       6.248  -6.157  -3.597  0.00  0.00    +0.163 C 
BRANCH   6   7
ATOM      7  C   UNL     1       6.185  -7.392  -4.549  0.00  0.00    +0.233 C 
ATOM      8  N   UNL     1       6.103  -7.070  -5.894  0.00  0.00    -0.317 N 
ATOM      9  H   UNL     1       6.156  -6.101  -6.178  0.00  0.00    +0.148 HD
ATOM     10  C   UNL     1       6.143  -8.083  -6.928  0.00  0.00    +0.128 C 
ATOM     11  O   UNL     1       6.089  -8.549  -4.149  0.00  0.00    -0.274 OA
ENDBRANCH   6   7
BRANCH   6  12
ATOM     12  C   UNL     1       6.857  -6.561  -2.249  0.00  0.00    +0.067 C 
BRANCH  12  13
ATOM     13  C   UNL     1       8.337  -6.868  -2.330  0.00  0.00    -0.045 A 
ATOM     14  C   UNL     1       8.785  -8.192  -2.417  0.00  0.00    +0.004 A 
ATOM     15  C   UNL     1      10.151  -8.466  -2.495  0.00  0.00    +0.000 A 
ATOM     16  C   UNL     1      11.076  -7.423  -2.487  0.00  0.00    +0.000 A 
ATOM     17  C   UNL     1      10.638  -6.102  -2.409  0.00  0.00    +0.000 A 
ATOM     18  C   UNL     1       9.271  -5.827  -2.338  0.00  0.00    +0.004 A 
ENDBRANCH  12  13
ENDBRANCH   6  12
ENDBRANCH   2   6
ENDBRANCH   1   4
BRANCH   1  19
ATOM     19  C   UNL     1       2.384  -3.541  -3.625  0.00  0.00    +0.099 C 
BRANCH  19  20
ATOM     20  C   UNL     1       0.877  -3.308  -3.615  0.00  0.00    +0.240 C 
ATOM     21  N   UNL     1       0.246  -3.171  -2.397  0.00  0.00    -0.197 N 
ATOM     22  H   UNL     1       0.605  -3.578  -1.540  0.00  0.00    +0.182 HD
ATOM     23  O   UNL     1       0.234  -3.199  -4.664  0.00  0.00    -0.273 OA
BRANCH  21  24
ATOM     24  O   UNL     1      -1.169  -3.112  -2.473  0.00  0.00    -0.295 OA
ATOM     25  H   UNL     1      -1.339  -3.149  -3.442  0.00  0.00    +0.241 HD
ENDBRANCH  21  24
ENDBRANCH  19  20
BRANCH  19  26
ATOM     26  C   UNL     1       3.067  -2.163  -3.472  0.00  0.00    +0.088 C 
BRANCH  26  27
ATOM     27  S   UNL     1       4.818  -2.252  -3.972  0.00  0.00    -0.117 S 
BRANCH  27  28
ATOM     28  C   UNL     1       5.389  -0.621  -3.745  0.00  0.00    +0.045 A 
ATOM     29  S   UNL     1       5.163   0.582  -4.935  0.00  0.00    -0.090 S 
ATOM     30  C   UNL     1       6.160   1.685  -4.094  0.00  0.00    +0.046 A 
ATOM     31  C   UNL     1       6.622   1.165  -2.905  0.00  0.00    +0.009 A 
ATOM     32  C   UNL     1       6.165  -0.172  -2.697  0.00  0.00    +0.022 A 
ENDBRANCH  27  28
ENDBRANCH  26  27
ENDBRANCH  19  26
ENDBRANCH   1  19
BRANCH   1  33
ATOM     33  C   UNL     1       2.008  -6.017  -2.762  0.00  0.00    +0.016 C 
BRANCH  33  34
ATOM     34  C   UNL     1       2.122  -6.901  -4.033  0.00  0.00    -0.016 C 
ATOM     35  C   UNL     1       1.702  -6.226  -5.334  0.00  0.00    +0.007 C 
ATOM     36  C   UNL     1       1.308  -8.187  -3.860  0.00  0.00    +0.007 C 
ENDBRANCH  33  34
ENDBRANCH   1  33
TORSDOF 13
