REMARK  Name = 
REMARK  13 active torsions:
REMARK  status: ('A' for Active; 'I' for Inactive)
REMARK    1  A    between atoms: N_8  and  C_9
REMARK    2  A    between atoms: C_12  and  C_14
REMARK    3  A    between atoms: C_14  and  O_15
REMARK    4  A    between atoms: O_15  and  P_16
REMARK    5  A    between atoms: P_16  and  O_17
REMARK    6  A    between atoms: P_16  and  O_19
REMARK    7  A    between atoms: O_19  and  C_20
REMARK    8  A    between atoms: C_22  and  O_24
REMARK    9  A    between atoms: C_25  and  C_27
REMARK   10  A    between atoms: C_27  and  O_28
REMARK   11  A    between atoms: C_30  and  N_32
REMARK   12  A    between atoms: C_40  and  O_42
REMARK   13  A    between atoms: C_43  and  O_45
REMARK                            x       y       z     vdW  Elec       q    Type
REMARK                         _______ _______ _______ _____ _____    ______ ____
ROOT
ATOM      1  O   UNL     1       9.995 -14.540   0.612  0.00  0.00    -0.284 OA
ENDROOT
BRANCH   1   2
ATOM      2  P   UNL     1      10.386 -13.146   1.316  0.00  0.00    +0.475 P 
ATOM      3  O   UNL     1      11.819 -13.030   1.716  0.00  0.00    -0.227 OA
BRANCH   2   4
ATOM      4  O   UNL     1       9.391 -13.064   2.572  0.00  0.00    -0.302 OA
ATOM      5  H   UNL     1       9.899 -13.181   3.394  0.00  0.00    +0.222 HD
ENDBRANCH   2   4
BRANCH   2   6
ATOM      6  O   UNL     1       9.832 -11.966   0.398  0.00  0.00    -0.276 OA
BRANCH   6   7
ATOM      7  C   UNL     1      10.525 -11.516  -0.772  0.00  0.00    +0.211 C 
ATOM      8  C   UNL     1       9.774 -10.247  -1.245  0.00  0.00    +0.256 C 
ATOM      9  O   UNL     1      10.521  -9.082  -0.852  0.00  0.00    -0.346 OA
ATOM     10  C   UNL     1      11.814  -9.485  -0.363  0.00  0.00    +0.177 C 
ATOM     11  C   UNL     1      11.938 -11.000  -0.495  0.00  0.00    +0.179 C 
BRANCH   8  12
ATOM     12  N   UNL     1       9.388 -10.136  -2.667  0.00  0.00    -0.270 N 
ATOM     13  C   UNL     1      10.210 -10.617  -3.687  0.00  0.00    +0.352 A 
ATOM     14  O   UNL     1      11.284 -11.154  -3.445  0.00  0.00    -0.244 OA
ATOM     15  N   UNL     1       9.788 -10.517  -4.990  0.00  0.00    -0.178 NA
ATOM     16  C   UNL     1       8.670  -9.939  -5.270  0.00  0.00    +0.123 A 
ATOM     17  N   UNL     1       8.319  -9.881  -6.589  0.00  0.00    -0.343 N 
ATOM     18  H   UNL     1       8.890 -10.488  -7.169  0.00  0.00    +0.144 HD
ATOM     19  H   UNL     1       7.334  -9.914  -6.820  0.00  0.00    +0.144 HD
ATOM     20  C   UNL     1       7.785  -9.366  -4.238  0.00  0.00    +0.061 A 
ATOM     21  C   UNL     1       8.206  -9.487  -2.979  0.00  0.00    +0.096 A 
ENDBRANCH   8  12
BRANCH  11  22
ATOM     22  O   UNL     1      12.869 -11.339  -1.528  0.00  0.00    -0.386 OA
ATOM     23  H   UNL     1      12.425 -11.244  -2.400  0.00  0.00    +0.210 HD
ENDBRANCH  11  22
BRANCH  10  24
ATOM     24  C   UNL     1      12.024  -9.039   1.096  0.00  0.00    +0.190 C 
BRANCH  24  25
ATOM     25  O   UNL     1      11.127  -9.692   1.994  0.00  0.00    -0.392 OA
ATOM     26  H   UNL     1      10.293  -9.189   1.979  0.00  0.00    +0.210 HD
ENDBRANCH  24  25
ENDBRANCH  10  24
ENDBRANCH   6   7
ENDBRANCH   2   6
ENDBRANCH   1   2
BRANCH   1  27
ATOM     27  C   UNL     1       9.766 -15.686   1.433  0.00  0.00    +0.206 C 
BRANCH  27  31
ATOM     28  C   UNL     1      13.093 -15.732   2.935  0.00  0.00    +0.253 C 
ATOM     29  C   UNL     1      13.395 -16.563   1.674  0.00  0.00    +0.195 C 
ATOM     30  C   UNL     1      12.020 -16.900   1.085  0.00  0.00    +0.178 C 
ATOM     31  C   UNL     1      11.023 -16.294   2.068  0.00  0.00    +0.178 C 
ATOM     32  O   UNL     1      11.718 -15.300   2.817  0.00  0.00    -0.346 OA
BRANCH  28  44
ATOM     33  N   UNL     1      13.522 -21.006   3.722  0.00  0.00    -0.329 N 
ATOM     34  H   UNL     1      13.013 -21.828   4.016  0.00  0.00    +0.145 HD
ATOM     35  H   UNL     1      13.493 -20.850   2.718  0.00  0.00    +0.145 HD
ATOM     36  C   UNL     1      13.333 -19.861   4.421  0.00  0.00    +0.195 A 
ATOM     37  N   UNL     1      13.092 -19.992   5.772  0.00  0.00    -0.293 N 
ATOM     38  H   UNL     1      13.082 -20.901   6.200  0.00  0.00    +0.172 HD
ATOM     39  C   UNL     1      12.908 -18.926   6.643  0.00  0.00    +0.280 A 
ATOM     40  O   UNL     1      12.684 -19.098   7.837  0.00  0.00    -0.265 OA
ATOM     41  C   UNL     1      12.994 -17.648   5.972  0.00  0.00    +0.172 A 
ATOM     42  N   UNL     1      12.865 -16.377   6.467  0.00  0.00    -0.229 NA
ATOM     43  C   UNL     1      12.987 -15.608   5.406  0.00  0.00    +0.203 A 
ATOM     44  N   UNL     1      13.179 -16.334   4.247  0.00  0.00    -0.285 N 
ATOM     45  C   UNL     1      13.212 -17.647   4.612  0.00  0.00    +0.171 A 
ATOM     46  N   UNL     1      13.383 -18.714   3.803  0.00  0.00    -0.196 NA
ENDBRANCH  28  44
BRANCH  29  47
ATOM     47  O   UNL     1      14.137 -15.780   0.711  0.00  0.00    -0.385 OA
ATOM     48  H   UNL     1      13.659 -14.945   0.549  0.00  0.00    +0.210 HD
ENDBRANCH  29  47
BRANCH  30  49
ATOM     49  O   UNL     1      11.837 -18.315   0.985  0.00  0.00    -0.386 OA
ATOM     50  H   UNL     1      10.918 -18.490   0.725  0.00  0.00    +0.210 HD
ENDBRANCH  30  49
ENDBRANCH  27  31
ENDBRANCH   1  27
TORSDOF 13
