REMARK  Name = 
REMARK  1 active torsions:
REMARK  status: ('A' for Active; 'I' for Inactive)
REMARK    1  A    between atoms: C_1  and  C_2
REMARK                            x       y       z     vdW  Elec       q    Type
REMARK                         _______ _______ _______ _____ _____    ______ ____
ROOT
ATOM      1  C   UNL     1       1.087  -0.045   0.027  0.00  0.00    +0.044 C 
ATOM      2  C   UNL     1       2.589  -0.078   0.034  0.00  0.00    -0.048 A 
ATOM      3  C   UNL     1       3.303   1.130   0.037  0.00  0.00    +0.005 A 
ATOM      4  C   UNL     1       4.705   1.148   0.045  0.00  0.00    +0.030 A 
ATOM      5  C   UNL     1       5.392  -0.072   0.049  0.00  0.00    +0.089 A 
ATOM      6  N   UNL     1       6.744  -0.322   0.057  0.00  0.00    -0.236 NA
ATOM      7  C   UNL     1       6.851  -1.631   0.059  0.00  0.00    +0.197 A 
ATOM      8  N   UNL     1       5.628  -2.238   0.052  0.00  0.00    -0.344 N 
ATOM      9  H   UNL     1       5.460  -3.234   0.052  0.00  0.00    +0.167 HD
ATOM     10  C   UNL     1       4.668  -1.259   0.046  0.00  0.00    +0.066 A 
ATOM     11  C   UNL     1       3.271  -1.307   0.039  0.00  0.00    +0.031 A 
ENDROOT
TORSDOF 0
