REMARK  Name = 
REMARK  13 active torsions:
REMARK  status: ('A' for Active; 'I' for Inactive)
REMARK    1  A    between atoms: N_6  and  C_9
REMARK    2  A    between atoms: C_12  and  O_14
REMARK    3  A    between atoms: C_15  and  C_17
REMARK    4  A    between atoms: C_17  and  O_18
REMARK    5  A    between atoms: O_18  and  P_19
REMARK    6  A    between atoms: P_19  and  O_20
REMARK    7  A    between atoms: P_19  and  O_22
REMARK    8  A    between atoms: O_22  and  P_23
REMARK    9  A    between atoms: P_23  and  O_24
REMARK   10  A    between atoms: P_23  and  O_26
REMARK   11  A    between atoms: O_26  and  P_27
REMARK   12  A    between atoms: P_27  and  O_28
REMARK   13  A    between atoms: P_27  and  O_29
REMARK                            x       y       z     vdW  Elec       q    Type
REMARK                         _______ _______ _______ _____ _____    ______ ____
ROOT
ATOM      1  C   UNL     1      13.771   0.504   2.649  0.00  0.00    +0.206 C 
ENDROOT
BRANCH   1   4
ATOM      2  C   UNL     1      15.786   3.252   3.264  0.00  0.00    +0.226 C 
ATOM      3  O   UNL     1      14.522   2.830   2.708  0.00  0.00    -0.348 OA
ATOM      4  C   UNL     1      14.015   1.743   3.519  0.00  0.00    +0.175 C 
ATOM      5  C   UNL     1      15.042   1.494   4.629  0.00  0.00    +0.150 C 
ATOM      6  C   UNL     1      15.772   2.809   4.715  0.00  0.00    +0.088 C 
BRANCH   2  13
ATOM      7  N   UNL     1      16.854   8.646   2.956  0.00  0.00    -0.343 N 
ATOM      8  H   UNL     1      16.127   9.273   2.633  0.00  0.00    +0.144 HD
ATOM      9  H   UNL     1      17.763   8.829   2.548  0.00  0.00    +0.144 HD
ATOM     10  C   UNL     1      16.562   7.321   3.044  0.00  0.00    +0.123 A 
ATOM     11  C   UNL     1      15.186   6.890   3.327  0.00  0.00    +0.061 A 
ATOM     12  C   UNL     1      14.959   5.574   3.340  0.00  0.00    +0.096 A 
ATOM     13  N   UNL     1      15.994   4.681   3.117  0.00  0.00    -0.273 N 
ATOM     14  C   UNL     1      17.307   5.134   2.938  0.00  0.00    +0.352 A 
ATOM     15  O   UNL     1      18.242   4.330   2.858  0.00  0.00    -0.244 OA
ATOM     16  N   UNL     1      17.536   6.486   2.861  0.00  0.00    -0.178 NA
ENDBRANCH   2  13
BRANCH   5  17
ATOM     17  O   UNL     1      14.472   1.158   5.883  0.00  0.00    -0.389 OA
ATOM     18  H   UNL     1      13.715   1.742   6.061  0.00  0.00    +0.210 HD
ENDBRANCH   5  17
ENDBRANCH   1   4
BRANCH   1  19
ATOM     19  O   UNL     1      13.237  -0.567   3.415  0.00  0.00    -0.284 OA
BRANCH  19  20
ATOM     20  P   UNL     1      12.984  -2.018   2.507  0.00  0.00    +0.483 P 
ATOM     21  O   UNL     1      11.993  -2.491   3.564  0.00  0.00    -0.227 OA
BRANCH  20  22
ATOM     22  O   UNL     1      14.480  -2.539   2.901  0.00  0.00    -0.302 OA
ATOM     23  H   UNL     1      15.143  -2.388   2.208  0.00  0.00    +0.222 HD
ENDBRANCH  20  22
BRANCH  20  24
ATOM     24  O   UNL     1      12.731  -3.468   1.599  0.00  0.00    -0.186 OA
BRANCH  24  25
ATOM     25  P   UNL     1      11.233  -4.162   1.082  0.00  0.00    +0.492 P 
ATOM     26  O   UNL     1      11.519  -5.455   0.316  0.00  0.00    -0.226 OA
BRANCH  25  27
ATOM     27  O   UNL     1      11.160  -5.090   2.540  0.00  0.00    -0.302 OA
ATOM     28  H   UNL     1      11.643  -5.915   2.333  0.00  0.00    +0.222 HD
ENDBRANCH  25  27
BRANCH  25  29
ATOM     29  O   UNL     1      11.306  -3.234  -0.376  0.00  0.00    -0.186 OA
BRANCH  29  30
ATOM     30  P   UNL     1       9.760  -3.259  -1.153  0.00  0.00    +0.481 P 
ATOM     31  O   UNL     1       8.377  -3.280  -1.848  0.00  0.00    -0.227 OA
BRANCH  30  32
ATOM     32  O   UNL     1      10.462  -2.432  -2.385  0.00  0.00    -0.302 OA
ATOM     33  H   UNL     1      10.576  -3.010  -3.160  0.00  0.00    +0.222 HD
ENDBRANCH  30  32
BRANCH  30  34
ATOM     34  O   UNL     1       9.423  -1.963  -0.206  0.00  0.00    -0.302 OA
ATOM     35  H   UNL     1       8.517  -2.005   0.151  0.00  0.00    +0.222 HD
ENDBRANCH  30  34
ENDBRANCH  29  30
ENDBRANCH  25  29
ENDBRANCH  24  25
ENDBRANCH  20  24
ENDBRANCH  19  20
ENDBRANCH   1  19
TORSDOF 13
