REMARK  Name = 
REMARK  6 active torsions:
REMARK  status: ('A' for Active; 'I' for Inactive)
REMARK    1  A    between atoms: O_1  and  C_2
REMARK    2  A    between atoms: C_2  and  C_4
REMARK    3  A    between atoms: C_4  and  C_5
REMARK    4  A    between atoms: C_5  and  C_6
REMARK    5  A    between atoms: C_6  and  C_7
REMARK    6  A    between atoms: C_7  and  C_8
REMARK                            x       y       z     vdW  Elec       q    Type
REMARK                         _______ _______ _______ _____ _____    ______ ____
ROOT
ATOM      1  C   UNL     1       7.736  -2.068  -2.591  0.00  0.00    +0.085 C 
ATOM      2  C   UNL     1       6.883  -3.020  -3.424  0.00  0.00    +0.184 C 
ATOM      3  C   UNL     1       6.323  -2.279  -4.659  0.00  0.00    +0.181 C 
ATOM      4  N   UNL     1       6.218  -3.388  -5.614  0.00  0.00    -0.232 N 
ATOM      5  H   UNL     1       6.021  -3.203  -6.587  0.00  0.00    +0.245 HD
ATOM      6  C   UNL     1       7.074  -4.400  -5.291  0.00  0.00    +0.363 C 
ATOM      7  N   UNL     1       7.325  -5.443  -5.980  0.00  0.00    -0.133 NA
ATOM      8  H   UNL     1       6.769  -5.418  -6.834  0.00  0.00    +0.306 HD
ATOM      9  C   UNL     1       7.351  -1.246  -5.134  0.00  0.00    +0.111 C 
ATOM     10  N   UNL     1       7.610  -4.110  -4.075  0.00  0.00    -0.232 N 
ATOM     11  H   UNL     1       7.987  -4.889  -3.553  0.00  0.00    +0.245 HD
ATOM     12  S   UNL     1       8.541  -0.957  -3.796  0.00  0.00    -0.151 S 
ENDROOT
BRANCH   1  13
ATOM     13  C   UNL     1       6.871  -1.262  -1.599  0.00  0.00    +0.017 C 
BRANCH  13  14
ATOM     14  C   UNL     1       7.685  -0.313  -0.707  0.00  0.00    +0.002 C 
BRANCH  14  15
ATOM     15  C   UNL     1       6.804   0.457   0.279  0.00  0.00    +0.011 C 
BRANCH  15  16
ATOM     16  C   UNL     1       7.648   1.427   1.109  0.00  0.00    +0.120 C 
BRANCH  16  17
ATOM     17  C   UNL     1       6.816   2.220   2.090  0.00  0.00    +0.305 C 
ATOM     18  O   UNL     1       5.608   2.119   2.237  0.00  0.00    -0.251 OA
BRANCH  17  19
ATOM     19  O   UNL     1       7.566   3.082   2.815  0.00  0.00    -0.481 OA
ATOM     20  H   UNL     1       8.517   3.061   2.593  0.00  0.00    +0.295 HD
ENDBRANCH  17  19
ENDBRANCH  16  17
ENDBRANCH  15  16
ENDBRANCH  14  15
ENDBRANCH  13  14
ENDBRANCH   1  13
TORSDOF 6
