REMARK  Name = 
REMARK  8 active torsions:
REMARK  status: ('A' for Active; 'I' for Inactive)
REMARK    1  A    between atoms: O_1  and  C_2
REMARK    2  A    between atoms: C_4  and  C_6
REMARK    3  A    between atoms: C_6  and  O_7
REMARK    4  A    between atoms: O_7  and  P_8
REMARK    5  A    between atoms: P_8  and  O_9
REMARK    6  A    between atoms: P_8  and  O_10
REMARK    7  A    between atoms: C_13  and  N_18
REMARK    8  A    between atoms: C_15  and  O_17
REMARK                            x       y       z     vdW  Elec       q    Type
REMARK                         _______ _______ _______ _____ _____    ______ ____
ROOT
ATOM      1  C   UNL     1       2.521   0.118  -0.100  0.00  0.00    +0.178 C 
ATOM      2  C   UNL     1       3.009  -1.164   0.564  0.00  0.00    +0.195 C 
ATOM      3  C   UNL     1       4.193  -0.705   1.433  0.00  0.00    +0.252 C 
ATOM      4  O   UNL     1       4.259   0.730   1.366  0.00  0.00    -0.346 OA
ATOM      5  C   UNL     1       3.005   1.188   0.869  0.00  0.00    +0.178 C 
ENDROOT
BRANCH   3   6
ATOM      6  N   UNL     1       4.082  -1.137   2.823  0.00  0.00    -0.298 N 
ATOM      7  C   UNL     1       4.050  -0.390   3.976  0.00  0.00    +0.108 A 
ATOM      8  C   UNL     1       4.060   0.953   4.303  0.00  0.00    +0.142 A 
ATOM      9  N   UNL     1       4.033   1.294   5.603  0.00  0.00    -0.242 NA
ATOM     10  C   UNL     1       4.016   0.305   6.518  0.00  0.00    +0.223 A 
ATOM     11  N   UNL     1       4.000  -1.014   6.303  0.00  0.00    -0.215 NA
ATOM     12  C   UNL     1       4.018  -1.333   4.998  0.00  0.00    +0.181 A 
ATOM     13  N   UNL     1       4.016  -2.604   4.499  0.00  0.00    -0.216 NA
ATOM     14  C   UNL     1       4.067  -2.460   3.198  0.00  0.00    +0.204 A 
ENDBRANCH   3   6
BRANCH   1  15
ATOM     15  O   UNL     1       1.103   0.102  -0.247  0.00  0.00    -0.386 OA
ATOM     16  H   UNL     1       0.825   0.973  -0.583  0.00  0.00    +0.210 HD
ENDBRANCH   1  15
BRANCH   2  17
ATOM     17  O   UNL     1       3.431  -2.092  -0.444  0.00  0.00    -0.385 OA
ATOM     18  H   UNL     1       3.425  -2.986  -0.064  0.00  0.00    +0.210 HD
ENDBRANCH   2  17
BRANCH   5  19
ATOM     19  C   UNL     1       3.155   2.556   0.223  0.00  0.00    +0.206 C 
BRANCH  19  20
ATOM     20  O   UNL     1       1.858   2.981  -0.153  0.00  0.00    -0.284 OA
BRANCH  20  21
ATOM     21  P   UNL     1       1.732   4.126  -1.252  0.00  0.00    +0.472 P 
ATOM     22  O   UNL     1       2.348   5.441  -0.938  0.00  0.00    -0.228 OA
BRANCH  21  23
ATOM     23  O   UNL     1       0.155   4.167  -1.475  0.00  0.00    -0.303 OA
ATOM     24  H   UNL     1      -0.285   4.587  -0.712  0.00  0.00    +0.222 HD
ENDBRANCH  21  23
BRANCH  21  25
ATOM     25  O   UNL     1       2.222   3.389  -2.579  0.00  0.00    -0.303 OA
ATOM     26  H   UNL     1       1.625   2.659  -2.821  0.00  0.00    +0.222 HD
ENDBRANCH  21  25
ENDBRANCH  20  21
ENDBRANCH  19  20
ENDBRANCH   5  19
TORSDOF 8
