REMARK  Name = 
REMARK  13 active torsions:
REMARK  status: ('A' for Active; 'I' for Inactive)
REMARK    1  A    between atoms: O_1  and  C_2
REMARK    2  A    between atoms: C_2  and  C_4
REMARK    3  A    between atoms: C_2  and  C_10
REMARK    4  A    between atoms: C_4  and  O_5
REMARK    5  A    between atoms: O_5  and  P_6
REMARK    6  A    between atoms: P_6  and  O_7
REMARK    7  A    between atoms: P_6  and  O_8
REMARK    8  A    between atoms: C_10  and  O_12
REMARK    9  A    between atoms: C_10  and  C_13
REMARK   10  A    between atoms: C_13  and  O_15
REMARK   11  A    between atoms: C_13  and  C_16
REMARK   12  A    between atoms: C_16  and  O_18
REMARK   13  A    between atoms: C_16  and  C_19
REMARK                            x       y       z     vdW  Elec       q    Type
REMARK                         _______ _______ _______ _____ _____    ______ ____
ROOT
ATOM      1  C   UNL     1       5.631  -0.920   0.744  0.00  0.00    +0.172 C 
ENDROOT
BRANCH   1   2
ATOM      2  O   UNL     1       5.898  -1.803   1.865  0.00  0.00    -0.387 OA
ATOM      3  H   UNL     1       6.697  -1.449   2.305  0.00  0.00    +0.210 HD
ENDBRANCH   1   2
BRANCH   1   4
ATOM      4  C   UNL     1       5.009   0.350   1.362  0.00  0.00    +0.176 C 
BRANCH   4   5
ATOM      5  O   UNL     1       3.822  -0.065   2.084  0.00  0.00    -0.386 OA
ATOM      6  H   UNL     1       4.014  -0.968   2.414  0.00  0.00    +0.210 HD
ENDBRANCH   4   5
BRANCH   4   7
ATOM      7  C   UNL     1       4.592   1.486   0.407  0.00  0.00    +0.181 C 
BRANCH   7   8
ATOM      8  O   UNL     1       3.821   0.942  -0.681  0.00  0.00    -0.386 OA
ATOM      9  H   UNL     1       3.099   1.580  -0.842  0.00  0.00    +0.210 HD
ENDBRANCH   7   8
BRANCH   7  10
ATOM     10  C   UNL     1       5.721   2.337  -0.195  0.00  0.00    +0.208 C 
BRANCH  10  11
ATOM     11  C   UNL     1       6.673   2.864   0.871  0.00  0.00    +0.257 C 
ATOM     12  O   UNL     1       7.888   2.968   0.745  0.00  0.00    -0.298 OA
ENDBRANCH  10  11
BRANCH  10  13
ATOM     13  O   UNL     1       5.111   3.440  -0.876  0.00  0.00    -0.382 OA
ATOM     14  H   UNL     1       5.021   3.168  -1.809  0.00  0.00    +0.210 HD
ENDBRANCH  10  13
ENDBRANCH   7  10
ENDBRANCH   4   7
ENDBRANCH   1   4
BRANCH   1  15
ATOM     15  C   UNL     1       6.948  -0.722  -0.000  0.00  0.00    +0.206 C 
BRANCH  15  16
ATOM     16  O   UNL     1       7.779   0.052   0.849  0.00  0.00    -0.284 OA
BRANCH  16  17
ATOM     17  P   UNL     1       9.288   0.320   0.389  0.00  0.00    +0.472 P 
ATOM     18  O   UNL     1       9.506   0.948  -0.937  0.00  0.00    -0.228 OA
BRANCH  17  19
ATOM     19  O   UNL     1       9.996  -1.087   0.628  0.00  0.00    -0.303 OA
ATOM     20  H   UNL     1      10.161  -1.233   1.575  0.00  0.00    +0.222 HD
ENDBRANCH  17  19
BRANCH  17  21
ATOM     21  O   UNL     1       9.866   1.156   1.623  0.00  0.00    -0.303 OA
ATOM     22  H   UNL     1       9.567   2.089   1.523  0.00  0.00    +0.222 HD
ENDBRANCH  17  21
ENDBRANCH  16  17
ENDBRANCH  15  16
ENDBRANCH   1  15
TORSDOF 13
