REMARK  Name = 
REMARK  0 active torsions:
REMARK  status: ('A' for Active; 'I' for Inactive)
REMARK                            x       y       z     vdW  Elec       q    Type
REMARK                         _______ _______ _______ _____ _____    ______ ____
ROOT
ATOM      1  N   UNL     1       1.090  -0.046   0.310  0.00  0.00    -0.329 N 
ATOM      2  H   UNL     1       0.597  -0.804  -0.143  0.00  0.00    +0.145 HD
ATOM      3  H   UNL     1       0.684   0.865   0.117  0.00  0.00    +0.145 HD
ATOM      4  C   UNL     1       2.440  -0.036   0.198  0.00  0.00    +0.194 A 
ATOM      5  N   UNL     1       3.056  -1.249   0.135  0.00  0.00    -0.295 N 
ATOM      6  H   UNL     1       2.519  -2.096   0.222  0.00  0.00    +0.172 HD
ATOM      7  C   UNL     1       4.415  -1.408   0.034  0.00  0.00    +0.260 A 
ATOM      8  O   UNL     1       4.943  -2.514   0.005  0.00  0.00    -0.267 OA
ATOM      9  C   UNL     1       5.195  -0.163  -0.037  0.00  0.00    +0.065 A 
ATOM     10  C   UNL     1       4.485   1.039   0.025  0.00  0.00    +0.080 A 
ATOM     11  C   UNL     1       5.201   2.237  -0.035  0.00  0.00    +0.028 A 
ATOM     12  C   UNL     1       6.594   2.229  -0.159  0.00  0.00    +0.002 A 
ATOM     13  C   UNL     1       7.287   1.019  -0.222  0.00  0.00    +0.001 A 
ATOM     14  C   UNL     1       6.588  -0.185  -0.158  0.00  0.00    +0.015 A 
ATOM     15  N   UNL     1       3.085   1.084   0.144  0.00  0.00    -0.216 NA
ENDROOT
TORSDOF 0
