REMARK  Name = 
REMARK  1 active torsions:
REMARK  status: ('A' for Active; 'I' for Inactive)
REMARK    1  A    between atoms: S_1  and  C_2
REMARK                            x       y       z     vdW  Elec       q    Type
REMARK                         _______ _______ _______ _____ _____    ______ ____
ROOT
ATOM      1  C   UNL     1       2.816   0.116   0.097  0.00  0.00    +0.094 A 
ATOM      2  N   UNL     1       3.478  -1.061   0.047  0.00  0.00    -0.249 NA
ATOM      3  C   UNL     1       4.820  -1.011  -0.103  0.00  0.00    +0.112 A 
ATOM      4  C   UNL     1       5.540   0.167  -0.206  0.00  0.00    +0.020 A 
ATOM      5  C   UNL     1       4.843   1.367  -0.151  0.00  0.00    +0.004 A 
ATOM      6  C   UNL     1       3.459   1.345   0.004  0.00  0.00    +0.034 A 
ENDROOT
BRANCH   1   7
ATOM      7  S   UNL     1       1.054   0.015   0.309  0.00  0.00    -0.123 S 
ATOM      8  H   UNL     1       0.785   1.302   0.059  0.00  0.00    +0.109 HD
ENDBRANCH   1   7
TORSDOF 1
