REMARK  Name = 
REMARK  5 active torsions:
REMARK  status: ('A' for Active; 'I' for Inactive)
REMARK    1  A    between atoms: C_1  and  C_2
REMARK    2  A    between atoms: C_2  and  O_4
REMARK    3  A    between atoms: C_2  and  C_5
REMARK    4  A    between atoms: C_5  and  N_7
REMARK    5  A    between atoms: C_5  and  C_8
REMARK                            x       y       z     vdW  Elec       q    Type
REMARK                         _______ _______ _______ _____ _____    ______ ____
ROOT
ATOM      1  C   UNL     1       3.021  -0.588  -1.430  0.00  0.00    +0.136 C 
ENDROOT
BRANCH   1   2
ATOM      2  C   UNL     1       4.533  -0.661  -1.426  0.00  0.00    +0.097 A 
ATOM      3  S   UNL     1       5.321  -2.194  -1.522  0.00  0.00    -0.079 S 
ATOM      4  C   UNL     1       6.842  -1.408  -1.459  0.00  0.00    +0.066 A 
ATOM      5  C   UNL     1       6.659  -0.047  -1.373  0.00  0.00    +0.119 A 
ATOM      6  N   UNL     1       5.347   0.374  -1.353  0.00  0.00    -0.251 NA
ENDBRANCH   1   2
BRANCH   1   7
ATOM      7  N   UNL     1       2.508   0.119  -2.624  0.00  0.00    -0.320 NA
ATOM      8  H   UNL     1       2.801  -0.385  -3.457  0.00  0.00    +0.119 HD
ATOM      9  H   UNL     1       1.489   0.073  -2.583  0.00  0.00    +0.119 HD
ENDBRANCH   1   7
BRANCH   1  11
ATOM     10  C   UNL     1       2.781   1.509   0.095  0.00  0.00    +0.039 C 
ATOM     11  C   UNL     1       2.474   0.026  -0.109  0.00  0.00    +0.135 C 
BRANCH  11  12
ATOM     12  O   UNL     1       1.045  -0.157  -0.075  0.00  0.00    -0.390 OA
ATOM     13  H   UNL     1       0.719   0.284   0.729  0.00  0.00    +0.210 HD
ENDBRANCH  11  12
ENDBRANCH   1  11
TORSDOF 4
