REMARK  Name = 
REMARK  8 active torsions:
REMARK  status: ('A' for Active; 'I' for Inactive)
REMARK    1  A    between atoms: O_1  and  C_2
REMARK    2  A    between atoms: C_4  and  O_6
REMARK    3  A    between atoms: C_7  and  N_18
REMARK    4  A    between atoms: C_10  and  C_12
REMARK    5  A    between atoms: C_12  and  O_13
REMARK    6  A    between atoms: O_13  and  P_14
REMARK    7  A    between atoms: P_14  and  O_15
REMARK    8  A    between atoms: P_14  and  O_16
REMARK                            x       y       z     vdW  Elec       q    Type
REMARK                         _______ _______ _______ _____ _____    ______ ____
ROOT
ATOM      1  C   UNL     1       2.365   0.056   0.050  0.00  0.00    +0.178 C 
ATOM      2  C   UNL     1       3.022  -1.193   0.648  0.00  0.00    +0.178 C 
ATOM      3  O   UNL     1       4.258  -0.778   1.268  0.00  0.00    -0.347 OA
ATOM      4  C   UNL     1       4.447   0.619   1.030  0.00  0.00    +0.248 C 
ATOM      5  C   UNL     1       3.020   1.177   0.843  0.00  0.00    +0.193 C 
ENDROOT
BRANCH   4   6
ATOM      6  N   UNL     1       5.300   0.854  -0.152  0.00  0.00    -0.196 N 
ATOM      7  C   UNL     1       5.634   2.173  -0.392  0.00  0.00    +0.317 C 
ATOM      8  O   UNL     1       5.350   3.094   0.367  0.00  0.00    -0.252 OA
ATOM      9  N   UNL     1       6.287   2.446  -1.554  0.00  0.00    -0.239 N 
ATOM     10  H   UNL     1       6.427   3.427  -1.749  0.00  0.00    +0.159 HD
ATOM     11  C   UNL     1       6.412   1.602  -2.611  0.00  0.00    +0.229 C 
ATOM     12  O   UNL     1       6.707   2.019  -3.728  0.00  0.00    -0.275 OA
ATOM     13  C   UNL     1       6.125   0.172  -2.345  0.00  0.00    +0.192 C 
ATOM     14  C   UNL     1       5.809  -0.176  -0.921  0.00  0.00    +0.234 C 
ATOM     15  O   UNL     1       5.947  -1.352  -0.578  0.00  0.00    -0.275 OA
ENDBRANCH   4   6
BRANCH   1  16
ATOM     16  O   UNL     1       2.690   0.236  -1.336  0.00  0.00    -0.386 OA
ATOM     17  H   UNL     1       3.123  -0.570  -1.670  0.00  0.00    +0.210 HD
ENDBRANCH   1  16
BRANCH   5  18
ATOM     18  O   UNL     1       2.344   1.329   2.097  0.00  0.00    -0.385 OA
ATOM     19  H   UNL     1       1.533   1.842   1.929  0.00  0.00    +0.210 HD
ENDBRANCH   5  18
BRANCH   2  20
ATOM     20  C   UNL     1       2.159  -1.872   1.702  0.00  0.00    +0.206 C 
BRANCH  20  21
ATOM     21  O   UNL     1       2.842  -3.046   2.133  0.00  0.00    -0.284 OA
BRANCH  21  22
ATOM     22  P   UNL     1       1.940  -3.954   3.298  0.00  0.00    +0.472 P 
ATOM     23  O   UNL     1       1.132  -4.766   4.340  0.00  0.00    -0.228 OA
BRANCH  22  24
ATOM     24  O   UNL     1       2.965  -3.242   4.352  0.00  0.00    -0.303 OA
ATOM     25  H   UNL     1       3.851  -3.265   3.943  0.00  0.00    +0.222 HD
ENDBRANCH  22  24
BRANCH  22  26
ATOM     26  O   UNL     1       2.927  -5.188   2.884  0.00  0.00    -0.303 OA
ATOM     27  H   UNL     1       2.662  -5.582   2.035  0.00  0.00    +0.222 HD
ENDBRANCH  22  26
ENDBRANCH  21  22
ENDBRANCH  20  21
ENDBRANCH   2  20
TORSDOF 8
