REMARK  Name = 
REMARK  5 active torsions:
REMARK  status: ('A' for Active; 'I' for Inactive)
REMARK    1  A    between atoms: O_1  and  C_2
REMARK    2  A    between atoms: C_2  and  C_4
REMARK    3  A    between atoms: C_4  and  C_5
REMARK    4  A    between atoms: C_5  and  C_6
REMARK    5  A    between atoms: C_9  and  O_10
REMARK                            x       y       z     vdW  Elec       q    Type
REMARK                         _______ _______ _______ _____ _____    ______ ____
ROOT
ATOM      1  C   UNL     1       5.352   0.089  -2.403  0.00  0.00    -0.047 A 
ATOM      2  C   UNL     1       5.702  -1.107  -3.054  0.00  0.00    +0.007 A 
ATOM      3  C   UNL     1       6.312  -1.080  -4.311  0.00  0.00    +0.045 A 
ATOM      4  C   UNL     1       6.581   0.138  -4.921  0.00  0.00    +0.117 A 
ATOM      5  C   UNL     1       6.287   1.333  -4.278  0.00  0.00    +0.045 A 
ATOM      6  C   UNL     1       5.689   1.304  -3.017  0.00  0.00    +0.007 A 
ENDROOT
BRANCH   4   7
ATOM      7  O   UNL     1       7.142   0.125  -6.163  0.00  0.00    -0.507 OA
ATOM      8  H   UNL     1       7.191   1.039  -6.488  0.00  0.00    +0.292 HD
ENDBRANCH   4   7
BRANCH   1   9
ATOM      9  C   UNL     1       4.662   0.029  -1.054  0.00  0.00    +0.046 C 
BRANCH   9  10
ATOM     10  C   UNL     1       3.662   1.167  -0.836  0.00  0.00    +0.125 C 
BRANCH  10  11
ATOM     11  C   UNL     1       2.920   1.044   0.468  0.00  0.00    +0.305 C 
ATOM     12  O   UNL     1       3.059   0.148   1.284  0.00  0.00    -0.251 OA
BRANCH  11  13
ATOM     13  O   UNL     1       2.057   2.072   0.657  0.00  0.00    -0.481 OA
ATOM     14  H   UNL     1       2.048   2.719  -0.075  0.00  0.00    +0.295 HD
ENDBRANCH  11  13
ENDBRANCH  10  11
ENDBRANCH   9  10
ENDBRANCH   1   9
TORSDOF 5
