REMARK  Name = 
REMARK  14 active torsions:
REMARK  status: ('A' for Active; 'I' for Inactive)
REMARK    1  A    between atoms: C_1  and  C_2
REMARK    2  A    between atoms: N_4  and  C_5
REMARK    3  A    between atoms: C_5  and  C_7
REMARK    4  A    between atoms: C_5  and  C_21
REMARK    5  A    between atoms: C_7  and  C_8
REMARK    6  A    between atoms: C_11  and  C_12
REMARK    7  A    between atoms: C_12  and  C_13
REMARK    8  A    between atoms: C_13  and  O_14
REMARK    9  A    between atoms: C_16  and  C_18
REMARK   10  A    between atoms: C_18  and  O_19
REMARK   11  A    between atoms: N_23  and  C_24
REMARK   12  A    between atoms: N_30  and  C_31
REMARK   13  A    between atoms: C_31  and  C_32
REMARK   14  A    between atoms: C_35  and  C_38
REMARK                            x       y       z     vdW  Elec       q    Type
REMARK                         _______ _______ _______ _____ _____    ______ ____
ROOT
ATOM      1  C   UNL     1       9.433  -1.317  -3.030  0.00  0.00    +0.234 C 
ATOM      2  N   UNL     1       8.614  -1.101  -4.111  0.00  0.00    -0.302 N 
ATOM      3  H   UNL     1       9.002  -1.132  -5.040  0.00  0.00    +0.150 HD
ATOM      4  O   UNL     1       8.999  -1.578  -1.904  0.00  0.00    -0.274 OA
ENDROOT
BRANCH   2   5
ATOM      5  C   UNL     1       7.151  -1.243  -4.122  0.00  0.00    +0.159 C 
ATOM      6  C   UNL     1       6.576  -0.325  -5.219  0.00  0.00    +0.236 C 
ATOM      7  O   UNL     1       5.418   0.084  -5.198  0.00  0.00    -0.274 OA
ATOM      8  N   UNL     1       7.337  -0.408  -6.396  0.00  0.00    -0.296 N 
ATOM      9  C   UNL     1       6.762  -1.201  -7.469  0.00  0.00    +0.108 C 
ATOM     10  C   UNL     1       6.262  -2.574  -6.990  0.00  0.00    +0.019 C 
ATOM     11  C   UNL     1       7.093  -3.191  -5.856  0.00  0.00    +0.004 C 
ATOM     12  C   UNL     1       6.737  -2.692  -4.441  0.00  0.00    +0.032 C 
BRANCH   8  13
ATOM     13  C   UNL     1       8.220   0.697  -6.746  0.00  0.00    +0.143 C 
BRANCH  13  14
ATOM     14  C   UNL     1       7.568   2.018  -7.041  0.00  0.00    -0.030 A 
ATOM     15  C   UNL     1       7.240   2.396  -8.344  0.00  0.00    +0.006 A 
ATOM     16  C   UNL     1       6.725   3.675  -8.603  0.00  0.00    +0.009 A 
ATOM     17  C   UNL     1       6.491   4.605  -7.572  0.00  0.00    -0.018 A 
ATOM     18  C   UNL     1       6.808   4.192  -6.266  0.00  0.00    +0.009 A 
ATOM     19  C   UNL     1       7.339   2.927  -6.003  0.00  0.00    +0.006 A 
BRANCH  17  20
ATOM     20  C   UNL     1       5.898   5.943  -7.831  0.00  0.00    -0.018 A 
ATOM     21  C   UNL     1       4.993   6.155  -8.887  0.00  0.00    +0.008 A 
ATOM     22  C   UNL     1       4.375   7.394  -9.088  0.00  0.00    +0.001 A 
ATOM     23  C   UNL     1       4.642   8.456  -8.231  0.00  0.00    +0.000 A 
ATOM     24  C   UNL     1       5.549   8.286  -7.192  0.00  0.00    +0.001 A 
ATOM     25  C   UNL     1       6.177   7.050  -7.003  0.00  0.00    +0.008 A 
ENDBRANCH  17  20
ENDBRANCH  13  14
ENDBRANCH   8  13
ENDBRANCH   2   5
BRANCH   1  26
ATOM     26  C   UNL     1      10.972  -1.212  -3.303  0.00  0.00    +0.163 C 
BRANCH  26  29
ATOM     27  C   UNL     1      13.628  -2.938  -1.187  0.00  0.00    +0.109 C 
ATOM     28  C   UNL     1      13.070  -1.980  -2.201  0.00  0.00    +0.211 C 
ATOM     29  N   UNL     1      11.697  -1.948  -2.254  0.00  0.00    -0.304 N 
ATOM     30  H   UNL     1      11.158  -2.243  -1.444  0.00  0.00    +0.149 HD
ATOM     31  O   UNL     1      13.793  -1.319  -2.939  0.00  0.00    -0.276 OA
ENDBRANCH  26  29
BRANCH  26  32
ATOM     32  C   UNL     1      11.380  -1.710  -4.712  0.00  0.00    +0.067 C 
BRANCH  32  33
ATOM     33  C   UNL     1      11.003  -3.137  -5.079  0.00  0.00    -0.044 A 
ATOM     34  C   UNL     1      10.334  -4.006  -4.203  0.00  0.00    +0.019 A 
ATOM     35  C   UNL     1       9.795  -5.224  -4.640  0.00  0.00    +0.063 A 
ATOM     36  C   UNL     1       9.940  -5.607  -5.984  0.00  0.00    -0.023 A 
ATOM     37  C   UNL     1      10.715  -4.792  -6.830  0.00  0.00    +0.005 A 
ATOM     38  C   UNL     1      11.241  -3.575  -6.384  0.00  0.00    +0.004 A 
BRANCH  35  39
ATOM     39  C   UNL     1       8.958  -5.999  -3.685  0.00  0.00    +0.337 C 
ATOM     40  O   UNL     1       7.945  -6.581  -4.041  0.00  0.00    -0.245 OA
BRANCH  39  41
ATOM     41  O   UNL     1       9.414  -6.019  -2.419  0.00  0.00    -0.477 OA
ATOM     42  H   UNL     1      10.283  -5.604  -2.269  0.00  0.00    +0.295 HD
ENDBRANCH  39  41
ENDBRANCH  35  39
BRANCH  36  43
ATOM     43  C   UNL     1       9.241  -6.805  -6.582  0.00  0.00    +0.156 C 
BRANCH  43  44
ATOM     44  C   UNL     1       7.903  -6.458  -7.203  0.00  0.00    +0.309 C 
ATOM     45  O   UNL     1       7.782  -6.021  -8.341  0.00  0.00    -0.251 OA
BRANCH  44  46
ATOM     46  O   UNL     1       6.841  -6.635  -6.385  0.00  0.00    -0.480 OA
ATOM     47  H   UNL     1       7.090  -6.815  -5.443  0.00  0.00    +0.295 HD
ENDBRANCH  44  46
ENDBRANCH  43  44
ENDBRANCH  36  43
ENDBRANCH  32  33
ENDBRANCH  26  32
ENDBRANCH   1  26
TORSDOF 13
