REMARK  Name = 
REMARK  2 active torsions:
REMARK  status: ('A' for Active; 'I' for Inactive)
REMARK    1  A    between atoms: N_1  and  C_2
REMARK    2  A    between atoms: C_2  and  C_3
REMARK                            x       y       z     vdW  Elec       q    Type
REMARK                         _______ _______ _______ _____ _____    ______ ____
ROOT
ATOM      1  C   UNL     1       3.018   1.421   0.434  0.00  0.00    -0.002 A 
ATOM      2  C   UNL     1       4.206   1.774   1.136  0.00  0.00    +0.087 A 
ATOM      3  C   UNL     1       4.290   3.146   1.191  0.00  0.00    +0.147 A 
ATOM      4  N   UNL     1       5.271   3.901   1.736  0.00  0.00    -0.198 NA
ATOM      5  C   UNL     1       6.241   3.198   2.254  0.00  0.00    +0.195 A 
ATOM      6  N   UNL     1       6.261   1.820   2.281  0.00  0.00    -0.295 N 
ATOM      7  H   UNL     1       7.055   1.334   2.659  0.00  0.00    +0.172 HD
ATOM      8  N   UNL     1       7.306   3.823   2.816  0.00  0.00    -0.329 N 
ATOM      9  H   UNL     1       7.772   3.361   3.584  0.00  0.00    +0.145 HD
ATOM     10  H   UNL     1       7.136   4.810   2.977  0.00  0.00    +0.145 HD
ATOM     11  N   UNL     1       3.197   3.658   0.557  0.00  0.00    -0.345 N 
ATOM     12  H   UNL     1       3.015   4.645   0.441  0.00  0.00    +0.167 HD
ATOM     13  C   UNL     1       5.280   1.017   1.728  0.00  0.00    +0.262 A 
ATOM     14  O   UNL     1       5.343  -0.209   1.741  0.00  0.00    -0.267 OA
ATOM     15  C   UNL     1       2.415   2.624   0.095  0.00  0.00    +0.090 A 
ENDROOT
BRANCH   1  16
ATOM     16  C   UNL     1       2.520   0.048   0.135  0.00  0.00    +0.115 C 
BRANCH  16  17
ATOM     17  N   UNL     1       3.516  -0.657  -0.663  0.00  0.00    -0.326 NA
ATOM     18  H   UNL     1       4.356  -0.766  -0.086  0.00  0.00    +0.119 HD
ATOM     19  H   UNL     1       3.188  -1.607  -0.826  0.00  0.00    +0.119 HD
ENDBRANCH  16  17
ENDBRANCH   1  16
TORSDOF 2
