REMARK  Name = 
REMARK  15 active torsions:
REMARK  status: ('A' for Active; 'I' for Inactive)
REMARK    1  A    between atoms: C_2  and  O_3
REMARK    2  A    between atoms: C_2  and  C_4
REMARK    3  A    between atoms: C_2  and  C_8
REMARK    4  A    between atoms: C_4  and  C_5
REMARK    5  A    between atoms: C_5  and  O_6
REMARK    6  A    between atoms: N_10  and  C_11
REMARK    7  A    between atoms: C_11  and  C_13
REMARK    8  A    between atoms: C_11  and  C_21
REMARK    9  A    between atoms: C_13  and  C_14
REMARK   10  A    between atoms: C_14  and  C_15
REMARK   11  A    between atoms: N_23  and  C_24
REMARK   12  A    between atoms: C_24  and  C_25
REMARK   13  A    between atoms: C_25  and  C_26
REMARK   14  A    between atoms: C_26  and  C_27
REMARK   15  A    between atoms: C_26  and  C_28
REMARK                            x       y       z     vdW  Elec       q    Type
REMARK                         _______ _______ _______ _____ _____    ______ ____
ROOT
ATOM      1  C   UNL     1       4.562  -3.066  -0.742  0.00  0.00    +0.159 C 
ENDROOT
BRANCH   1   3
ATOM      2  C   UNL     1       2.822  -1.562   0.223  0.00  0.00    +0.243 C 
ATOM      3  N   UNL     1       4.064  -1.751  -0.335  0.00  0.00    -0.302 N 
ATOM      4  H   UNL     1       4.644  -0.966  -0.614  0.00  0.00    +0.150 HD
ATOM      5  O   UNL     1       2.056  -2.478   0.490  0.00  0.00    -0.273 OA
BRANCH   2   6
ATOM      6  C   UNL     1       2.494  -0.081   0.500  0.00  0.00    +0.210 C 
BRANCH   6   7
ATOM      7  O   UNL     1       3.498   0.559   1.301  0.00  0.00    -0.382 OA
ATOM      8  H   UNL     1       4.252  -0.059   1.385  0.00  0.00    +0.210 HD
ENDBRANCH   6   7
BRANCH   6   9
ATOM      9  C   UNL     1       2.391   0.686  -0.809  0.00  0.00    +0.161 C 
BRANCH   9  10
ATOM     10  C   UNL     1       1.909   2.102  -0.631  0.00  0.00    +0.308 C 
ATOM     11  O   UNL     1       1.243   2.684  -1.476  0.00  0.00    -0.251 OA
BRANCH  10  12
ATOM     12  O   UNL     1       2.357   2.726   0.480  0.00  0.00    -0.481 OA
ATOM     13  H   UNL     1       2.923   2.149   1.049  0.00  0.00    +0.295 HD
ENDBRANCH  10  12
ENDBRANCH   9  10
ENDBRANCH   6   9
ENDBRANCH   2   6
ENDBRANCH   1   3
BRANCH   1  14
ATOM     14  C   UNL     1       6.096  -2.942  -0.692  0.00  0.00    +0.233 C 
ATOM     15  N   UNL     1       6.765  -4.126  -0.482  0.00  0.00    -0.314 N 
ATOM     16  H   UNL     1       6.243  -4.949  -0.206  0.00  0.00    +0.149 HD
ATOM     17  O   UNL     1       6.660  -1.862  -0.865  0.00  0.00    -0.274 OA
BRANCH  15  18
ATOM     18  C   UNL     1       8.210  -4.193  -0.435  0.00  0.00    +0.104 C 
BRANCH  18  19
ATOM     19  C   UNL     1       8.762  -3.927   0.966  0.00  0.00    +0.022 C 
BRANCH  19  20
ATOM     20  C   UNL     1       8.289  -4.920   2.046  0.00  0.00    -0.016 C 
ATOM     21  C   UNL     1       8.861  -4.515   3.407  0.00  0.00    +0.007 C 
ATOM     22  C   UNL     1       8.686  -6.363   1.730  0.00  0.00    +0.007 C 
ENDBRANCH  19  20
ENDBRANCH  18  19
ENDBRANCH  15  18
ENDBRANCH   1  14
BRANCH   1  23
ATOM     23  C   UNL     1       4.072  -3.408  -2.156  0.00  0.00    +0.036 C 
BRANCH  23  24
ATOM     24  C   UNL     1       4.529  -4.785  -2.645  0.00  0.00    +0.037 C 
BRANCH  24  25
ATOM     25  C   UNL     1       4.010  -5.085  -4.028  0.00  0.00    -0.047 A 
ATOM     26  C   UNL     1       2.774  -5.718  -4.203  0.00  0.00    +0.003 A 
ATOM     27  C   UNL     1       2.288  -5.974  -5.486  0.00  0.00    +0.000 A 
ATOM     28  C   UNL     1       3.031  -5.597  -6.603  0.00  0.00    +0.000 A 
ATOM     29  C   UNL     1       4.261  -4.965  -6.440  0.00  0.00    +0.000 A 
ATOM     30  C   UNL     1       4.749  -4.708  -5.158  0.00  0.00    +0.003 A 
ENDBRANCH  24  25
ENDBRANCH  23  24
ENDBRANCH   1  23
TORSDOF 13
