REMARK  Name = 
REMARK  10 active torsions:
REMARK  status: ('A' for Active; 'I' for Inactive)
REMARK    1  A    between atoms: C_1  and  N_2
REMARK    2  A    between atoms: N_2  and  C_3
REMARK    3  A    between atoms: N_2  and  C_4
REMARK    4  A    between atoms: C_8  and  C_21
REMARK    5  A    between atoms: C_12  and  N_18
REMARK    6  A    between atoms: N_18  and  C_19
REMARK    7  A    between atoms: N_18  and  C_20
REMARK    8  A    between atoms: C_24  and  N_30
REMARK    9  A    between atoms: C_26  and  C_27
REMARK   10  A    between atoms: C_27  and  O_28
REMARK                            x       y       z     vdW  Elec       q    Type
REMARK                         _______ _______ _______ _____ _____    ______ ____
ROOT
ATOM      1  C   UNL     1       3.194  -0.752  -0.895  0.00  0.00    +0.029 C 
ATOM      2  C   UNL     1       3.056  -2.195  -1.005  0.00  0.00    +0.069 C 
ATOM      3  C   UNL     1       3.601  -2.940  -1.979  0.00  0.00    +0.134 C 
ATOM      4  C   UNL     1       4.398  -2.373  -3.068  0.00  0.00    +0.007 C 
ATOM      5  C   UNL     1       4.849  -3.147  -4.096  0.00  0.00    +0.001 C 
ATOM      6  C   UNL     1       4.438  -4.571  -4.083  0.00  0.00    +0.025 A 
ATOM      7  C   UNL     1       3.820  -5.096  -2.957  0.00  0.00    +0.138 A 
ATOM      8  C   UNL     1       3.532  -6.465  -2.834  0.00  0.00    +0.070 A 
ATOM      9  C   UNL     1       3.821  -7.372  -3.857  0.00  0.00    +0.033 A 
ATOM     10  C   UNL     1       4.342  -6.808  -5.034  0.00  0.00    +0.024 A 
ATOM     11  C   UNL     1       4.657  -5.441  -5.150  0.00  0.00    +0.014 A 
ATOM     12  C   UNL     1       4.667  -0.877  -2.955  0.00  0.00    +0.068 C 
ATOM     13  O   UNL     1       3.444  -4.316  -1.894  0.00  0.00    -0.455 OA
ATOM     14  C   UNL     1       3.964  -0.163  -1.829  0.00  0.00    +0.001 C 
ENDROOT
BRANCH   5  15
ATOM     15  C   UNL     1       5.792  -2.550  -5.089  0.00  0.00    -0.003 A 
ATOM     16  C   UNL     1       5.455  -1.907  -6.291  0.00  0.00    +0.068 A 
ATOM     17  C   UNL     1       6.473  -1.248  -7.038  0.00  0.00    +0.039 A 
ATOM     18  C   UNL     1       7.830  -1.264  -6.669  0.00  0.00    +0.045 A 
ATOM     19  C   UNL     1       8.154  -2.022  -5.541  0.00  0.00    +0.024 A 
ATOM     20  C   UNL     1       7.159  -2.634  -4.759  0.00  0.00    +0.011 A 
BRANCH  18  21
ATOM     21  N   UNL     1       8.824  -0.557  -7.417  0.00  0.00    -0.203 N 
ATOM     22  C   UNL     1       8.571   0.426  -8.340  0.00  0.00    +0.250 C 
ATOM     23  O   UNL     1       7.530   0.963  -8.672  0.00  0.00    -0.270 OA
ATOM     24  C   UNL     1       9.858   0.874  -8.883  0.00  0.00    +0.073 C 
ATOM     25  C   UNL     1      10.819   0.220  -8.241  0.00  0.00    +0.073 C 
ATOM     26  C   UNL     1      10.180  -0.682  -7.277  0.00  0.00    +0.250 C 
ATOM     27  O   UNL     1      10.852  -1.377  -6.532  0.00  0.00    -0.270 OA
ENDBRANCH  18  21
BRANCH  16  28
ATOM     28  C   UNL     1       4.118  -1.944  -6.957  0.00  0.00    +0.337 C 
ATOM     29  O   UNL     1       4.023  -1.862  -8.173  0.00  0.00    -0.245 OA
BRANCH  28  30
ATOM     30  O   UNL     1       3.027  -2.057  -6.182  0.00  0.00    -0.477 OA
ATOM     31  H   UNL     1       3.157  -2.087  -5.221  0.00  0.00    +0.295 HD
ENDBRANCH  28  30
ENDBRANCH  16  28
ENDBRANCH   5  15
BRANCH   1  33
ATOM     32  C   UNL     1       2.653   1.389   0.305  0.00  0.00    +0.129 C 
ATOM     33  N   UNL     1       2.560  -0.067   0.157  0.00  0.00    -0.336 N 
ATOM     34  C   UNL     1       1.902  -0.750   1.277  0.00  0.00    +0.129 C 
ENDBRANCH   1  33
BRANCH   9  35
ATOM     35  N   UNL     1       3.652  -8.738  -3.696  0.00  0.00    -0.336 N 
ATOM     36  C   UNL     1       4.325  -9.697  -4.566  0.00  0.00    +0.129 C 
ATOM     37  C   UNL     1       2.635  -9.309  -2.817  0.00  0.00    +0.129 C 
ENDBRANCH   9  35
TORSDOF 6
