REMARK  Name = 
REMARK  5 active torsions:
REMARK  status: ('A' for Active; 'I' for Inactive)
REMARK    1  A    between atoms: C_1  and  C_2
REMARK    2  A    between atoms: C_2  and  O_4
REMARK    3  A    between atoms: C_2  and  C_5
REMARK    4  A    between atoms: C_5  and  O_7
REMARK    5  A    between atoms: C_5  and  C_8
REMARK                            x       y       z     vdW  Elec       q    Type
REMARK                         _______ _______ _______ _____ _____    ______ ____
ROOT
ATOM      1  C   UNL     1       4.570  -1.119   1.083  0.00  0.00    +0.091 A 
ATOM      2  N   UNL     1       5.177  -0.253   1.938  0.00  0.00    -0.239 NA
ATOM      3  C   UNL     1       6.535  -0.282   1.914  0.00  0.00    +0.172 A 
ATOM      4  C   UNL     1       7.285  -1.100   1.078  0.00  0.00    +0.187 A 
ATOM      5  N   UNL     1       8.685  -1.074   1.010  0.00  0.00    -0.195 NA
ATOM      6  C   UNL     1       9.308  -0.255   1.790  0.00  0.00    +0.195 A 
ATOM      7  N   UNL     1       8.663   0.552   2.680  0.00  0.00    -0.293 N 
ATOM      8  H   UNL     1       9.183   1.196   3.254  0.00  0.00    +0.172 HD
ATOM      9  N   UNL     1      10.658  -0.161   1.754  0.00  0.00    -0.329 N 
ATOM     10  H   UNL     1      11.146   0.093   2.602  0.00  0.00    +0.145 HD
ATOM     11  H   UNL     1      11.092  -0.926   1.245  0.00  0.00    +0.145 HD
ATOM     12  N   UNL     1       6.681  -1.966   0.235  0.00  0.00    -0.232 NA
ATOM     13  C   UNL     1       7.292   0.617   2.804  0.00  0.00    +0.280 A 
ATOM     14  O   UNL     1       6.766   1.388   3.599  0.00  0.00    -0.265 OA
ATOM     15  C   UNL     1       5.322  -1.964   0.264  0.00  0.00    +0.139 A 
ENDROOT
BRANCH   1  16
ATOM     16  C   UNL     1       3.059  -1.099   1.027  0.00  0.00    +0.192 C 
BRANCH  16  18
ATOM     17  C   UNL     1       2.949   0.768  -0.732  0.00  0.00    +0.040 C 
ATOM     18  C   UNL     1       2.480  -0.626  -0.333  0.00  0.00    +0.146 C 
BRANCH  18  19
ATOM     19  O   UNL     1       2.795  -1.546  -1.384  0.00  0.00    -0.389 OA
ATOM     20  H   UNL     1       2.388  -1.218  -2.205  0.00  0.00    +0.210 HD
ENDBRANCH  18  19
ENDBRANCH  16  18
BRANCH  16  21
ATOM     21  O   UNL     1       2.561  -2.397   1.376  0.00  0.00    -0.383 OA
ATOM     22  H   UNL     1       1.600  -2.312   1.492  0.00  0.00    +0.210 HD
ENDBRANCH  16  21
ENDBRANCH   1  16
TORSDOF 4
