REMARK  Name = 
REMARK  28 active torsions:
REMARK  status: ('A' for Active; 'I' for Inactive)
REMARK    1  A    between atoms: C_1  and  C_2
REMARK    2  A    between atoms: C_2  and  C_3
REMARK    3  A    between atoms: C_3  and  C_4
REMARK    4  A    between atoms: C_4  and  C_5
REMARK    5  A    between atoms: C_5  and  C_6
REMARK    6  A    between atoms: C_6  and  C_7
REMARK    7  A    between atoms: C_7  and  C_8
REMARK    8  A    between atoms: C_8  and  C_9
REMARK    9  A    between atoms: C_9  and  C_10
REMARK   10  A    between atoms: C_10  and  C_11
REMARK   11  A    between atoms: C_11  and  C_12
REMARK   12  A    between atoms: C_12  and  C_13
REMARK   13  A    between atoms: C_13  and  C_14
REMARK   14  A    between atoms: C_14  and  C_15
REMARK   15  A    between atoms: C_15  and  C_16
REMARK   16  A    between atoms: C_16  and  O_18
REMARK   17  A    between atoms: O_18  and  C_19
REMARK   18  A    between atoms: C_19  and  C_20
REMARK   19  A    between atoms: C_20  and  O_22
REMARK   20  A    between atoms: C_20  and  C_23
REMARK   21  A    between atoms: C_23  and  O_24
REMARK   22  A    between atoms: O_24  and  P_25
REMARK   23  A    between atoms: P_25  and  O_28
REMARK   24  A    between atoms: O_28  and  C_29
REMARK   25  A    between atoms: C_29  and  C_30
REMARK   26  A    between atoms: C_30  and  O_32
REMARK   27  A    between atoms: C_30  and  C_33
REMARK   28  A    between atoms: C_33  and  O_34
REMARK                            x       y       z     vdW  Elec       q    Type
REMARK                         _______ _______ _______ _____ _____    ______ ____
ROOT
ATOM      1  O   UNL     1      31.320 -15.837 -11.832  0.00  0.00    -0.462 OA
ENDROOT
BRANCH   1   2
ATOM      2  C   UNL     1      30.000 -16.116 -11.652  0.00  0.00    +0.307 C 
ATOM      3  O   UNL     1      29.069 -15.683 -12.311  0.00  0.00    -0.251 OA
BRANCH   2   4
ATOM      4  C   UNL     1      29.848 -17.098 -10.515  0.00  0.00    +0.120 C 
BRANCH   4   5
ATOM      5  C   UNL     1      30.232 -18.488 -11.005  0.00  0.00    +0.011 C 
BRANCH   5   6
ATOM      6  C   UNL     1      30.101 -19.543  -9.917  0.00  0.00    +0.001 C 
BRANCH   6   7
ATOM      7  C   UNL     1      30.509 -20.914 -10.466  0.00  0.00    +0.000 C 
BRANCH   7   8
ATOM      8  C   UNL     1      30.401 -21.999  -9.398  0.00  0.00    +0.000 C 
BRANCH   8   9
ATOM      9  C   UNL     1      30.810 -23.360  -9.962  0.00  0.00    +0.000 C 
BRANCH   9  10
ATOM     10  C   UNL     1      30.705 -24.445  -8.896  0.00  0.00    -0.000 C 
BRANCH  10  11
ATOM     11  C   UNL     1      31.108 -25.806  -9.454  0.00  0.00    -0.000 C 
BRANCH  11  12
ATOM     12  C   UNL     1      31.001 -26.886  -8.381  0.00  0.00    -0.000 C 
BRANCH  12  13
ATOM     13  C   UNL     1      31.404 -28.252  -8.932  0.00  0.00    -0.000 C 
BRANCH  13  14
ATOM     14  C   UNL     1      31.294 -29.328  -7.854  0.00  0.00    -0.000 C 
BRANCH  14  15
ATOM     15  C   UNL     1      31.696 -30.697  -8.399  0.00  0.00    -0.000 C 
BRANCH  15  16
ATOM     16  C   UNL     1      31.586 -31.770  -7.316  0.00  0.00    -0.000 C 
BRANCH  16  18
ATOM     17  C   UNL     1      31.869 -34.210  -6.782  0.00  0.00    +0.004 C 
ATOM     18  C   UNL     1      31.983 -33.142  -7.856  0.00  0.00    -0.003 C 
ENDBRANCH  16  18
ENDBRANCH  15  16
ENDBRANCH  14  15
ENDBRANCH  13  14
ENDBRANCH  12  13
ENDBRANCH  11  12
ENDBRANCH  10  11
ENDBRANCH   9  10
ENDBRANCH   8   9
ENDBRANCH   7   8
ENDBRANCH   6   7
ENDBRANCH   5   6
ENDBRANCH   4   5
ENDBRANCH   2   4
ENDBRANCH   1   2
BRANCH   1  19
ATOM     19  C   UNL     1      31.687 -15.356 -13.137  0.00  0.00    +0.265 C 
BRANCH  19  20
ATOM     20  C   UNL     1      32.217 -16.519 -13.989  0.00  0.00    +0.178 C 
BRANCH  20  21
ATOM     21  O   UNL     1      31.216 -17.550 -14.087  0.00  0.00    -0.386 OA
ATOM     22  H   UNL     1      31.728 -18.383 -14.146  0.00  0.00    +0.210 HD
ENDBRANCH  20  21
BRANCH  20  23
ATOM     23  C   UNL     1      33.511 -17.111 -13.424  0.00  0.00    +0.202 C 
BRANCH  23  24
ATOM     24  O   UNL     1      33.933 -18.166 -14.294  0.00  0.00    -0.325 OA
BRANCH  24  25
ATOM     25  P   UNL     1      35.381 -18.880 -13.892  0.00  0.00    +0.213 P 
ATOM     26  O   UNL     1      34.776 -19.516 -12.402  0.00  0.00    -0.437 OA
ATOM     27  O   UNL     1      36.237 -17.789 -13.204  0.00  0.00    -0.517 OA
BRANCH  25  28
ATOM     28  O   UNL     1      35.987 -18.244 -15.383  0.00  0.00    -0.325 OA
BRANCH  28  29
ATOM     29  C   UNL     1      37.392 -18.426 -15.552  0.00  0.00    +0.201 C 
BRANCH  29  30
ATOM     30  C   UNL     1      37.837 -17.858 -16.901  0.00  0.00    +0.166 C 
BRANCH  30  31
ATOM     31  O   UNL     1      39.245 -18.086 -17.080  0.00  0.00    -0.387 OA
ATOM     32  H   UNL     1      39.615 -17.287 -17.491  0.00  0.00    +0.210 HD
ENDBRANCH  30  31
BRANCH  30  33
ATOM     33  C   UNL     1      37.498 -16.365 -17.060  0.00  0.00    +0.189 C 
BRANCH  33  34
ATOM     34  O   UNL     1      38.236 -15.550 -16.150  0.00  0.00    -0.392 OA
ATOM     35  H   UNL     1      37.918 -15.785 -15.253  0.00  0.00    +0.210 HD
ENDBRANCH  33  34
ENDBRANCH  30  33
ENDBRANCH  29  30
ENDBRANCH  28  29
ENDBRANCH  25  28
ENDBRANCH  24  25
ENDBRANCH  23  24
ENDBRANCH  20  23
ENDBRANCH  19  20
ENDBRANCH   1  19
TORSDOF 27
