REMARK  Name = 
REMARK  19 active torsions:
REMARK  status: ('A' for Active; 'I' for Inactive)
REMARK    1  A    between atoms: C_2  and  C_4
REMARK    2  A    between atoms: N_8  and  C_10
REMARK    3  A    between atoms: C_13  and  C_15
REMARK    4  A    between atoms: C_15  and  O_16
REMARK    5  A    between atoms: O_16  and  P_17
REMARK    6  A    between atoms: P_17  and  O_20
REMARK    7  A    between atoms: O_20  and  P_21
REMARK    8  A    between atoms: P_21  and  O_22
REMARK    9  A    between atoms: P_21  and  O_24
REMARK   10  A    between atoms: O_24  and  C_25
REMARK   11  A    between atoms: C_25  and  C_26
REMARK   12  A    between atoms: C_29  and  N_41
REMARK   13  A    between atoms: C_31  and  O_33
REMARK   14  A    between atoms: O_33  and  P_34
REMARK   15  A    between atoms: P_34  and  O_35
REMARK   16  A    between atoms: P_34  and  O_36
REMARK   17  A    between atoms: C_38  and  O_40
REMARK   18  A    between atoms: C_52  and  O_54
REMARK   19  A    between atoms: C_55  and  O_57
REMARK                            x       y       z     vdW  Elec       q    Type
REMARK                         _______ _______ _______ _____ _____    ______ ____
ROOT
ATOM      1  P   UNL     1      -0.574  -0.494   9.372  0.00  0.00    +0.480 P 
ATOM      2  O   UNL     1      -2.022  -0.542   9.805  0.00  0.00    -0.227 OA
ENDROOT
BRANCH   1   3
ATOM      3  O   UNL     1       0.089   0.950   9.590  0.00  0.00    -0.302 OA
ATOM      4  H   UNL     1       1.058   0.929   9.443  0.00  0.00    +0.222 HD
ENDBRANCH   1   3
BRANCH   1   5
ATOM      5  O   UNL     1       0.361  -1.390  10.371  0.00  0.00    -0.284 OA
BRANCH   5   6
ATOM      6  C   UNL     1       0.040  -1.161  11.754  0.00  0.00    +0.206 C 
BRANCH   6   7
ATOM      7  C   UNL     1       0.882  -1.879  12.821  0.00  0.00    +0.178 C 
ATOM      8  C   UNL     1       0.931  -3.397  12.712  0.00  0.00    +0.179 C 
ATOM      9  C   UNL     1       2.319  -3.738  12.194  0.00  0.00    +0.211 C 
ATOM     10  C   UNL     1       3.011  -2.382  12.072  0.00  0.00    +0.255 C 
ATOM     11  O   UNL     1       2.233  -1.408  12.785  0.00  0.00    -0.346 OA
BRANCH  10  12
ATOM     12  N   UNL     1       4.360  -2.343  12.592  0.00  0.00    -0.274 N 
ATOM     13  C   UNL     1       4.742  -2.624  13.882  0.00  0.00    +0.168 A 
ATOM     14  N   UNL     1       3.966  -3.028  14.906  0.00  0.00    -0.216 NA
ATOM     15  C   UNL     1       4.726  -3.217  16.021  0.00  0.00    +0.225 A 
ATOM     16  N   UNL     1       6.057  -3.046  16.177  0.00  0.00    -0.219 NA
ATOM     17  C   UNL     1       6.776  -2.621  15.117  0.00  0.00    +0.147 A 
ATOM     18  N   UNL     1       8.145  -2.438  15.270  0.00  0.00    -0.341 N 
ATOM     19  H   UNL     1       8.653  -2.457  14.392  0.00  0.00    +0.144 HD
ATOM     20  H   UNL     1       8.521  -2.976  16.039  0.00  0.00    +0.144 HD
ATOM     21  C   UNL     1       6.110  -2.405  13.899  0.00  0.00    +0.148 A 
ATOM     22  N   UNL     1       6.567  -2.020  12.661  0.00  0.00    -0.216 NA
ATOM     23  C   UNL     1       5.494  -1.993  11.899  0.00  0.00    +0.182 A 
ATOM     24 BR   UNL     1       5.594  -1.506  10.088  0.00  0.00    -0.008 Br
ENDBRANCH  10  12
BRANCH   8  25
ATOM     25  O   UNL     1       0.779  -3.980  14.014  0.00  0.00    -0.386 OA
ATOM     26  H   UNL     1       1.494  -3.638  14.593  0.00  0.00    +0.210 HD
ENDBRANCH   8  25
BRANCH   9  27
ATOM     27  O   UNL     1       2.266  -4.363  10.916  0.00  0.00    -0.276 OA
BRANCH  27  28
ATOM     28  P   UNL     1       1.501  -5.914  10.891  0.00  0.00    +0.473 P 
ATOM     29  O   UNL     1       0.816  -7.303  10.869  0.00  0.00    -0.228 OA
BRANCH  28  30
ATOM     30  O   UNL     1       1.914  -5.920   9.309  0.00  0.00    -0.303 OA
ATOM     31  H   UNL     1       1.295  -5.414   8.750  0.00  0.00    +0.222 HD
ENDBRANCH  28  30
BRANCH  28  32
ATOM     32  O   UNL     1       2.939  -6.508  11.397  0.00  0.00    -0.303 OA
ATOM     33  H   UNL     1       3.159  -7.218  10.763  0.00  0.00    +0.222 HD
ENDBRANCH  28  32
ENDBRANCH  27  28
ENDBRANCH   9  27
ENDBRANCH   6   7
ENDBRANCH   5   6
ENDBRANCH   1   5
BRANCH   1  34
ATOM     34  O   UNL     1      -0.275  -0.824   7.856  0.00  0.00    -0.229 OA
BRANCH  34  35
ATOM     35  P   UNL     1      -0.254   0.061   6.370  0.00  0.00    +0.222 P 
ATOM     36  O   UNL     1      -0.232   0.946   4.884  0.00  0.00    -0.437 OA
ATOM     37  O   UNL     1      -0.027  -1.312   5.718  0.00  0.00    -0.517 OA
BRANCH  35  38
ATOM     38  O   UNL     1      -1.886   0.223   6.562  0.00  0.00    -0.324 OA
BRANCH  38  39
ATOM     39  C   UNL     1      -2.364   1.265   7.375  0.00  0.00    +0.202 C 
BRANCH  39  43
ATOM     40  C   UNL     1      -5.555   1.237   9.089  0.00  0.00    +0.439 C 
ATOM     41  C   UNL     1      -5.431  -0.260   8.820  0.00  0.00    +0.244 C 
ATOM     42  C   UNL     1      -4.347  -0.361   7.749  0.00  0.00    +0.183 C 
ATOM     43  C   UNL     1      -3.858   1.082   7.527  0.00  0.00    +0.182 C 
ATOM     44  O   UNL     1      -4.403   1.905   8.567  0.00  0.00    -0.309 OA
BRANCH  40  47
ATOM     45  C   UNL     1      -8.778   3.113   8.699  0.00  0.00    +0.100 A 
ATOM     46  C   UNL     1      -7.697   2.440   9.263  0.00  0.00    +0.324 A 
ATOM     47  N   UNL     1      -6.779   1.827   8.473  0.00  0.00    -0.173 N 
ATOM     48  C   UNL     1      -6.947   1.832   7.124  0.00  0.00    +0.311 A 
ATOM     49  C   UNL     1      -7.998   2.502   6.524  0.00  0.00    +0.071 A 
ATOM     50  C   UNL     1      -8.930   3.151   7.315  0.00  0.00    +0.025 A 
BRANCH  45  54
ATOM     51  N   UNL     1     -10.527   4.749   9.138  0.00  0.00    -0.325 N 
ATOM     52  H   UNL     1     -10.380   5.222   8.258  0.00  0.00    +0.145 HD
ATOM     53  H   UNL     1     -11.166   5.190   9.792  0.00  0.00    +0.145 HD
ATOM     54  C   UNL     1      -9.752   3.735   9.620  0.00  0.00    +0.247 C 
ATOM     55  O   UNL     1      -9.824   3.345  10.773  0.00  0.00    -0.270 OA
ENDBRANCH  45  54
ENDBRANCH  40  47
BRANCH  42  56
ATOM     56  O   UNL     1      -4.942  -0.839   6.538  0.00  0.00    -0.386 OA
ATOM     57  H   UNL     1      -4.185  -1.087   5.959  0.00  0.00    +0.210 HD
ENDBRANCH  42  56
BRANCH  41  58
ATOM     58  O   UNL     1      -5.074  -0.951  10.030  0.00  0.00    -0.380 OA
ATOM     59  H   UNL     1      -4.093  -0.977  10.110  0.00  0.00    +0.210 HD
ENDBRANCH  41  58
ENDBRANCH  39  43
ENDBRANCH  38  39
ENDBRANCH  35  38
ENDBRANCH  34  35
ENDBRANCH   1  34
TORSDOF 19
