REMARK  Name = 
REMARK  45 active torsions:
REMARK  status: ('A' for Active; 'I' for Inactive)
REMARK    1  A    between atoms: C_1  and  C_2
REMARK    2  A    between atoms: C_2  and  C_3
REMARK    3  A    between atoms: C_2  and  C_4
REMARK    4  A    between atoms: C_4  and  C_5
REMARK    5  A    between atoms: C_5  and  C_6
REMARK    6  A    between atoms: C_6  and  C_7
REMARK    7  A    between atoms: C_7  and  C_9
REMARK    8  A    between atoms: C_7  and  C_10
REMARK    9  A    between atoms: C_10  and  C_11
REMARK   10  A    between atoms: C_11  and  C_12
REMARK   11  A    between atoms: C_12  and  C_13
REMARK   12  A    between atoms: C_13  and  C_15
REMARK   13  A    between atoms: C_13  and  C_16
REMARK   14  A    between atoms: C_16  and  C_17
REMARK   15  A    between atoms: C_17  and  C_18
REMARK   16  A    between atoms: C_18  and  C_19
REMARK   17  A    between atoms: C_19  and  C_21
REMARK   18  A    between atoms: C_19  and  C_22
REMARK   19  A    between atoms: C_22  and  C_23
REMARK   20  A    between atoms: C_23  and  O_24
REMARK   21  A    between atoms: O_24  and  C_25
REMARK   22  A    between atoms: C_25  and  C_26
REMARK   23  A    between atoms: C_26  and  C_28
REMARK   24  A    between atoms: C_26  and  O_30
REMARK   25  A    between atoms: C_28  and  O_29
REMARK   26  A    between atoms: O_30  and  C_31
REMARK   27  A    between atoms: C_31  and  C_32
REMARK   28  A    between atoms: C_32  and  C_33
REMARK   29  A    between atoms: C_33  and  C_35
REMARK   30  A    between atoms: C_33  and  C_36
REMARK   31  A    between atoms: C_36  and  C_37
REMARK   32  A    between atoms: C_37  and  C_38
REMARK   33  A    between atoms: C_38  and  C_39
REMARK   34  A    between atoms: C_39  and  C_41
REMARK   35  A    between atoms: C_39  and  C_42
REMARK   36  A    between atoms: C_42  and  C_43
REMARK   37  A    between atoms: C_43  and  C_44
REMARK   38  A    between atoms: C_44  and  C_45
REMARK   39  A    between atoms: C_45  and  C_47
REMARK   40  A    between atoms: C_45  and  C_48
REMARK   41  A    between atoms: C_48  and  C_49
REMARK   42  A    between atoms: C_49  and  C_50
REMARK   43  A    between atoms: C_50  and  C_51
REMARK   44  A    between atoms: C_51  and  C_52
REMARK   45  A    between atoms: C_51  and  C_53
REMARK                            x       y       z     vdW  Elec       q    Type
REMARK                         _______ _______ _______ _____ _____    ______ ____
ROOT
ATOM      1  C   UNL     1      36.074  15.647 -22.474  0.00  0.00    +0.169 C 
ENDROOT
BRANCH   1   2
ATOM      2  C   UNL     1      35.716  17.000 -21.822  0.00  0.00    +0.189 C 
BRANCH   2   3
ATOM      3  O   UNL     1      36.104  17.042 -20.451  0.00  0.00    -0.392 OA
ATOM      4  H   UNL     1      35.396  16.595 -19.953  0.00  0.00    +0.210 HD
ENDBRANCH   2   3
ENDBRANCH   1   2
BRANCH   1   5
ATOM      5  O   UNL     1      35.767  15.600 -23.894  0.00  0.00    -0.372 OA
BRANCH   5   6
ATOM      6  C   UNL     1      36.590  16.519 -24.611  0.00  0.00    +0.160 C 
BRANCH   6   7
ATOM      7  C   UNL     1      36.400  16.531 -26.133  0.00  0.00    +0.031 C 
BRANCH   7   8
ATOM      8  C   UNL     1      37.328  17.612 -26.757  0.00  0.00    -0.012 C 
ATOM      9  C   UNL     1      36.970  19.019 -26.244  0.00  0.00    +0.007 C 
BRANCH   8  10
ATOM     10  C   UNL     1      37.335  17.580 -28.304  0.00  0.00    +0.003 C 
BRANCH  10  11
ATOM     11  C   UNL     1      38.422  18.512 -28.865  0.00  0.00    +0.001 C 
BRANCH  11  12
ATOM     12  C   UNL     1      38.502  18.537 -30.392  0.00  0.00    +0.003 C 
BRANCH  12  13
ATOM     13  C   UNL     1      39.526  19.586 -30.892  0.00  0.00    -0.014 C 
ATOM     14  C   UNL     1      40.963  19.201 -30.512  0.00  0.00    +0.007 C 
BRANCH  13  15
ATOM     15  C   UNL     1      39.443  19.806 -32.418  0.00  0.00    +0.003 C 
BRANCH  15  16
ATOM     16  C   UNL     1      38.084  20.286 -32.949  0.00  0.00    +0.001 C 
BRANCH  16  17
ATOM     17  C   UNL     1      37.586  21.583 -32.300  0.00  0.00    +0.003 C 
BRANCH  17  18
ATOM     18  C   UNL     1      36.232  22.093 -32.847  0.00  0.00    -0.014 C 
ATOM     19  C   UNL     1      35.930  23.452 -32.196  0.00  0.00    +0.007 C 
BRANCH  18  20
ATOM     20  C   UNL     1      35.082  21.088 -32.605  0.00  0.00    +0.003 C 
BRANCH  20  21
ATOM     21  C   UNL     1      33.755  21.524 -33.239  0.00  0.00    +0.001 C 
BRANCH  21  22
ATOM     22  C   UNL     1      32.637  20.503 -32.996  0.00  0.00    +0.003 C 
BRANCH  22  23
ATOM     23  C   UNL     1      31.305  20.886 -33.673  0.00  0.00    -0.017 C 
ATOM     24  C   UNL     1      30.776  22.242 -33.202  0.00  0.00    +0.007 C 
ATOM     25  C   UNL     1      30.256  19.801 -33.417  0.00  0.00    +0.007 C 
ENDBRANCH  22  23
ENDBRANCH  21  22
ENDBRANCH  20  21
ENDBRANCH  18  20
ENDBRANCH  17  18
ENDBRANCH  16  17
ENDBRANCH  15  16
ENDBRANCH  13  15
ENDBRANCH  12  13
ENDBRANCH  11  12
ENDBRANCH  10  11
ENDBRANCH   8  10
ENDBRANCH   7   8
ENDBRANCH   6   7
ENDBRANCH   5   6
ENDBRANCH   1   5
BRANCH   1  26
ATOM     26  C   UNL     1      35.400  14.478 -21.730  0.00  0.00    +0.193 C 
BRANCH  26  27
ATOM     27  O   UNL     1      33.990  14.680 -21.545  0.00  0.00    -0.377 OA
BRANCH  27  28
ATOM     28  C   UNL     1      33.422  13.606 -20.788  0.00  0.00    +0.160 C 
BRANCH  28  29
ATOM     29  C   UNL     1      31.897  13.725 -20.764  0.00  0.00    +0.031 C 
BRANCH  29  30
ATOM     30  C   UNL     1      31.211  12.655 -19.881  0.00  0.00    -0.012 C 
ATOM     31  C   UNL     1      31.602  11.236 -20.310  0.00  0.00    +0.007 C 
BRANCH  30  32
ATOM     32  C   UNL     1      29.679  12.853 -19.904  0.00  0.00    +0.003 C 
BRANCH  32  33
ATOM     33  C   UNL     1      28.953  11.943 -18.901  0.00  0.00    +0.001 C 
BRANCH  33  34
ATOM     34  C   UNL     1      27.442  12.173 -18.894  0.00  0.00    +0.003 C 
BRANCH  34  35
ATOM     35  C   UNL     1      26.688  11.159 -18.000  0.00  0.00    -0.014 C 
ATOM     36  C   UNL     1      27.064  11.321 -16.524  0.00  0.00    +0.007 C 
BRANCH  35  37
ATOM     37  C   UNL     1      25.155  11.268 -18.152  0.00  0.00    +0.003 C 
BRANCH  37  38
ATOM     38  C   UNL     1      24.704  11.003 -19.591  0.00  0.00    +0.001 C 
BRANCH  38  39
ATOM     39  C   UNL     1      23.187  11.051 -19.753  0.00  0.00    +0.003 C 
BRANCH  39  40
ATOM     40  C   UNL     1      22.767  10.951 -21.239  0.00  0.00    -0.014 C 
ATOM     41  C   UNL     1      23.169   9.602 -21.846  0.00  0.00    +0.007 C 
BRANCH  40  42
ATOM     42  C   UNL     1      21.254  11.173 -21.442  0.00  0.00    +0.003 C 
BRANCH  42  43
ATOM     43  C   UNL     1      20.788  12.532 -20.920  0.00  0.00    +0.001 C 
BRANCH  43  44
ATOM     44  C   UNL     1      19.295  12.771 -21.132  0.00  0.00    +0.003 C 
BRANCH  44  46
ATOM     45  C   UNL     1      17.343  14.326 -20.830  0.00  0.00    +0.007 C 
ATOM     46  C   UNL     1      18.839  14.137 -20.581  0.00  0.00    -0.017 C 
ATOM     47  C   UNL     1      19.135  14.305 -19.087  0.00  0.00    +0.007 C 
ENDBRANCH  44  46
ENDBRANCH  43  44
ENDBRANCH  42  43
ENDBRANCH  40  42
ENDBRANCH  39  40
ENDBRANCH  38  39
ENDBRANCH  37  38
ENDBRANCH  35  37
ENDBRANCH  34  35
ENDBRANCH  33  34
ENDBRANCH  32  33
ENDBRANCH  30  32
ENDBRANCH  29  30
ENDBRANCH  28  29
ENDBRANCH  27  28
ENDBRANCH  26  27
ENDBRANCH   1  26
TORSDOF 35
