REMARK  Name = 
REMARK  10 active torsions:
REMARK  status: ('A' for Active; 'I' for Inactive)
REMARK    1  A    between atoms: C_2  and  C_3
REMARK    2  A    between atoms: C_2  and  N_12
REMARK    3  A    between atoms: C_2  and  C_33
REMARK    4  A    between atoms: C_3  and  S_4
REMARK    5  A    between atoms: S_4  and  C_5
REMARK    6  A    between atoms: C_5  and  C_6
REMARK    7  A    between atoms: C_13  and  C_15
REMARK    8  A    between atoms: C_15  and  C_17
REMARK    9  A    between atoms: C_15  and  N_24
REMARK   10  A    between atoms: C_17  and  C_18
REMARK                            x       y       z     vdW  Elec       q    Type
REMARK                         _______ _______ _______ _____ _____    ______ ____
ROOT
ATOM      1  C   UNK A   1       2.930  -0.279   3.926  0.00  0.00    +0.165 C 
ENDROOT
BRANCH   1   2
ATOM      2  N   UNK A   1       2.684   0.627   5.038  0.00  0.00    -0.288 N 
ATOM      3  H   UNK A   1       2.906   0.232   5.941  0.00  0.00    +0.151 HD
ATOM      4  C   UNK A   0       1.597   1.454   5.073  0.00  0.00    +0.303 C 
ATOM      5  N   UNK A   0       1.562   2.270   6.189  0.00  0.00    -0.281 N 
ATOM      6  C   UNK A   0       2.736   2.605   7.006  0.00  0.00    +0.137 C 
ATOM      7  C   UNK A   0       2.330   2.809   8.465  0.00  0.00    +0.179 C 
ATOM      8  O   UNK A   0       1.310   3.813   8.574  0.00  0.00    -0.377 OA
ATOM      9  C   UNK A   0       0.139   3.425   7.835  0.00  0.00    +0.179 C 
ATOM     10  C   UNK A   0       0.452   3.208   6.350  0.00  0.00    +0.137 C 
ATOM     11  O   UNK A   0       0.749   1.466   4.187  0.00  0.00    -0.253 OA
ENDBRANCH   1   2
BRANCH   1  14
ATOM     12  N   UNK A   1       2.046  -2.270   2.819  0.00  0.00    -0.304 N 
ATOM     13  H   UNK A   1       2.595  -1.947   2.026  0.00  0.00    +0.149 HD
ATOM     14  C   UNK A   1       2.029  -1.535   3.985  0.00  0.00    +0.234 C 
ATOM     15  O   UNK A   1       1.420  -1.905   4.987  0.00  0.00    -0.274 OA
BRANCH  12  16
ATOM     16  C   UNK A   1       1.488  -3.621   2.709  0.00  0.00    +0.146 C 
BRANCH  16  17
ATOM     17  C   UNK A   1       2.469  -4.373   1.810  0.00  0.00    +0.246 C 
ATOM     18  O   UNK A   1       3.233  -3.811   1.024  0.00  0.00    -0.299 OA
ENDBRANCH  16  17
BRANCH  16  19
ATOM     19  C   UNK A   1       0.088  -3.601   2.100  0.00  0.00    +0.099 C 
BRANCH  19  20
ATOM     20  S   UNK A   1      -0.600  -5.286   1.973  0.00  0.00    -0.154 S 
BRANCH  20  21
ATOM     21  C   UNK A   1      -2.184  -4.890   1.164  0.00  0.00    +0.104 C 
BRANCH  21  22
ATOM     22  C   UNK A   1      -2.955  -6.154   0.879  0.00  0.00    -0.038 A 
ATOM     23  C   UNK A   1      -2.748  -6.864  -0.313  0.00  0.00    +0.004 A 
ATOM     24  C   UNK A   1      -3.424  -8.061  -0.552  0.00  0.00    +0.000 A 
ATOM     25  C   UNK A   1      -4.311  -8.563   0.399  0.00  0.00    +0.000 A 
ATOM     26  C   UNK A   1      -4.523  -7.868   1.589  0.00  0.00    +0.000 A 
ATOM     27  C   UNK A   1      -3.847  -6.671   1.830  0.00  0.00    +0.004 A 
ENDBRANCH  21  22
ENDBRANCH  20  21
ENDBRANCH  19  20
ENDBRANCH  16  19
ENDBRANCH  12  16
ENDBRANCH   1  14
BRANCH   1  28
ATOM     28  C   UNK A   1       4.426  -0.676   3.890  0.00  0.00    +0.067 C 
BRANCH  28  29
ATOM     29  C   UNK A   1       4.963  -1.217   5.205  0.00  0.00    -0.045 A 
ATOM     30  C   UNK A   1       5.810  -0.433   6.002  0.00  0.00    +0.004 A 
ATOM     31  C   UNK A   1       6.231  -0.886   7.254  0.00  0.00    +0.000 A 
ATOM     32  C   UNK A   1       5.808  -2.127   7.727  0.00  0.00    +0.000 A 
ATOM     33  C   UNK A   1       4.988  -2.926   6.936  0.00  0.00    +0.000 A 
ATOM     34  C   UNK A   1       4.580  -2.481   5.677  0.00  0.00    +0.004 A 
ENDBRANCH  28  29
ENDBRANCH   1  28
TORSDOF 10
