REMARK  Name = 
REMARK  6 active torsions:
REMARK  status: ('A' for Active; 'I' for Inactive)
REMARK    1  A    between atoms: C_1  and  N_2
REMARK    2  A    between atoms: C_5  and  C_11
REMARK    3  A    between atoms: C_7  and  O_9
REMARK    4  A    between atoms: C_12  and  O_13
REMARK    5  A    between atoms: C_15  and  O_16
REMARK    6  A    between atoms: C_20  and  C_24
REMARK                            x       y       z     vdW  Elec       q    Type
REMARK                         _______ _______ _______ _____ _____    ______ ____
ROOT
ATOM      1  C   UNL     1       4.570  -0.749  -2.798  0.00  0.00    +0.043 A 
ATOM      2  C   UNL     1       5.349   0.464  -2.741  0.00  0.00    +0.150 A 
ATOM      3  O   UNL     1       4.709   1.693  -2.625  0.00  0.00    -0.454 OA
ATOM      4  C   UNL     1       5.442   2.889  -2.689  0.00  0.00    +0.141 A 
ATOM      5  C   UNL     1       6.769   2.916  -2.857  0.00  0.00    +0.098 A 
ATOM      6  C   UNL     1       7.535   1.674  -2.838  0.00  0.00    +0.197 A 
ATOM      7  O   UNL     1       8.753   1.755  -2.918  0.00  0.00    -0.287 OA
ATOM      8  C   UNL     1       6.769   0.422  -2.760  0.00  0.00    +0.106 A 
ATOM      9  C   UNL     1       7.448  -0.794  -2.735  0.00  0.00    +0.135 A 
ATOM     10  C   UNL     1       6.729  -1.966  -2.753  0.00  0.00    +0.092 A 
ATOM     11  C   UNL     1       5.334  -1.948  -2.800  0.00  0.00    +0.127 A 
ENDROOT
BRANCH   1  16
ATOM     12  C   UNL     1       0.490  -0.872  -5.713  0.00  0.00    +0.105 C 
ATOM     13  N   UNL     1       1.944  -0.829  -5.560  0.00  0.00    -0.303 NA
ATOM     14  C   UNL     1       2.438  -2.025  -4.863  0.00  0.00    +0.116 C 
ATOM     15  C   UNL     1       2.234  -1.969  -3.332  0.00  0.00    +0.136 C 
ATOM     16  C   UNL     1       3.009  -0.755  -2.730  0.00  0.00    +0.057 C 
ATOM     17  C   UNL     1       2.268   0.432  -3.395  0.00  0.00    +0.026 C 
ATOM     18  C   UNL     1       2.416   0.411  -4.923  0.00  0.00    +0.085 C 
BRANCH  15  19
ATOM     19  O   UNL     1       2.539  -3.217  -2.722  0.00  0.00    -0.390 OA
ATOM     20  H   UNL     1       2.603  -3.071  -1.756  0.00  0.00    +0.210 HD
ENDBRANCH  15  19
ENDBRANCH   1  16
BRANCH   4  21
ATOM     21  C   UNL     1       4.675   4.175  -2.680  0.00  0.00    +0.036 A 
ATOM     22  C   UNL     1       5.122   5.397  -2.108  0.00  0.00    +0.052 A 
ATOM     23 CL   UNL     1       6.550   5.543  -1.133  0.00  0.00    -0.083 Cl
ATOM     24  C   UNL     1       4.394   6.591  -2.262  0.00  0.00    +0.021 A 
ATOM     25  C   UNL     1       3.173   6.592  -2.925  0.00  0.00    +0.001 A 
ATOM     26  C   UNL     1       2.677   5.400  -3.435  0.00  0.00    +0.001 A 
ATOM     27  C   UNL     1       3.425   4.217  -3.327  0.00  0.00    +0.013 A 
ENDBRANCH   4  21
BRANCH   9  28
ATOM     28  O   UNL     1       8.807  -0.875  -2.674  0.00  0.00    -0.506 OA
ATOM     29  H   UNL     1       9.089  -1.802  -2.621  0.00  0.00    +0.292 HD
ENDBRANCH   9  28
BRANCH  11  30
ATOM     30  O   UNL     1       4.892  -3.239  -2.814  0.00  0.00    -0.506 OA
ATOM     31  H   UNL     1       3.983  -3.329  -3.152  0.00  0.00    +0.292 HD
ENDBRANCH  11  30
TORSDOF 5
