REMARK  Name = 
REMARK  26 active torsions:
REMARK  status: ('A' for Active; 'I' for Inactive)
REMARK    1  A    between atoms: C_1  and  O_2
REMARK    2  A    between atoms: O_2  and  C_3
REMARK    3  A    between atoms: C_3  and  C_5
REMARK    4  A    between atoms: C_3  and  C_12
REMARK    5  A    between atoms: C_5  and  C_6
REMARK    6  A    between atoms: C_7  and  N_8
REMARK    7  A    between atoms: N_8  and  C_9
REMARK    8  A    between atoms: N_8  and  C_10
REMARK    9  A    between atoms: C_10  and  O_11
REMARK   10  A    between atoms: C_12  and  C_14
REMARK   11  A    between atoms: C_12  and  C_15
REMARK   12  A    between atoms: C_15  and  C_17
REMARK   13  A    between atoms: C_17  and  C_18
REMARK   14  A    between atoms: C_18  and  C_19
REMARK   15  A    between atoms: C_19  and  C_21
REMARK   16  A    between atoms: C_19  and  C_22
REMARK   17  A    between atoms: C_22  and  C_24
REMARK   18  A    between atoms: C_22  and  O_70
REMARK   19  A    between atoms: C_24  and  C_25
REMARK   20  A    between atoms: C_31  and  O_33
REMARK   21  A    between atoms: C_35  and  O_37
REMARK   22  A    between atoms: C_41  and  C_43
REMARK   23  A    between atoms: C_44  and  O_46
REMARK   24  A    between atoms: O_46  and  C_47
REMARK   25  A    between atoms: C_66  and  C_68
REMARK   26  A    between atoms: O_70  and  C_71
REMARK                            x       y       z     vdW  Elec       q    Type
REMARK                         _______ _______ _______ _____ _____    ______ ____
ROOT
ATOM      1  C   UNL     1       3.334  -2.629  -7.122  0.00  0.00    +0.182 C 
ATOM      2  C   UNL     1       2.011  -1.715  -8.400  0.00  0.00    +0.027 C 
ATOM      3  C   UNL     1       1.965  -0.486  -7.413  0.00  0.00    +0.011 C 
ATOM      4  C   UNL     1       0.557  -1.346  -9.872  0.00  0.00    +0.011 C 
ATOM      5  C   UNL     1      -0.816  -0.352 -11.115  0.00  0.00    +0.028 C 
ATOM      6  C   UNL     1      -2.456  -0.203 -12.182  0.00  0.00    -0.022 C 
ATOM      7  C   UNL     1      -3.463   0.742 -12.921  0.00  0.00    +0.063 C 
ATOM      8  C   UNL     1      -4.955   0.582 -13.694  0.00  0.00    +0.220 A 
ATOM      9  N   UNL     1      -5.286  -0.100 -14.809  0.00  0.00    -0.205 NA
ATOM     10  C   UNL     1      -6.731  -0.064 -14.989  0.00  0.00    +0.164 A 
ATOM     11  C   UNL     1      -7.203   1.061 -14.362  0.00  0.00    +0.230 A 
ATOM     12  C   UNL     1      -7.448  -1.371 -14.686  0.00  0.00    +0.250 A 
ATOM     13  N   UNL     1      -7.066  -1.891 -13.546  0.00  0.00    -0.203 NA
ATOM     14  C   UNL     1      -7.251  -3.214 -13.694  0.00  0.00    +0.164 A 
ATOM     15  C   UNL     1      -8.039  -3.460 -14.784  0.00  0.00    +0.230 A 
ATOM     16  C   UNL     1      -6.598  -4.147 -12.767  0.00  0.00    +0.249 A 
ATOM     17  N   UNL     1      -5.803  -3.702 -11.815  0.00  0.00    -0.210 NA
ATOM     18  C   UNL     1      -5.454  -4.814 -11.111  0.00  0.00    +0.109 A 
ATOM     19  C   UNL     1      -5.993  -5.919 -11.723  0.00  0.00    +0.223 A 
ATOM     20  C   UNL     1      -4.605  -4.724  -9.893  0.00  0.00    +0.179 C 
ATOM     21  C   UNL     1      -3.155  -5.053 -10.255  0.00  0.00    +0.087 C 
ATOM     22  C   UNL     1      -2.951  -6.407 -10.952  0.00  0.00    +0.018 C 
ATOM     23  C   UNL     1      -2.387  -5.159  -8.976  0.00  0.00    +0.141 C 
ATOM     24  O   UNL     1      -2.928  -5.401  -7.897  0.00  0.00    -0.297 OA
ATOM     25  C   UNL     1      -0.906  -5.154  -9.158  0.00  0.00    +0.106 C 
ATOM     26  C   UNL     1      -0.275  -5.124  -7.811  0.00  0.00    +0.124 C 
ATOM     27  C   UNL     1       1.093  -5.695  -8.019  0.00  0.00    +0.063 C 
ATOM     28  C   UNL     1       1.612  -6.078  -6.662  0.00  0.00    +0.128 C 
ATOM     29  C   UNL     1       3.082  -6.370  -6.825  0.00  0.00    +0.152 C 
ATOM     30  C   UNL     1       3.527  -5.048  -6.261  0.00  0.00    +0.310 C 
ATOM     31  O   UNL     1       3.698  -4.928  -5.056  0.00  0.00    -0.251 OA
ATOM     32  O   UNL     1      -6.716  -5.508 -12.796  0.00  0.00    -0.442 OA
ATOM     33  O   UNL     1      -8.167  -2.262 -15.470  0.00  0.00    -0.442 OA
ATOM     34  O   UNL     1      -6.134   1.533 -13.546  0.00  0.00    -0.443 OA
ATOM     35  O   UNL     1       3.297  -4.139  -7.260  0.00  0.00    -0.461 OA
ENDROOT
BRANCH  20  36
ATOM     36  O   UNL     1      -4.634  -3.402  -9.303  0.00  0.00    -0.373 OA
ATOM     37  C   UNL     1      -5.918  -3.064  -8.784  0.00  0.00    +0.194 C 
ENDBRANCH  20  36
BRANCH  26  38
ATOM     38  O   UNL     1      -0.178  -3.775  -7.353  0.00  0.00    -0.391 OA
ATOM     39  H   UNL     1      -0.231  -3.809  -6.380  0.00  0.00    +0.210 HD
ENDBRANCH  26  38
BRANCH  28  40
ATOM     40  O   UNL     1       0.897  -7.180  -6.139  0.00  0.00    -0.391 OA
ATOM     41  H   UNL     1       1.485  -7.677  -5.549  0.00  0.00    +0.210 HD
ENDBRANCH  28  40
BRANCH   1  42
ATOM     42  C   UNL     1       4.486  -2.485  -5.473  0.00  0.00    +0.076 C 
BRANCH  42  43
ATOM     43  C   UNL     1       5.754  -3.299  -3.964  0.00  0.00    +0.124 C 
BRANCH  43  44
ATOM     44  C   UNL     1       5.765  -3.317  -2.072  0.00  0.00    +0.015 C 
ATOM     45  C   UNL     1       7.029  -3.836  -0.912  0.00  0.00    +0.010 C 
BRANCH  44  46
ATOM     46  C   UNL     1       4.702  -4.255  -1.408  0.00  0.00    +0.013 C 
BRANCH  46  47
ATOM     47  C   UNL     1       4.365  -3.987   0.099  0.00  0.00    +0.075 C 
BRANCH  47  48
ATOM     48  C   UNL     1       3.437  -5.072   0.586  0.00  0.00    +0.139 C 
ATOM     49  O   UNL     1       3.647  -6.257   0.325  0.00  0.00    -0.297 OA
BRANCH  48  50
ATOM     50  C   UNL     1       2.271  -4.630   1.435  0.00  0.00    +0.081 C 
ATOM     51  C   UNL     1       1.187  -4.198   0.453  0.00  0.00    +0.018 C 
BRANCH  50  52
ATOM     52  C   UNL     1       1.833  -5.767   2.378  0.00  0.00    +0.132 C 
BRANCH  52  54
ATOM     53  C   UNL     1       0.739  -4.363   4.034  0.00  0.00    +0.194 C 
ATOM     54  O   UNL     1       0.628  -5.412   3.084  0.00  0.00    -0.379 OA
ENDBRANCH  52  54
BRANCH  52  55
ATOM     55  C   UNL     1       2.977  -6.202   3.329  0.00  0.00    +0.060 C 
BRANCH  55  56
ATOM     56  C   UNL     1       2.592  -7.370   4.184  0.00  0.00    -0.009 C 
ATOM     57  C   UNL     1       3.187  -8.569   4.147  0.00  0.00    +0.068 C 
BRANCH  57  58
ATOM     58  N   UNL     1       2.929  -9.662   4.954  0.00  0.00    -0.317 N 
ATOM     59  C   UNL     1       2.233  -9.543   6.237  0.00  0.00    +0.131 C 
BRANCH  58  60
ATOM     60  C   UNL     1       3.023 -11.018   4.437  0.00  0.00    +0.263 C 
BRANCH  60  61
ATOM     61  O   UNL     1       3.924 -11.742   5.243  0.00  0.00    -0.377 OA
ATOM     62  H   UNL     1       4.693 -11.151   5.296  0.00  0.00    +0.211 HD
ENDBRANCH  60  61
ENDBRANCH  58  60
ENDBRANCH  57  58
ENDBRANCH  55  56
ENDBRANCH  52  55
ENDBRANCH  50  52
ENDBRANCH  48  50
ENDBRANCH  47  48
ENDBRANCH  46  47
ENDBRANCH  44  46
ENDBRANCH  43  44
BRANCH  43  63
ATOM     63  O   UNL     1       7.227  -3.021  -4.332  0.00  0.00    -0.379 OA
ATOM     64  C   UNL     1       8.257  -3.057  -3.262  0.00  0.00    +0.194 C 
ENDBRANCH  43  63
ENDBRANCH  42  43
ENDBRANCH   1  42
TORSDOF 18
