REMARK  Name = 
REMARK  19 active torsions:
REMARK  status: ('A' for Active; 'I' for Inactive)
REMARK    1  A    between atoms: O_1  and  C_2
REMARK    2  A    between atoms: C_5  and  C_7
REMARK    3  A    between atoms: C_7  and  O_8
REMARK    4  A    between atoms: O_8  and  P_9
REMARK    5  A    between atoms: P_9  and  O_10
REMARK    6  A    between atoms: P_9  and  O_12
REMARK    7  A    between atoms: O_12  and  P_13
REMARK    8  A    between atoms: P_13  and  O_14
REMARK    9  A    between atoms: P_13  and  O_16
REMARK   10  A    between atoms: O_16  and  C_17
REMARK   11  A    between atoms: C_17  and  C_18
REMARK   12  A    between atoms: C_21  and  N_33
REMARK   13  A    between atoms: C_23  and  O_25
REMARK   14  A    between atoms: O_25  and  P_26
REMARK   15  A    between atoms: P_26  and  O_27
REMARK   16  A    between atoms: P_26  and  O_28
REMARK   17  A    between atoms: C_30  and  O_32
REMARK   18  A    between atoms: C_45  and  O_47
REMARK   19  A    between atoms: C_48  and  O_50
REMARK                            x       y       z     vdW  Elec       q    Type
REMARK                         _______ _______ _______ _____ _____    ______ ____
ROOT
ATOM      1  C   UNL     1       6.536  -0.756  -6.849  0.00  0.00    +0.178 C 
ATOM      2  C   UNL     1       5.503   0.360  -6.980  0.00  0.00    +0.179 C 
ATOM      3  C   UNL     1       4.328  -0.262  -7.724  0.00  0.00    +0.211 C 
ATOM      4  C   UNL     1       4.766  -1.700  -7.999  0.00  0.00    +0.254 C 
ATOM      5  O   UNL     1       5.795  -1.980  -7.020  0.00  0.00    -0.346 OA
ENDROOT
BRANCH   4   6
ATOM      6  N   UNL     1       3.703  -2.686  -7.889  0.00  0.00    -0.285 N 
ATOM      7  C   UNL     1       2.516  -2.636  -8.571  0.00  0.00    +0.168 A 
ATOM      8  N   UNL     1       2.048  -1.578  -9.291  0.00  0.00    -0.217 NA
ATOM      9  C   UNL     1       0.957  -1.822  -9.975  0.00  0.00    +0.207 A 
ATOM     10  N   UNL     1       0.336  -3.081  -9.984  0.00  0.00    -0.288 N 
ATOM     11  C   UNL     1       0.787  -4.148  -9.237  0.00  0.00    +0.168 A 
ATOM     12  N   UNL     1       0.071  -5.229  -9.442  0.00  0.00    -0.234 NA
ATOM     13  C   UNL     1      -0.869  -4.851 -10.373  0.00  0.00    +0.131 A 
ATOM     14  C   UNL     1      -0.737  -3.521 -10.712  0.00  0.00    +0.114 A 
ATOM     15  C   UNL     1       1.995  -3.905  -8.427  0.00  0.00    +0.151 A 
ATOM     16  N   UNL     1       2.750  -4.694  -7.621  0.00  0.00    -0.230 NA
ATOM     17  C   UNL     1       3.783  -3.931  -7.311  0.00  0.00    +0.203 A 
ENDBRANCH   4   6
BRANCH   2  18
ATOM     18  O   UNL     1       5.021   0.801  -5.699  0.00  0.00    -0.386 OA
ATOM     19  H   UNL     1       4.824   0.011  -5.158  0.00  0.00    +0.210 HD
ENDBRANCH   2  18
BRANCH   1  20
ATOM     20  C   UNL     1       7.665  -0.666  -7.893  0.00  0.00    +0.206 C 
BRANCH  20  21
ATOM     21  O   UNL     1       7.160  -0.670  -9.227  0.00  0.00    -0.284 OA
BRANCH  21  22
ATOM     22  P   UNL     1       8.419  -0.584 -10.410  0.00  0.00    +0.483 P 
ATOM     23  O   UNL     1       7.839  -1.820 -11.104  0.00  0.00    -0.227 OA
BRANCH  22  24
ATOM     24  O   UNL     1       7.632   0.636 -11.159  0.00  0.00    -0.302 OA
ATOM     25  H   UNL     1       7.032   0.196 -11.797  0.00  0.00    +0.222 HD
ENDBRANCH  22  24
BRANCH  22  26
ATOM     26  O   UNL     1       9.678  -0.498 -11.594  0.00  0.00    -0.186 OA
BRANCH  26  27
ATOM     27  P   UNL     1      11.152  -0.009 -10.833  0.00  0.00    +0.483 P 
ATOM     28  O   UNL     1      10.885  -0.868  -9.596  0.00  0.00    -0.227 OA
BRANCH  27  29
ATOM     29  O   UNL     1      12.627   0.481 -10.072  0.00  0.00    -0.302 OA
ATOM     30  H   UNL     1      12.975  -0.342  -9.676  0.00  0.00    +0.222 HD
ENDBRANCH  27  29
BRANCH  27  31
ATOM     31  O   UNL     1      12.034  -0.901 -11.892  0.00  0.00    -0.284 OA
BRANCH  31  32
ATOM     32  C   UNL     1      11.920  -0.658 -13.295  0.00  0.00    +0.206 C 
BRANCH  32  36
ATOM     33  C   UNL     1      14.366   0.766 -14.481  0.00  0.00    +0.279 C 
ATOM     34  C   UNL     1      13.495   0.966 -15.728  0.00  0.00    +0.201 C 
ATOM     35  C   UNL     1      12.074   1.051 -15.180  0.00  0.00    +0.179 C 
ATOM     36  C   UNL     1      12.208   0.801 -13.678  0.00  0.00    +0.179 C 
ATOM     37  O   UNL     1      13.569   1.128 -13.353  0.00  0.00    -0.341 OA
BRANCH  33  38
ATOM     38  O   UNL     1      15.502   1.607 -14.527  0.00  0.00    -0.365 OA
ATOM     39  H   UNL     1      16.096   1.270 -13.835  0.00  0.00    +0.213 HD
ENDBRANCH  33  38
BRANCH  35  40
ATOM     40  O   UNL     1      11.551   2.368 -15.408  0.00  0.00    -0.386 OA
ATOM     41  H   UNL     1      12.161   3.010 -14.996  0.00  0.00    +0.210 HD
ENDBRANCH  35  40
BRANCH  34  42
ATOM     42  O   UNL     1      13.616  -0.137 -16.630  0.00  0.00    -0.384 OA
ATOM     43  H   UNL     1      13.203   0.144 -17.468  0.00  0.00    +0.210 HD
ENDBRANCH  34  42
ENDBRANCH  32  36
ENDBRANCH  31  32
ENDBRANCH  27  31
ENDBRANCH  26  27
ENDBRANCH  22  26
ENDBRANCH  21  22
ENDBRANCH  20  21
ENDBRANCH   1  20
BRANCH   3  44
ATOM     44  O   UNL     1       4.049   0.455  -8.913  0.00  0.00    -0.276 OA
BRANCH  44  45
ATOM     45  P   UNL     1       3.514   1.956  -8.803  0.00  0.00    +0.473 P 
ATOM     46  O   UNL     1       4.561   3.015  -8.856  0.00  0.00    -0.228 OA
BRANCH  45  47
ATOM     47  O   UNL     1       2.455   2.011  -9.991  0.00  0.00    -0.303 OA
ATOM     48  H   UNL     1       2.902   1.922 -10.852  0.00  0.00    +0.222 HD
ENDBRANCH  45  47
BRANCH  45  49
ATOM     49  O   UNL     1       2.599   1.985  -7.497  0.00  0.00    -0.303 OA
ATOM     50  H   UNL     1       3.121   2.156  -6.688  0.00  0.00    +0.222 HD
ENDBRANCH  45  49
ENDBRANCH  44  45
ENDBRANCH   3  44
TORSDOF 19
