REMARK  Name = 
REMARK  8 active torsions:
REMARK  status: ('A' for Active; 'I' for Inactive)
REMARK    1  A    between atoms: C_1  and  O_2
REMARK    2  A    between atoms: O_2  and  C_3
REMARK    3  A    between atoms: C_6  and  C_15
REMARK    4  A    between atoms: C_8  and  O_9
REMARK    5  A    between atoms: O_9  and  C_10
REMARK    6  A    between atoms: C_15  and  C_25
REMARK    7  A    between atoms: C_18  and  C_22
REMARK    8  A    between atoms: C_22  and  O_23
REMARK                            x       y       z     vdW  Elec       q    Type
REMARK                         _______ _______ _______ _____ _____    ______ ____
ROOT
ATOM      1  C   UNL     1       8.474  -0.368  -5.447  0.00  0.00    +0.162 A 
ATOM      2  C   UNL     1       7.743  -0.058  -6.601  0.00  0.00    +0.163 A 
ATOM      3  C   UNL     1       6.493   0.597  -6.466  0.00  0.00    +0.054 A 
ATOM      4  C   UNL     1       5.966   0.963  -5.211  0.00  0.00    -0.024 A 
ATOM      5  C   UNL     1       6.776   0.727  -4.092  0.00  0.00    +0.009 A 
ATOM      6  C   UNL     1       8.007   0.091  -4.211  0.00  0.00    +0.050 A 
ENDROOT
BRANCH   4   7
ATOM      7  C   UNL     1       4.573   1.587  -4.984  0.00  0.00    +0.082 C 
ATOM      8  C   UNL     1       4.758   2.972  -4.292  0.00  0.00    +0.027 C 
ATOM      9  C   UNL     1       3.457   3.746  -4.068  0.00  0.00    +0.016 C 
ATOM     10  C   UNL     1       2.648   3.918  -5.350  0.00  0.00    +0.098 C 
ATOM     11  C   UNL     1       2.438   2.575  -6.061  0.00  0.00    +0.016 C 
ATOM     12  C   UNL     1       3.734   1.773  -6.275  0.00  0.00    +0.027 C 
BRANCH   7  13
ATOM     13  C   UNL     1       3.798   0.689  -4.073  0.00  0.00    +0.074 C 
ATOM     14  N   UNL     1       3.180   0.021  -3.349  0.00  0.00    -0.196 NA
ENDBRANCH   7  13
BRANCH  10  15
ATOM     15  C   UNL     1       3.299   4.958  -6.251  0.00  0.00    +0.308 C 
ATOM     16  O   UNL     1       4.057   4.706  -7.175  0.00  0.00    -0.251 OA
BRANCH  15  17
ATOM     17  O   UNL     1       2.996   6.229  -5.904  0.00  0.00    -0.480 OA
ATOM     18  H   UNL     1       2.390   6.311  -5.145  0.00  0.00    +0.295 HD
ENDBRANCH  15  17
ENDBRANCH  10  15
ENDBRANCH   4   7
BRANCH   1  20
ATOM     19  C   UNL     1       9.989  -1.819  -4.365  0.00  0.00    +0.277 C 
ATOM     20  O   UNL     1       9.639  -1.079  -5.535  0.00  0.00    -0.491 OA
ENDBRANCH   1  20
BRANCH   2  21
ATOM     21  O   UNL     1       8.102  -0.263  -7.910  0.00  0.00    -0.485 OA
BRANCH  21  22
ATOM     22  C   UNL     1       8.977  -1.329  -8.274  0.00  0.00    +0.174 C 
ATOM     23  C   UNL     1      10.453  -0.916  -8.382  0.00  0.00    +0.044 C 
ATOM     24  C   UNL     1      11.041  -1.682  -9.572  0.00  0.00    +0.004 C 
ATOM     25  C   UNL     1       9.894  -2.486 -10.164  0.00  0.00    +0.004 C 
ATOM     26  C   UNL     1       8.656  -1.728  -9.721  0.00  0.00    +0.044 C 
ENDBRANCH  21  22
ENDBRANCH   2  21
TORSDOF 7
