REMARK  Name = 
REMARK  31 active torsions:
REMARK  status: ('A' for Active; 'I' for Inactive)
REMARK    1  A    between atoms: C_1  and  C_2
REMARK    2  A    between atoms: C_2  and  C_3
REMARK    3  A    between atoms: C_2  and  C_4
REMARK    4  A    between atoms: C_2  and  C_40
REMARK    5  A    between atoms: C_4  and  O_5
REMARK    6  A    between atoms: O_5  and  P_6
REMARK    7  A    between atoms: P_6  and  O_7
REMARK    8  A    between atoms: P_6  and  O_9
REMARK    9  A    between atoms: O_9  and  P_10
REMARK   10  A    between atoms: P_10  and  O_11
REMARK   11  A    between atoms: P_10  and  O_13
REMARK   12  A    between atoms: O_13  and  C_14
REMARK   13  A    between atoms: C_14  and  C_15
REMARK   14  A    between atoms: C_18  and  N_30
REMARK   15  A    between atoms: C_20  and  O_22
REMARK   16  A    between atoms: C_23  and  O_25
REMARK   17  A    between atoms: O_25  and  P_26
REMARK   18  A    between atoms: P_26  and  O_27
REMARK   19  A    between atoms: P_26  and  O_28
REMARK   20  A    between atoms: C_40  and  O_42
REMARK   21  A    between atoms: C_40  and  C_43
REMARK   22  A    between atoms: N_45  and  C_46
REMARK   23  A    between atoms: C_46  and  C_47
REMARK   24  A    between atoms: C_47  and  C_48
REMARK   25  A    between atoms: N_50  and  C_51
REMARK   26  A    between atoms: C_51  and  C_52
REMARK   27  A    between atoms: C_52  and  N_53
REMARK   28  A    between atoms: C_54  and  C_56
REMARK   29  A    between atoms: C_56  and  C_57
REMARK   30  A    between atoms: C_57  and  C_58
REMARK   31  A    between atoms: C_58  and  O_59
REMARK                            x       y       z     vdW  Elec       q    Type
REMARK                         _______ _______ _______ _____ _____    ______ ____
ROOT
ATOM      1  P   UNL     1      11.585  -4.712   3.979  0.00  0.00    +0.483 P 
ATOM      2  O   UNL     1      11.740  -6.187   4.239  0.00  0.00    -0.227 OA
ENDROOT
BRANCH   1   3
ATOM      3  O   UNL     1      12.361  -4.377   2.606  0.00  0.00    -0.302 OA
ATOM      4  H   UNL     1      12.433  -5.183   2.056  0.00  0.00    +0.222 HD
ENDBRANCH   1   3
BRANCH   1   5
ATOM      5  O   UNL     1       9.993  -4.324   3.599  0.00  0.00    -0.286 OA
BRANCH   5   6
ATOM      6  C   UNL     1       9.568  -3.200   2.751  0.00  0.00    +0.181 C 
BRANCH   6   8
ATOM      7  C   UNL     1       7.450  -3.970   1.543  0.00  0.00    +0.016 C 
ATOM      8  C   UNL     1       7.902  -2.800   2.465  0.00  0.00    +0.024 C 
ATOM      9  C   UNL     1       6.607  -2.828   3.404  0.00  0.00    +0.016 C 
BRANCH   8  10
ATOM     10  C   UNL     1       7.899  -1.368   1.747  0.00  0.00    +0.208 C 
BRANCH  10  11
ATOM     11  C   UNL     1       8.683  -0.241   2.529  0.00  0.00    +0.242 C 
ATOM     12  N   UNL     1       8.532   1.052   2.071  0.00  0.00    -0.313 N 
ATOM     13  H   UNL     1       7.857   1.185   1.328  0.00  0.00    +0.149 HD
ATOM     14  O   UNL     1       9.455  -0.489   3.442  0.00  0.00    -0.273 OA
BRANCH  12  15
ATOM     15  C   UNL     1       9.359   2.201   2.473  0.00  0.00    +0.113 C 
BRANCH  15  16
ATOM     16  C   UNL     1      10.168   2.091   3.752  0.00  0.00    +0.114 C 
BRANCH  16  17
ATOM     17  C   UNL     1      11.398   1.244   3.543  0.00  0.00    +0.215 C 
ATOM     18  N   UNL     1      11.854   0.788   4.748  0.00  0.00    -0.314 N 
ATOM     19  H   UNL     1      11.190   0.905   5.512  0.00  0.00    +0.149 HD
ATOM     20  O   UNL     1      11.924   0.984   2.469  0.00  0.00    -0.276 OA
BRANCH  18  21
ATOM     21  C   UNL     1      12.479  -0.493   4.767  0.00  0.00    +0.123 C 
BRANCH  21  22
ATOM     22  C   UNL     1      12.405  -0.953   6.191  0.00  0.00    +0.123 C 
BRANCH  22  23
ATOM     23  N   UNL     1      11.109  -1.249   6.838  0.00  0.00    -0.314 N 
ATOM     24  H   UNL     1      11.010  -1.071   7.840  0.00  0.00    +0.149 HD
ATOM     25  C   UNL     1      10.400  -2.379   6.463  0.00  0.00    +0.214 C 
ATOM     26  O   UNL     1      10.438  -2.703   5.276  0.00  0.00    -0.276 OA
BRANCH  25  27
ATOM     27  C   UNL     1       9.520  -3.131   7.439  0.00  0.00    +0.107 C 
BRANCH  27  28
ATOM     28  C   UNL     1       8.105  -2.620   7.316  0.00  0.00    +0.129 C 
BRANCH  28  29
ATOM     29  C   UNL     1       7.923  -2.451   5.874  0.00  0.00    +0.305 C 
ATOM     30  O   UNL     1       7.924  -1.341   5.353  0.00  0.00    -0.251 OA
BRANCH  29  31
ATOM     31  O   UNL     1       8.121  -3.660   5.305  0.00  0.00    -0.481 OA
ATOM     32  H   UNL     1       8.934  -3.614   4.739  0.00  0.00    +0.295 HD
ENDBRANCH  29  31
ENDBRANCH  28  29
ENDBRANCH  27  28
ENDBRANCH  25  27
ENDBRANCH  22  23
ENDBRANCH  21  22
ENDBRANCH  18  21
ENDBRANCH  16  17
ENDBRANCH  15  16
ENDBRANCH  12  15
ENDBRANCH  10  11
BRANCH  10  33
ATOM     33  O   UNL     1       6.594  -0.857   1.436  0.00  0.00    -0.382 OA
ATOM     34  H   UNL     1       5.994  -1.600   1.271  0.00  0.00    +0.210 HD
ENDBRANCH  10  33
ENDBRANCH   8  10
ENDBRANCH   6   8
ENDBRANCH   5   6
ENDBRANCH   1   5
BRANCH   1  35
ATOM     35  O   UNL     1      12.368  -3.859   5.146  0.00  0.00    -0.186 OA
BRANCH  35  36
ATOM     36  P   UNL     1      12.935  -4.354   6.598  0.00  0.00    +0.483 P 
ATOM     37  O   UNL     1      14.356  -4.813   6.626  0.00  0.00    -0.227 OA
BRANCH  36  38
ATOM     38  O   UNL     1      11.905  -5.539   6.922  0.00  0.00    -0.302 OA
ATOM     39  H   UNL     1      12.081  -6.318   6.352  0.00  0.00    +0.222 HD
ENDBRANCH  36  38
BRANCH  36  40
ATOM     40  O   UNL     1      12.566  -3.365   7.885  0.00  0.00    -0.284 OA
BRANCH  40  41
ATOM     41  C   UNL     1      13.386  -2.316   8.488  0.00  0.00    +0.206 C 
BRANCH  41  42
ATOM     42  C   UNL     1      13.375  -2.116  10.006  0.00  0.00    +0.179 C 
ATOM     43  C   UNL     1      14.217  -3.173  10.653  0.00  0.00    +0.194 C 
ATOM     44  C   UNL     1      15.529  -2.478  11.003  0.00  0.00    +0.196 C 
ATOM     45  C   UNL     1      15.407  -1.051  10.470  0.00  0.00    +0.253 C 
ATOM     46  O   UNL     1      13.985  -0.825  10.347  0.00  0.00    -0.346 OA
BRANCH  45  47
ATOM     47  N   UNL     1      16.057  -0.068  11.332  0.00  0.00    -0.286 N 
ATOM     48  C   UNL     1      17.394  -0.109  11.677  0.00  0.00    +0.167 A 
ATOM     49  N   UNL     1      18.293  -1.048  11.332  0.00  0.00    -0.216 NA
ATOM     50  C   UNL     1      19.508  -0.752  11.849  0.00  0.00    +0.225 A 
ATOM     51  N   UNL     1      19.861   0.300  12.620  0.00  0.00    -0.219 NA
ATOM     52  C   UNL     1      18.916   1.218  12.931  0.00  0.00    +0.147 A 
ATOM     53  N   UNL     1      19.298   2.307  13.700  0.00  0.00    -0.341 N 
ATOM     54  H   UNL     1      18.539   2.797  14.157  0.00  0.00    +0.144 HD
ATOM     55  H   UNL     1      20.155   2.142  14.214  0.00  0.00    +0.144 HD
ATOM     56  C   UNL     1      17.610   1.014  12.452  0.00  0.00    +0.147 A 
ATOM     57  N   UNL     1      16.430   1.726  12.602  0.00  0.00    -0.231 NA
ATOM     58  C   UNL     1      15.532   1.056  11.906  0.00  0.00    +0.203 A 
ENDBRANCH  45  47
BRANCH  44  59
ATOM     59  O   UNL     1      16.606  -3.189  10.404  0.00  0.00    -0.385 OA
ATOM     60  H   UNL     1      17.428  -2.690  10.589  0.00  0.00    +0.210 HD
ENDBRANCH  44  59
BRANCH  43  61
ATOM     61  O   UNL     1      13.537  -3.603  11.821  0.00  0.00    -0.278 OA
BRANCH  61  62
ATOM     62  P   UNL     1      14.112  -4.915  12.527  0.00  0.00    +0.473 P 
ATOM     63  O   UNL     1      14.815  -5.886  11.647  0.00  0.00    -0.228 OA
BRANCH  62  64
ATOM     64  O   UNL     1      12.854  -5.467  13.327  0.00  0.00    -0.303 OA
ATOM     65  H   UNL     1      12.419  -4.762  13.832  0.00  0.00    +0.222 HD
ENDBRANCH  62  64
BRANCH  62  66
ATOM     66  O   UNL     1      15.033  -4.318  13.683  0.00  0.00    -0.303 OA
ATOM     67  H   UNL     1      15.963  -4.287  13.391  0.00  0.00    +0.222 HD
ENDBRANCH  62  66
ENDBRANCH  61  62
ENDBRANCH  43  61
ENDBRANCH  41  42
ENDBRANCH  40  41
ENDBRANCH  36  40
ENDBRANCH  35  36
ENDBRANCH   1  35
TORSDOF 29
