REMARK  Name = 
REMARK  10 active torsions:
REMARK  status: ('A' for Active; 'I' for Inactive)
REMARK    1  A    between atoms: C_1  and  C_2
REMARK    2  A    between atoms: C_5  and  C_6
REMARK    3  A    between atoms: C_6  and  O_7
REMARK    4  A    between atoms: O_7  and  P_8
REMARK    5  A    between atoms: P_8  and  O_9
REMARK    6  A    between atoms: P_8  and  O_10
REMARK    7  A    between atoms: C_12  and  C_13
REMARK    8  A    between atoms: C_13  and  N_14
REMARK    9  A    between atoms: N_14  and  C_15
REMARK   10  A    between atoms: C_22  and  O_23
REMARK                            x       y       z     vdW  Elec       q    Type
REMARK                         _______ _______ _______ _____ _____    ______ ____
ROOT
ATOM      1  C   UNL     1       9.110  -2.599  -4.890  0.00  0.00    +0.069 C 
ATOM      2  C   UNL     1       8.844  -3.938  -4.263  0.00  0.00    +0.080 A 
ATOM      3  C   UNL     1       8.001  -4.060  -3.164  0.00  0.00    +0.142 A 
ATOM      4  C   UNL     1       7.723  -5.322  -2.606  0.00  0.00    +0.016 A 
ATOM      5  C   UNL     1       8.343  -6.441  -3.204  0.00  0.00    +0.005 A 
ATOM      6  C   UNL     1       9.186  -6.209  -4.298  0.00  0.00    +0.117 A 
ATOM      7  N   UNL     1       9.446  -5.000  -4.836  0.00  0.00    -0.256 NA
ENDROOT
BRANCH   3   8
ATOM      8  O   UNL     1       7.450  -2.901  -2.669  0.00  0.00    -0.505 OA
ATOM      9  H   UNL     1       7.318  -2.976  -1.710  0.00  0.00    +0.292 HD
ENDBRANCH   3   8
BRANCH   4  10
ATOM     10  C   UNL     1       6.694  -5.489  -1.505  0.00  0.00    +0.121 C 
BRANCH  10  11
ATOM     11  N   UNL     1       7.240  -6.097  -0.278  0.00  0.00    -0.300 NA
ATOM     12  H   UNL     1       7.960  -5.475   0.095  0.00  0.00    +0.123 HD
BRANCH  11  13
ATOM     13  C   UNL     1       6.203  -6.276   0.779  0.00  0.00    +0.171 C 
ATOM     14  C   UNL     1       5.570  -4.953   1.143  0.00  0.00    +0.255 C 
ATOM     15  O   UNL     1       6.148  -3.999   1.638  0.00  0.00    -0.272 OA
ATOM     16  N   UNL     1       4.277  -4.964   0.702  0.00  0.00    -0.193 N 
ATOM     17  H   UNL     1       3.667  -4.161   0.634  0.00  0.00    +0.182 HD
ATOM     18  O   UNL     1       3.951  -6.158   0.021  0.00  0.00    -0.278 OA
ATOM     19  C   UNL     1       4.958  -7.092   0.421  0.00  0.00    +0.218 C 
ENDBRANCH  11  13
ENDBRANCH  10  11
ENDBRANCH   4  10
BRANCH   5  20
ATOM     20  C   UNL     1       8.190  -7.875  -2.748  0.00  0.00    +0.209 C 
BRANCH  20  21
ATOM     21  O   UNL     1       6.888  -8.161  -2.271  0.00  0.00    -0.282 OA
BRANCH  21  22
ATOM     22  P   UNL     1       6.588  -9.793  -1.779  0.00  0.00    +0.473 P 
ATOM     23  O   UNL     1       6.319 -11.253  -1.339  0.00  0.00    -0.228 OA
BRANCH  22  24
ATOM     24  O   UNL     1       6.987 -10.284  -3.290  0.00  0.00    -0.303 OA
ATOM     25  H   UNL     1       7.114 -11.254  -3.229  0.00  0.00    +0.222 HD
ENDBRANCH  22  24
BRANCH  22  26
ATOM     26  O   UNL     1       5.023  -9.496  -2.149  0.00  0.00    -0.303 OA
ATOM     27  H   UNL     1       4.932  -9.520  -3.117  0.00  0.00    +0.222 HD
ENDBRANCH  22  26
ENDBRANCH  21  22
ENDBRANCH  20  21
ENDBRANCH   5  20
TORSDOF 9
