REMARK  Name = 
REMARK  8 active torsions:
REMARK  status: ('A' for Active; 'I' for Inactive)
REMARK    1  A    between atoms: C_2  and  N_3
REMARK    2  A    between atoms: C_2  and  C_8
REMARK    3  A    between atoms: C_2  and  C_11
REMARK    4  A    between atoms: N_3  and  O_4
REMARK    5  A    between atoms: O_4  and  C_5
REMARK    6  A    between atoms: C_5  and  C_6
REMARK    7  A    between atoms: C_6  and  S_7
REMARK    8  A    between atoms: C_8  and  O_9
REMARK                            x       y       z     vdW  Elec       q    Type
REMARK                         _______ _______ _______ _____ _____    ______ ____
ROOT
ATOM      1  C   UNL     1       2.147  -0.049  -0.041  0.00  0.00    +0.221 C 
ENDROOT
BRANCH   1   2
ATOM      2  C   UNL     1       2.567   1.261  -0.644  0.00  0.00    +0.007 A 
ATOM      3  C   UNL     1       2.882   1.586  -2.009  0.00  0.00    +0.005 A 
ATOM      4  C   UNL     1       2.956   0.855  -3.216  0.00  0.00    +0.010 A 
ATOM      5  C   UNL     1       3.277   1.516  -4.410  0.00  0.00    +0.001 A 
ATOM      6  C   UNL     1       3.520   2.882  -4.423  0.00  0.00    +0.002 A 
ATOM      7  C   UNL     1       3.470   3.629  -3.245  0.00  0.00    +0.026 A 
ATOM      8  C   UNL     1       3.163   2.953  -2.058  0.00  0.00    +0.047 A 
ATOM      9  N   UNL     1       3.073   3.437  -0.777  0.00  0.00    -0.360 N 
ATOM     10  H   UNL     1       3.257   4.397  -0.515  0.00  0.00    +0.165 HD
ATOM     11  C   UNL     1       2.716   2.437   0.081  0.00  0.00    +0.089 A 
ENDBRANCH   1   2
BRANCH   1  12
ATOM     12  N   UNL     1       0.658  -0.029   0.079  0.00  0.00    -0.183 NA
ATOM     13  H   UNL     1       0.356   0.805   0.589  0.00  0.00    +0.155 HD
BRANCH  12  14
ATOM     14  O   UNL     1       0.200  -1.168   0.872  0.00  0.00    -0.298 OA
BRANCH  14  15
ATOM     15  C   UNL     1       0.503  -1.030   2.269  0.00  0.00    +0.195 C 
BRANCH  15  16
ATOM     16  C   UNL     1      -0.044  -2.248   3.000  0.00  0.00    +0.095 C 
BRANCH  16  17
ATOM     17  S   UNL     1       0.524  -2.251   4.725  0.00  0.00    -0.176 S 
ATOM     18  H   UNL     1       1.839  -2.296   4.456  0.00  0.00    +0.102 HD
ENDBRANCH  16  17
ENDBRANCH  15  16
ENDBRANCH  14  15
ENDBRANCH  12  14
ENDBRANCH   1  12
BRANCH   1  19
ATOM     19  C   UNL     1       2.601  -1.300  -0.808  0.00  0.00    +0.329 C 
ATOM     20  O   UNL     1       3.762  -1.647  -0.967  0.00  0.00    -0.249 OA
BRANCH  19  21
ATOM     21  O   UNL     1       1.554  -2.037  -1.279  0.00  0.00    -0.479 OA
ATOM     22  H   UNL     1       0.733  -1.570  -0.978  0.00  0.00    +0.295 HD
ENDBRANCH  19  21
ENDBRANCH   1  19
TORSDOF 8
