REMARK  Name = 
REMARK  0 active torsions:
REMARK  status: ('A' for Active; 'I' for Inactive)
REMARK                            x       y       z     vdW  Elec       q    Type
REMARK                         _______ _______ _______ _____ _____    ______ ____
ROOT
ATOM      1  O   UNL     1       1.044   0.067   0.277  0.00  0.00    -0.247 OA
ATOM      2  C   UNL     1       2.262   0.033   0.142  0.00  0.00    +0.327 A 
ATOM      3  N   UNL     1       2.958  -1.140   0.058  0.00  0.00    -0.275 N 
ATOM      4  H   UNL     1       2.428  -1.995   0.106  0.00  0.00    +0.173 HD
ATOM      5  C   UNL     1       4.310  -1.244  -0.112  0.00  0.00    +0.254 A 
ATOM      6  O   UNL     1       4.892  -2.319  -0.206  0.00  0.00    -0.268 OA
ATOM      7  C   UNL     1       5.054   0.030  -0.181  0.00  0.00    +0.088 A 
ATOM      8  C   UNL     1       4.374   1.175  -0.090  0.00  0.00    +0.092 A 
ATOM      9  N   UNL     1       3.016   1.174   0.064  0.00  0.00    -0.314 N 
ATOM     10  H   UNL     1       2.501   2.045   0.127  0.00  0.00    +0.170 HD
ENDROOT
TORSDOF 0
