REMARK  Name = 
REMARK  2 active torsions:
REMARK  status: ('A' for Active; 'I' for Inactive)
REMARK    1  A    between atoms: N_1  and  S_2
REMARK    2  A    between atoms: S_2  and  C_5
REMARK                            x       y       z     vdW  Elec       q    Type
REMARK                         _______ _______ _______ _____ _____    ______ ____
ROOT
ATOM      1  C   UNL     1       3.362  -0.098   1.606  0.00  0.00    +0.105 A 
ATOM      2  C   UNL     1       3.423  -1.380   2.156  0.00  0.00    +0.029 A 
ATOM      3  C   UNL     1       3.873  -1.538   3.468  0.00  0.00    +0.006 A 
ATOM      4  C   UNL     1       4.274  -0.422   4.220  0.00  0.00    -0.042 A 
ATOM      5  C   UNL     1       4.733  -0.594   5.649  0.00  0.00    +0.050 C 
ATOM      6  C   UNL     1       5.486   0.637   6.170  0.00  0.00    +0.086 C 
ATOM      7  N   UNL     1       4.738   1.864   5.890  0.00  0.00    -0.312 NA
ATOM      8  H   UNL     1       5.214   2.660   6.312  0.00  0.00    +0.122 HD
ATOM      9  C   UNL     1       4.653   2.084   4.443  0.00  0.00    +0.116 C 
ATOM     10  C   UNL     1       4.197   0.869   3.666  0.00  0.00    -0.029 A 
ATOM     11  C   UNL     1       3.757   1.020   2.343  0.00  0.00    +0.033 A 
ENDROOT
BRANCH   1  12
ATOM     12  S   UNL     1       2.834   0.132  -0.065  0.00  0.00    +0.056 S 
ATOM     13  O   UNL     1       3.397   1.361  -0.577  0.00  0.00    -0.153 OA
ATOM     14  O   UNL     1       2.941  -1.120  -0.775  0.00  0.00    -0.153 OA
BRANCH  12  15
ATOM     15  N   UNL     1       1.192   0.420   0.125  0.00  0.00    -0.204 NA
ATOM     16  H   UNL     1       0.980   1.398  -0.068  0.00  0.00    +0.144 HD
ATOM     17  H   UNL     1       0.660  -0.240  -0.442  0.00  0.00    +0.144 HD
ENDBRANCH  12  15
ENDBRANCH   1  12
TORSDOF 2
