REMARK  Name = 
REMARK  4 active torsions:
REMARK  status: ('A' for Active; 'I' for Inactive)
REMARK    1  A    between atoms: O_1  and  P_2
REMARK    2  A    between atoms: P_2  and  O_3
REMARK    3  A    between atoms: P_2  and  C_5
REMARK    4  A    between atoms: C_5  and  C_6
REMARK                            x       y       z     vdW  Elec       q    Type
REMARK                         _______ _______ _______ _____ _____    ______ ____
ROOT
ATOM      1  P   UNL     1       2.808   0.033   0.053  0.00  0.00    +0.335 P 
ATOM      2  O   UNL     1       2.823  -0.609  -1.336  0.00  0.00    -0.258 OA
ENDROOT
BRANCH   1   3
ATOM      3  O   UNL     1       1.078   0.033   0.053  0.00  0.00    -0.324 OA
ATOM      4  H   UNL     1       0.741   0.530   0.822  0.00  0.00    +0.220 HD
ENDBRANCH   1   3
BRANCH   1   5
ATOM      5  O   UNL     1       2.736  -1.240   1.079  0.00  0.00    -0.324 OA
ATOM      6  H   UNL     1       2.393  -1.998   0.560  0.00  0.00    +0.220 HD
ENDBRANCH   1   5
BRANCH   1   7
ATOM      7  C   UNL     1       4.638   0.033   0.053  0.00  0.00    +0.197 C 
BRANCH   7   8
ATOM      8  C   UNL     1       5.106   1.368   0.524  0.00  0.00    +0.235 C 
ATOM      9  O   UNL     1       4.341   2.252   0.901  0.00  0.00    -0.300 OA
ENDBRANCH   7   8
ENDBRANCH   1   7
TORSDOF 4
