REMARK  Name = 
REMARK  14 active torsions:
REMARK  status: ('A' for Active; 'I' for Inactive)
REMARK    1  A    between atoms: C_1  and  C_2
REMARK    2  A    between atoms: C_14  and  C_15
REMARK    3  A    between atoms: C_15  and  C_16
REMARK    4  A    between atoms: C_16  and  C_17
REMARK    5  A    between atoms: C_17  and  O_18
REMARK    6  A    between atoms: C_20  and  C_21
REMARK    7  A    between atoms: C_25  and  C_27
REMARK    8  A    between atoms: C_32  and  C_33
REMARK    9  A    between atoms: C_33  and  C_34
REMARK   10  A    between atoms: C_34  and  C_35
REMARK   11  A    between atoms: C_35  and  O_36
REMARK   12  A    between atoms: C_38  and  C_39
REMARK   13  A    between atoms: C_40  and  C_41
REMARK   14  A    between atoms: C_43  and  O_44
REMARK                            x       y       z     vdW  Elec       q    Type
REMARK                         _______ _______ _______ _____ _____    ______ ____
ROOT
ATOM      1  C   UNL     1     -13.760 -10.643  -3.621  0.00  0.00    +0.000 C 
ATOM      2  C   UNL     1     -11.757 -10.907  -3.850  0.00  0.00    +0.000 C 
ATOM      3  C   UNL     1     -11.520 -11.735  -5.047  0.00  0.00    +0.000 C 
ATOM      4  C   UNL     1      -8.522 -10.671  -5.208  0.00  0.00    +0.000 C 
ATOM      5  N   UNL     1      -8.810  -9.509  -4.300  0.00  0.00    +0.000 N 
ATOM      6 FE   UNL     1      -8.077  -8.212  -6.048  0.00  0.00    +0.000 Fe
ATOM      7  N   UNL     1      -5.968  -6.812  -6.865  0.00  0.00    +0.000 N 
ATOM      8  C   UNL     1      -5.131  -7.597  -6.984  0.00  0.00    +0.000 A 
ATOM      9  C   UNL     1      -3.706  -6.536  -8.257  0.00  0.00    +0.000 A 
ATOM     10  C   UNL     1      -2.162  -5.826  -9.589  0.00  0.00    +0.000 C 
ATOM     11  C   UNL     1      -4.742  -5.685  -8.874  0.00  0.00    +0.000 A 
ATOM     12  C   UNL     1      -5.805  -6.030  -8.081  0.00  0.00    +0.000 A 
ATOM     13  C   UNL     1      -6.904  -6.316  -8.694  0.00  0.00    +0.000 C 
ATOM     14  C   UNL     1      -6.965  -7.783  -8.828  0.00  0.00    +0.000 A 
ATOM     15  C   UNL     1      -6.008  -8.925  -9.051  0.00  0.00    +0.000 A 
ATOM     16  C   UNL     1      -6.608 -10.104  -8.659  0.00  0.00    +0.000 A 
ATOM     17  C   UNL     1      -6.038 -11.521  -8.324  0.00  0.00    +0.000 C 
ATOM     18  C   UNL     1      -7.848  -9.731  -8.314  0.00  0.00    +0.000 A 
ATOM     19  C   UNL     1      -8.812 -10.491  -7.939  0.00  0.00    +0.000 C 
ATOM     20  C   UNL     1     -10.138  -9.878  -7.522  0.00  0.00    +0.000 A 
ATOM     21  C   UNL     1     -11.042  -8.977  -7.874  0.00  0.00    +0.000 A 
ATOM     22  C   UNL     1     -11.927  -9.023  -6.741  0.00  0.00    +0.000 A 
ATOM     23  C   UNL     1     -12.871  -8.174  -6.380  0.00  0.00    +0.000 C 
ATOM     24  C   UNL     1     -11.005  -9.143  -5.757  0.00  0.00    +0.000 A 
ATOM     25  C   UNL     1     -11.068  -8.842  -4.422  0.00  0.00    +0.000 C 
ATOM     26  C   UNL     1     -10.365  -7.545  -7.747  0.00  0.00    +0.000 C 
ATOM     27  N   UNL     1      -7.918  -8.418  -8.156  0.00  0.00    +0.000 N 
ATOM     28  N   UNL     1      -9.860  -9.430  -6.399  0.00  0.00    +0.000 N 
ATOM     29  C   UNL     1      -6.464  -9.571  -5.997  0.00  0.00    +0.000 C 
ATOM     30  C   UNL     1     -10.427  -9.884  -3.915  0.00  0.00    +0.000 C 
ENDROOT
BRANCH   3  31
ATOM     31  C   UNL     1     -14.325 -12.717  -4.791  0.00  0.00    +0.000 C 
ATOM     32  C   UNL     1     -15.831 -13.431  -3.939  0.00  0.00    +0.000 C 
ENDBRANCH   3  31
BRANCH  23  33
ATOM     33  O   UNL     1     -12.547  -6.881  -6.140  0.00  0.00    +0.000 OA
ATOM     34  H   UNL     1     -11.661  -6.506  -6.136  0.00  0.00    +0.000 HD
ENDBRANCH  23  33
BRANCH  11  35
ATOM     35  C   UNL     1      -4.780  -4.851 -10.491  0.00  0.00    +0.000 C 
BRANCH  35  36
ATOM     36  C   UNL     1      -5.486  -3.478 -10.360  0.00  0.00    +0.000 C 
BRANCH  36  37
ATOM     37  C   UNL     1      -6.222  -2.784 -11.497  0.00  0.00    +0.000 C 
ATOM     38  O   UNL     1      -6.227  -3.209 -12.643  0.00  0.00    +0.000 OA
BRANCH  37  39
ATOM     39  O   UNL     1      -6.928  -1.668 -11.199  0.00  0.00    +0.000 OA
ATOM     40  H   UNL     1      -6.957  -1.323 -10.292  0.00  0.00    +0.000 HD
ENDBRANCH  37  39
ENDBRANCH  36  37
ENDBRANCH  35  36
ENDBRANCH  11  35
BRANCH  15  41
ATOM     41  C   UNL     1      -4.538  -9.030  -9.149  0.00  0.00    +0.000 C 
BRANCH  41  42
ATOM     42  C   UNL     1      -3.692  -9.952  -9.901  0.00  0.00    +0.000 C 
BRANCH  42  43
ATOM     43  C   UNL     1      -3.850  -9.731 -11.319  0.00  0.00    +0.000 C 
ATOM     44  O   UNL     1      -4.257 -10.648 -12.005  0.00  0.00    +0.000 OA
BRANCH  43  45
ATOM     45  O   UNL     1      -3.581  -8.524 -11.849  0.00  0.00    +0.000 OA
ATOM     46  H   UNL     1      -3.336  -7.778 -11.281  0.00  0.00    +0.000 HD
ENDBRANCH  43  45
ENDBRANCH  42  43
ENDBRANCH  41  42
ENDBRANCH  15  41
TORSDOF 10
