REMARK  Name = 
REMARK  2 active torsions:
REMARK  status: ('A' for Active; 'I' for Inactive)
REMARK    1  A    between atoms: N_1  and  C_2
REMARK    2  A    between atoms: C_11  and  O_13
REMARK                            x       y       z     vdW  Elec       q    Type
REMARK                         _______ _______ _______ _____ _____    ______ ____
ROOT
ATOM      1  C   UNL     1       2.391   0.052   0.055  0.00  0.00    +0.304 C 
ATOM      2  S   UNL     1       2.713  -1.392   1.066  0.00  0.00    -0.066 S 
ATOM      3  C   UNL     1       4.481  -1.361   0.780  0.00  0.00    +0.210 C 
ATOM      4  C   UNL     1       5.092   0.014   0.875  0.00  0.00    +0.033 A 
ATOM      5  C   UNL     1       4.335   1.190   0.767  0.00  0.00    +0.130 A 
ATOM      6  C   UNL     1       4.945   2.442   0.902  0.00  0.00    +0.046 A 
ATOM      7  C   UNL     1       6.321   2.540   1.105  0.00  0.00    +0.004 A 
ATOM      8  C   UNL     1       7.093   1.385   1.173  0.00  0.00    +0.001 A 
ATOM      9  C   UNL     1       6.484   0.136   1.055  0.00  0.00    +0.010 A 
ATOM     10  O   UNL     1       2.979   1.234   0.579  0.00  0.00    -0.465 OA
ENDROOT
BRANCH   1  11
ATOM     11  N   UNL     1       0.958   0.251  -0.001  0.00  0.00    -0.287 NA
ATOM     12  H   UNL     1       0.647   0.305   0.967  0.00  0.00    +0.122 HD
ATOM     13  H   UNL     1       0.807   1.181  -0.385  0.00  0.00    +0.122 HD
ENDBRANCH   1  11
BRANCH   3  14
ATOM     14  O   UNL     1       5.108  -2.222   1.720  0.00  0.00    -0.377 OA
ATOM     15  H   UNL     1       4.495  -2.228   2.475  0.00  0.00    +0.211 HD
ENDBRANCH   3  14
TORSDOF 2
