REMARK  Name = 
REMARK  10 active torsions:
REMARK  status: ('A' for Active; 'I' for Inactive)
REMARK    1  A    between atoms: C_1  and  C_2
REMARK    2  A    between atoms: C_2  and  N_4
REMARK    3  A    between atoms: C_2  and  C_5
REMARK    4  A    between atoms: N_7  and  S_8
REMARK    5  A    between atoms: S_8  and  O_11
REMARK    6  A    between atoms: O_11  and  C_12
REMARK    7  A    between atoms: C_12  and  C_13
REMARK    8  A    between atoms: C_16  and  N_24
REMARK    9  A    between atoms: C_18  and  O_20
REMARK   10  A    between atoms: C_21  and  O_23
REMARK                            x       y       z     vdW  Elec       q    Type
REMARK                         _______ _______ _______ _____ _____    ______ ____
ROOT
ATOM      1  C   UNL     1       8.800  -2.139  -4.181  0.00  0.00    +0.180 C 
ATOM      2  C   UNL     1       9.291  -3.449  -3.564  0.00  0.00    +0.178 C 
ATOM      3  C   UNL     1      10.552  -3.076  -2.779  0.00  0.00    +0.195 C 
ATOM      4  C   UNL     1      10.650  -1.550  -2.911  0.00  0.00    +0.253 C 
ATOM      5  O   UNL     1       9.346  -1.100  -3.344  0.00  0.00    -0.346 OA
ENDROOT
BRANCH   4   6
ATOM      6  N   UNL     1      11.033  -0.809  -1.724  0.00  0.00    -0.286 N 
ATOM      7  C   UNL     1      11.957  -1.174  -0.780  0.00  0.00    +0.167 A 
ATOM      8  N   UNL     1      12.589  -2.355  -0.647  0.00  0.00    -0.216 NA
ATOM      9  C   UNL     1      13.422  -2.333   0.419  0.00  0.00    +0.225 A 
ATOM     10  N   UNL     1      13.689  -1.310   1.260  0.00  0.00    -0.219 NA
ATOM     11  C   UNL     1      13.062  -0.131   1.054  0.00  0.00    +0.147 A 
ATOM     12  N   UNL     1      13.376   0.938   1.881  0.00  0.00    -0.341 N 
ATOM     13  H   UNL     1      12.678   1.673   1.891  0.00  0.00    +0.144 HD
ATOM     14  H   UNL     1      13.787   0.655   2.759  0.00  0.00    +0.144 HD
ATOM     15  C   UNL     1      12.123  -0.046   0.012  0.00  0.00    +0.147 A 
ATOM     16  N   UNL     1      11.306   0.978  -0.413  0.00  0.00    -0.231 NA
ATOM     17  C   UNL     1      10.676   0.491  -1.460  0.00  0.00    +0.203 A 
ENDBRANCH   4   6
BRANCH   2  18
ATOM     18  O   UNL     1       8.299  -3.939  -2.642  0.00  0.00    -0.386 OA
ATOM     19  H   UNL     1       8.080  -3.228  -2.014  0.00  0.00    +0.210 HD
ENDBRANCH   2  18
BRANCH   3  20
ATOM     20  O   UNL     1      11.704  -3.706  -3.341  0.00  0.00    -0.385 OA
ATOM     21  H   UNL     1      12.416  -3.629  -2.674  0.00  0.00    +0.210 HD
ENDBRANCH   3  20
BRANCH   1  22
ATOM     22  C   UNL     1       9.240  -1.921  -5.635  0.00  0.00    +0.229 C 
BRANCH  22  23
ATOM     23  O   UNL     1       8.645  -2.883  -6.489  0.00  0.00    -0.220 OA
BRANCH  23  24
ATOM     24  S   UNL     1       8.983  -2.769  -8.075  0.00  0.00    +0.169 S 
ATOM     25  O   UNL     1       8.264  -1.626  -8.589  0.00  0.00    -0.126 OA
ATOM     26  O   UNL     1      10.412  -2.876  -8.254  0.00  0.00    -0.126 OA
BRANCH  24  28
ATOM     27  C   UNL     1       8.526  -5.408  -8.377  0.00  0.00    +0.250 C 
ATOM     28  N   UNL     1       8.266  -4.089  -8.753  0.00  0.00    -0.164 N 
ATOM     29  H   UNL     1       7.618  -3.918  -9.515  0.00  0.00    +0.179 HD
ATOM     30  O   UNL     1       9.297  -5.707  -7.471  0.00  0.00    -0.272 OA
BRANCH  27  32
ATOM     31  C   UNL     1       8.703  -7.004 -10.300  0.00  0.00    +0.033 C 
ATOM     32  C   UNL     1       7.788  -6.474  -9.206  0.00  0.00    +0.136 C 
BRANCH  32  33
ATOM     33  N   UNL     1       6.547  -5.920  -9.798  0.00  0.00    -0.320 NA
ATOM     34  H   UNL     1       6.099  -6.660 -10.342  0.00  0.00    +0.119 HD
ATOM     35  H   UNL     1       5.890  -5.720  -9.040  0.00  0.00    +0.119 HD
ENDBRANCH  32  33
ENDBRANCH  27  32
ENDBRANCH  24  28
ENDBRANCH  23  24
ENDBRANCH  22  23
ENDBRANCH   1  22
TORSDOF 9
