REMARK  Name = 
REMARK  3 active torsions:
REMARK  status: ('A' for Active; 'I' for Inactive)
REMARK    1  A    between atoms: O_1  and  C_2
REMARK    2  A    between atoms: C_6  and  C_10
REMARK    3  A    between atoms: C_14  and  O_15
REMARK                            x       y       z     vdW  Elec       q    Type
REMARK                         _______ _______ _______ _____ _____    ______ ____
ROOT
ATOM      1  C   UNL     1       2.361  -0.060  -0.095  0.00  0.00    +0.153 A 
ATOM      2  C   UNL     1       3.114  -1.231  -0.077  0.00  0.00    +0.084 A 
ATOM      3 CL   UNL     1       2.361  -2.785  -0.066  0.00  0.00    -0.080 Cl
ATOM      4  C   UNL     1       4.515  -1.170  -0.064  0.00  0.00    +0.032 A 
ATOM      5  C   UNL     1       5.201   0.060  -0.085  0.00  0.00    -0.015 A 
ATOM      6  C   UNL     1       4.416   1.229  -0.117  0.00  0.00    +0.032 A 
ATOM      7  C   UNL     1       3.018   1.168  -0.113  0.00  0.00    +0.084 A 
ATOM      8 CL   UNL     1       2.116   2.640  -0.127  0.00  0.00    -0.080 Cl
ENDROOT
BRANCH   5   9
ATOM      9  C   UNL     1       6.685   0.125  -0.072  0.00  0.00    -0.015 A 
ATOM     10  C   UNL     1       7.473  -0.867  -0.689  0.00  0.00    +0.032 A 
ATOM     11  C   UNL     1       8.873  -0.809  -0.673  0.00  0.00    +0.084 A 
ATOM     12 CL   UNL     1       9.756  -2.081  -1.440  0.00  0.00    -0.080 Cl
ATOM     13  C   UNL     1       9.525   0.253  -0.053  0.00  0.00    +0.153 A 
ATOM     14  C   UNL     1       8.766   1.249   0.560  0.00  0.00    +0.084 A 
ATOM     15 CL   UNL     1       9.540   2.585   1.332  0.00  0.00    -0.080 Cl
ATOM     16  C   UNL     1       7.369   1.182   0.558  0.00  0.00    +0.032 A 
BRANCH  13  17
ATOM     17  O   UNL     1      10.894   0.311  -0.049  0.00  0.00    -0.504 OA
ATOM     18  H   UNL     1      11.161   1.119   0.426  0.00  0.00    +0.292 HD
ENDBRANCH  13  17
ENDBRANCH   5   9
BRANCH   1  19
ATOM     19  O   UNL     1       0.992  -0.126  -0.096  0.00  0.00    -0.504 OA
ATOM     20  H   UNL     1       0.647   0.787  -0.104  0.00  0.00    +0.292 HD
ENDBRANCH   1  19
TORSDOF 3
