REMARK  Name = 
REMARK  18 active torsions:
REMARK  status: ('A' for Active; 'I' for Inactive)
REMARK    1  A    between atoms: C_1  and  C_2
REMARK    2  A    between atoms: C_2  and  C_3
REMARK    3  A    between atoms: C_3  and  C_4
REMARK    4  A    between atoms: C_4  and  C_5
REMARK    5  A    between atoms: C_5  and  C_6
REMARK    6  A    between atoms: C_6  and  C_7
REMARK    7  A    between atoms: C_7  and  C_8
REMARK    8  A    between atoms: C_8  and  C_9
REMARK    9  A    between atoms: C_9  and  C_10
REMARK   10  A    between atoms: C_10  and  C_11
REMARK   11  A    between atoms: C_11  and  C_12
REMARK   12  A    between atoms: C_12  and  C_13
REMARK   13  A    between atoms: C_13  and  C_14
REMARK   14  A    between atoms: C_14  and  C_15
REMARK   15  A    between atoms: C_15  and  C_16
REMARK   16  A    between atoms: N_18  and  C_19
REMARK   17  A    between atoms: C_19  and  C_20
REMARK   18  A    between atoms: C_20  and  O_21
REMARK                            x       y       z     vdW  Elec       q    Type
REMARK                         _______ _______ _______ _____ _____    ______ ____
ROOT
ATOM      1  C   UNL     1      12.760   4.101   5.858  0.00  0.00    +0.000 C 
ENDROOT
BRANCH   1   2
ATOM      2  C   UNL     1      11.237   4.090   5.847  0.00  0.00    +0.000 C 
BRANCH   2   3
ATOM      3  C   UNL     1      10.717   3.268   4.674  0.00  0.00    +0.000 C 
BRANCH   3   4
ATOM      4  C   UNL     1       9.193   3.255   4.654  0.00  0.00    -0.000 C 
BRANCH   4   5
ATOM      5  C   UNL     1       8.674   2.430   3.482  0.00  0.00    -0.000 C 
BRANCH   5   6
ATOM      6  C   UNL     1       7.150   2.419   3.463  0.00  0.00    -0.000 C 
BRANCH   6   7
ATOM      7  C   UNL     1       6.628   1.592   2.293  0.00  0.00    -0.000 C 
BRANCH   7   8
ATOM      8  C   UNL     1       5.103   1.581   2.276  0.00  0.00    -0.000 C 
BRANCH   8   9
ATOM      9  C   UNL     1       4.574   0.757   1.106  0.00  0.00    -0.000 C 
BRANCH   9  10
ATOM     10  C   UNL     1       3.048   0.749   1.092  0.00  0.00    -0.000 C 
BRANCH  10  12
ATOM     11  C   UNL     1       0.991  -0.084  -0.087  0.00  0.00    +0.004 C 
ATOM     12  C   UNL     1       2.510  -0.075  -0.076  0.00  0.00    -0.003 C 
ENDBRANCH  10  12
ENDBRANCH   9  10
ENDBRANCH   8   9
ENDBRANCH   7   8
ENDBRANCH   6   7
ENDBRANCH   5   6
ENDBRANCH   4   5
ENDBRANCH   3   4
ENDBRANCH   2   3
ENDBRANCH   1   2
BRANCH   1  13
ATOM     13  C   UNL     1      13.298   4.924   7.025  0.00  0.00    +0.000 C 
BRANCH  13  14
ATOM     14  C   UNL     1      14.823   4.914   7.019  0.00  0.00    +0.009 C 
BRANCH  14  15
ATOM     15  C   UNL     1      15.397   5.717   8.179  0.00  0.00    +0.096 C 
BRANCH  15  16
ATOM     16  C   UNL     1      16.909   5.648   8.198  0.00  0.00    +0.213 C 
ATOM     17  N   UNL     1      17.483   6.362   9.219  0.00  0.00    -0.305 N 
ATOM     18  H   UNL     1      16.894   6.893   9.848  0.00  0.00    +0.149 HD
ATOM     19  O   UNL     1      17.584   4.958   7.444  0.00  0.00    -0.276 OA
BRANCH  17  20
ATOM     20  C   UNL     1      18.931   6.549   9.319  0.00  0.00    +0.224 C 
BRANCH  20  21
ATOM     21  C   UNL     1      19.653   5.477  10.131  0.00  0.00    +0.322 C 
ATOM     22  O   UNL     1      20.750   5.649  10.644  0.00  0.00    -0.249 OA
BRANCH  21  23
ATOM     23  O   UNL     1      19.019   4.283  10.173  0.00  0.00    -0.480 OA
ATOM     24  H   UNL     1      18.263   4.270   9.553  0.00  0.00    +0.295 HD
ENDBRANCH  21  23
ENDBRANCH  20  21
ENDBRANCH  17  20
ENDBRANCH  15  16
ENDBRANCH  14  15
ENDBRANCH  13  14
ENDBRANCH   1  13
TORSDOF 17
