REMARK  Name = 
REMARK  1 active torsions:
REMARK  status: ('A' for Active; 'I' for Inactive)
REMARK    1  A    between atoms: C_2  and  CA_3
REMARK                            x       y       z     vdW  Elec       q    Type
REMARK                         _______ _______ _______ _____ _____    ______ ____
ROOT
ATOM      1  CA  UNL     1       2.991   1.218  -0.266  0.00  0.00    +0.136 C 
ATOM      2  N   UNL     1       4.131   1.285   0.611  0.00  0.00    -0.306 N 
ATOM      3  H   UNL     1       4.795   0.541   0.795  0.00  0.00    +0.149 HD
ATOM      4  C   UNL     1       4.486   2.588   0.889  0.00  0.00    +0.214 C 
ATOM      5  O   UNL     1       5.499   2.922   1.477  0.00  0.00    -0.276 OA
ATOM      6  C   UNL     1       3.453   3.502   0.283  0.00  0.00    +0.098 C 
ATOM      7  C   UNL     1       2.302   2.552  -0.034  0.00  0.00    +0.039 C 
ENDROOT
BRANCH   1   9
ATOM      8  O   UNL     1       0.998  -0.137  -0.459  0.00  0.00    -0.299 OA
ATOM      9  C   UNL     1       2.099   0.036   0.056  0.00  0.00    +0.245 C 
ENDBRANCH   1   9
TORSDOF 1
