REMARK  Name = 
REMARK  5 active torsions:
REMARK  status: ('A' for Active; 'I' for Inactive)
REMARK    1  A    between atoms: N_1  and  CA_2
REMARK    2  A    between atoms: CA_2  and  CB_4
REMARK    3  A    between atoms: CA_2  and  C_14
REMARK    4  A    between atoms: CB_4  and  CG_5
REMARK    5  A    between atoms: C_14  and  O_15
REMARK                            x       y       z     vdW  Elec       q    Type
REMARK                         _______ _______ _______ _____ _____    ______ ____
ROOT
ATOM      1  CG  TRP A   1       2.585   2.395   0.366  0.00  0.00    -0.020 A 
ATOM      2  CD2 TRP A   1       3.163   3.623   0.825  0.00  0.00    +0.003 A 
ATOM      3  CE2 TRP A   1       2.520   4.664   0.156  0.00  0.00    +0.047 A 
ATOM      4  CZ2 TRP A   1       2.824   6.013   0.379  0.00  0.00    +0.026 A 
ATOM      5  CH2 TRP A   1       3.821   6.305   1.314  0.00  0.00    +0.002 A 
ATOM      6  CZ3 TRP A   1       4.484   5.289   1.996  0.00  0.00    +0.001 A 
ATOM      7  NE1 TRP A   1       1.593   4.094  -0.685  0.00  0.00    -0.360 N 
ATOM      8  HE1 TRP A   1       0.967   4.617  -1.284  0.00  0.00    +0.165 HD
ATOM      9  CE3 TRP A   1       4.166   3.945   1.762  0.00  0.00    +0.010 A 
ATOM     10  CD1 TRP A   1       1.623   2.730  -0.569  0.00  0.00    +0.087 A 
ENDROOT
BRANCH   1  11
ATOM     11  CB  TRP A   1       2.928   1.014   0.837  0.00  0.00    +0.067 C 
BRANCH  11  12
ATOM     12  CA  TRP A   1       4.081   0.366   0.058  0.00  0.00    +0.165 C 
BRANCH  12  13
ATOM     13  N   TRP A   1       3.779   0.181  -1.403  0.00  0.00    -0.318 NA
ATOM     14  H1  TRP A   1       2.765   0.058  -1.495  0.00  0.00    +0.119 HD
ATOM     15  H2  TRP A   1       3.933   1.098  -1.841  0.00  0.00    +0.119 HD
ENDBRANCH  12  13
BRANCH  12  16
ATOM     16  C   TRP A   1       4.373  -1.016   0.664  0.00  0.00    +0.322 C 
ATOM     17  OXT TRP A   1       4.545  -1.249   1.850  0.00  0.00    -0.249 OA
BRANCH  16  18
ATOM     18  O   TRP A   1       4.424  -1.975  -0.298  0.00  0.00    -0.480 OA
ATOM     19  H   TRP A   1       4.276  -1.497  -1.153  0.00  0.00    +0.295 HD
ENDBRANCH  16  18
ENDBRANCH  12  16
ENDBRANCH  11  12
ENDBRANCH   1  11
TORSDOF 5
