REMARK  Name = 
REMARK  4 active torsions:
REMARK  status: ('A' for Active; 'I' for Inactive)
REMARK    1  A    between atoms: O_1  and  C_2
REMARK    2  A    between atoms: C_2  and  C_4
REMARK    3  A    between atoms: C_16  and  C_17
REMARK    4  A    between atoms: C_17  and  O_18
REMARK                            x       y       z     vdW  Elec       q    Type
REMARK                         _______ _______ _______ _____ _____    ______ ____
ROOT
ATOM      1  C   UNL     1       2.989   1.266   0.204  0.00  0.00    +0.102 A 
ATOM      2  C   UNL     1       2.414   2.531   0.068  0.00  0.00    +0.150 A 
ATOM      3  O   UNL     1       1.111   2.795  -0.236  0.00  0.00    -0.453 OA
ATOM      4  C   UNL     1       0.955   4.151  -0.266  0.00  0.00    +0.150 A 
ATOM      5  C   UNL     1      -0.227   4.849  -0.538  0.00  0.00    +0.102 A 
ATOM      6  C   UNL     1      -0.154   6.254  -0.499  0.00  0.00    +0.019 A 
ATOM      7  C   UNL     1       1.054   6.906  -0.236  0.00  0.00    +0.002 A 
ATOM      8  C   UNL     1       2.224   6.179   0.017  0.00  0.00    +0.012 A 
ATOM      9  C   UNL     1       2.171   4.772   0.008  0.00  0.00    +0.029 A 
ATOM     10  C   UNL     1       3.114   3.724   0.226  0.00  0.00    +0.029 A 
ATOM     11  C   UNL     1       4.485   3.668   0.539  0.00  0.00    +0.012 A 
ATOM     12  C   UNL     1       5.097   2.417   0.677  0.00  0.00    +0.002 A 
ATOM     13  C   UNL     1       4.362   1.240   0.512  0.00  0.00    +0.019 A 
ENDROOT
BRANCH   1  14
ATOM     14  C   UNL     1       2.254  -0.005   0.036  0.00  0.00    +0.340 C 
ATOM     15  O   UNL     1       2.817  -1.086   0.126  0.00  0.00    -0.245 OA
BRANCH  14  16
ATOM     16  O   UNL     1       0.936   0.103  -0.225  0.00  0.00    -0.477 OA
ATOM     17  H   UNL     1       0.566   1.013  -0.252  0.00  0.00    +0.295 HD
ENDBRANCH  14  16
ENDBRANCH   1  14
BRANCH   5  18
ATOM     18  C   UNL     1      -1.481   4.107  -0.779  0.00  0.00    +0.340 C 
ATOM     19  O   UNL     1      -1.695   2.999  -0.321  0.00  0.00    -0.245 OA
BRANCH  18  20
ATOM     20  O   UNL     1      -2.366   4.761  -1.561  0.00  0.00    -0.477 OA
ATOM     21  H   UNL     1      -2.029   5.548  -2.027  0.00  0.00    +0.295 HD
ENDBRANCH  18  20
ENDBRANCH   5  18
TORSDOF 4
