REMARK  Name = 
REMARK  5 active torsions:
REMARK  status: ('A' for Active; 'I' for Inactive)
REMARK    1  A    between atoms: O_1  and  S_2
REMARK    2  A    between atoms: S_2  and  C_5
REMARK    3  A    between atoms: C_5  and  C_6
REMARK    4  A    between atoms: C_6  and  C_7
REMARK    5  A    between atoms: C_7  and  N_8
REMARK                            x       y       z     vdW  Elec       q    Type
REMARK                         _______ _______ _______ _____ _____    ______ ____
ROOT
ATOM      1  C   UNL     1       4.693   1.232  -1.039  0.00  0.00    +0.040 C 
ENDROOT
BRANCH   1   2
ATOM      2  C   UNL     1       5.244   1.502   0.355  0.00  0.00    +0.199 C 
BRANCH   2   3
ATOM      3  S   UNL     1       4.589   0.317   1.521  0.00  0.00    +0.080 S 
ATOM      4  O   UNL     1       3.168   0.517   1.684  0.00  0.00    -0.147 OA
ATOM      5  O   UNL     1       5.158  -0.989   1.277  0.00  0.00    -0.147 OA
BRANCH   3   6
ATOM      6  O   UNL     1       5.298   0.888   2.854  0.00  0.00    -0.254 OA
ATOM      7  H   UNL     1       5.159   0.242   3.577  0.00  0.00    +0.244 HD
ENDBRANCH   3   6
ENDBRANCH   2   3
ENDBRANCH   1   2
BRANCH   1   8
ATOM      8  C   UNL     1       5.243   2.198  -2.092  0.00  0.00    +0.086 C 
BRANCH   8   9
ATOM      9  N   UNL     1       6.708   2.192  -2.222  0.00  0.00    -0.298 NA
ATOM     10  C   UNL     1       7.151   3.190  -3.229  0.00  0.00    +0.112 C 
ATOM     11  C   UNL     1       6.863   2.781  -4.687  0.00  0.00    +0.175 C 
ATOM     12  O   UNL     1       7.410   1.493  -4.997  0.00  0.00    -0.377 OA
ATOM     13  C   UNL     1       6.939   0.497  -4.081  0.00  0.00    +0.175 C 
ATOM     14  C   UNL     1       7.270   0.883  -2.631  0.00  0.00    +0.112 C 
ENDBRANCH   8   9
ENDBRANCH   1   8
TORSDOF 5
