REMARK  Name = 
REMARK  9 active torsions:
REMARK  status: ('A' for Active; 'I' for Inactive)
REMARK    1  A    between atoms: N_1  and  CA_2
REMARK    2  A    between atoms: CA_2  and  C_4
REMARK    3  A    between atoms: CA_2  and  C_12
REMARK    4  A    between atoms: C_4  and  O_6
REMARK    5  A    between atoms: C_4  and  O_7
REMARK    6  A    between atoms: O_7  and  P_8
REMARK    7  A    between atoms: P_8  and  O_9
REMARK    8  A    between atoms: P_8  and  O_10
REMARK    9  A    between atoms: C_12  and  O_13
REMARK                            x       y       z     vdW  Elec       q    Type
REMARK                         _______ _______ _______ _____ _____    ______ ____
ROOT
ATOM      1  C   UNL     1       2.803  -1.191  -0.296  0.00  0.00    +0.286 C 
ENDROOT
BRANCH   1   2
ATOM      2  O   UNL     1       4.203  -1.169  -0.578  0.00  0.00    -0.365 OA
ATOM      3  H   UNL     1       4.620  -0.834   0.244  0.00  0.00    +0.213 HD
ENDBRANCH   1   2
BRANCH   1   4
ATOM      4  CA  UNL     1       2.036  -1.107  -1.645  0.00  0.00    +0.217 C 
BRANCH   4   5
ATOM      5  N   UNL     1       2.508  -2.066  -2.695  0.00  0.00    -0.314 NA
ATOM      6  H1  UNL     1       3.210  -2.663  -2.229  0.00  0.00    +0.119 HD
ATOM      7  H2  UNL     1       3.121  -1.551  -3.339  0.00  0.00    +0.119 HD
ENDBRANCH   4   5
BRANCH   4   8
ATOM      8  C   UNL     1       2.077   0.324  -2.204  0.00  0.00    +0.327 C 
ATOM      9  OXT UNL     1       2.499   1.303  -1.624  0.00  0.00    -0.249 OA
BRANCH   8  10
ATOM     10  O   UNL     1       1.527   0.386  -3.448  0.00  0.00    -0.479 OA
ATOM     11  H   UNL     1       1.232  -0.504  -3.745  0.00  0.00    +0.295 HD
ENDBRANCH   8  10
ENDBRANCH   4   8
ENDBRANCH   1   4
BRANCH   1  12
ATOM     12  O   UNL     1       2.560  -2.400   0.419  0.00  0.00    -0.255 OA
BRANCH  12  13
ATOM     13  P   UNL     1       0.907  -2.869   0.618  0.00  0.00    +0.475 P 
ATOM     14  O   UNL     1      -0.572  -3.290   0.796  0.00  0.00    -0.227 OA
BRANCH  13  15
ATOM     15  O   UNL     1       0.803  -1.621   1.667  0.00  0.00    -0.303 OA
ATOM     16  H   UNL     1      -0.132  -1.369   1.783  0.00  0.00    +0.222 HD
ENDBRANCH  13  15
BRANCH  13  17
ATOM     17  O   UNL     1       1.468  -4.015   1.647  0.00  0.00    -0.303 OA
ATOM     18  H   UNL     1       1.686  -4.836   1.173  0.00  0.00    +0.222 HD
ENDBRANCH  13  17
ENDBRANCH  12  13
ENDBRANCH   1  12
TORSDOF 9
