REMARK  Name = 
REMARK  11 active torsions:
REMARK  status: ('A' for Active; 'I' for Inactive)
REMARK    1  A    between atoms: C_1  and  C_2
REMARK    2  A    between atoms: N_4  and  C_5
REMARK    3  A    between atoms: C_8  and  O_10
REMARK    4  A    between atoms: C_11  and  C_13
REMARK    5  A    between atoms: C_13  and  O_14
REMARK    6  A    between atoms: O_14  and  P_15
REMARK    7  A    between atoms: P_15  and  O_16
REMARK    8  A    between atoms: P_15  and  O_18
REMARK    9  A    between atoms: O_18  and  P_19
REMARK   10  A    between atoms: P_19  and  O_20
REMARK   11  A    between atoms: P_19  and  O_21
REMARK                            x       y       z     vdW  Elec       q    Type
REMARK                         _______ _______ _______ _____ _____    ______ ____
ROOT
ATOM      1  C   UNL     1      11.483   8.020  -2.233  0.00  0.00    +0.226 C 
ATOM      2  O   UNL     1      10.305   7.245  -1.911  0.00  0.00    -0.348 OA
ATOM      3  C   UNL     1       9.687   7.777  -0.698  0.00  0.00    +0.175 C 
ATOM      4  C   UNL     1      10.590   8.932  -0.241  0.00  0.00    +0.150 C 
ATOM      5  C   UNL     1      11.312   9.343  -1.518  0.00  0.00    +0.088 C 
ENDROOT
BRANCH   1  14
ATOM      6  C   UNL     1       9.569   7.985  -6.844  0.00  0.00    +0.051 C 
ATOM      7  C   UNL     1      10.709   8.101  -5.880  0.00  0.00    +0.030 A 
ATOM      8  C   UNL     1      12.067   8.267  -6.446  0.00  0.00    +0.257 A 
ATOM      9  O   UNL     1      12.270   8.267  -7.656  0.00  0.00    -0.267 OA
ATOM     10  N   UNL     1      13.069   8.428  -5.533  0.00  0.00    -0.275 N 
ATOM     11  H   UNL     1      14.001   8.556  -5.901  0.00  0.00    +0.173 HD
ATOM     12  C   UNL     1      12.946   8.376  -4.167  0.00  0.00    +0.331 A 
ATOM     13  O   UNL     1      13.928   8.526  -3.451  0.00  0.00    -0.246 OA
ATOM     14  N   UNL     1      11.659   8.141  -3.685  0.00  0.00    -0.274 N 
ATOM     15  C   UNL     1      10.580   8.051  -4.547  0.00  0.00    +0.101 A 
ENDBRANCH   1  14
BRANCH   4  16
ATOM     16  O   UNL     1       9.864  10.055   0.255  0.00  0.00    -0.389 OA
ATOM     17  H   UNL     1       9.232  10.342  -0.428  0.00  0.00    +0.210 HD
ENDBRANCH   4  16
BRANCH   3  18
ATOM     18  C   UNL     1       9.407   6.578   0.257  0.00  0.00    +0.206 C 
BRANCH  18  19
ATOM     19  O   UNL     1       9.135   6.823   1.628  0.00  0.00    -0.284 OA
BRANCH  19  20
ATOM     20  P   UNL     1       7.639   6.949   2.306  0.00  0.00    +0.483 P 
ATOM     21  O   UNL     1       6.625   7.215   1.192  0.00  0.00    -0.227 OA
BRANCH  20  22
ATOM     22  O   UNL     1       7.329   5.262   2.087  0.00  0.00    -0.302 OA
ATOM     23  H   UNL     1       6.654   5.251   1.375  0.00  0.00    +0.222 HD
ENDBRANCH  20  22
BRANCH  20  24
ATOM     24  O   UNL     1       7.948   8.637   2.525  0.00  0.00    -0.186 OA
BRANCH  24  25
ATOM     25  P   UNL     1       8.916   8.867   3.940  0.00  0.00    +0.481 P 
ATOM     26  O   UNL     1       9.782   9.073   5.207  0.00  0.00    -0.227 OA
BRANCH  25  27
ATOM     27  O   UNL     1       8.134  10.299   4.105  0.00  0.00    -0.302 OA
ATOM     28  H   UNL     1       7.470  10.274   4.816  0.00  0.00    +0.222 HD
ENDBRANCH  25  27
BRANCH  25  29
ATOM     29  O   UNL     1      10.059   9.449   2.938  0.00  0.00    -0.302 OA
ATOM     30  H   UNL     1       9.801  10.338   2.624  0.00  0.00    +0.222 HD
ENDBRANCH  25  29
ENDBRANCH  24  25
ENDBRANCH  20  24
ENDBRANCH  19  20
ENDBRANCH  18  19
ENDBRANCH   3  18
TORSDOF 10
