REMARK  Name = 
REMARK  10 active torsions:
REMARK  status: ('A' for Active; 'I' for Inactive)
REMARK    1  A    between atoms: C_1  and  C_2
REMARK    2  A    between atoms: C_2  and  C_3
REMARK    3  A    between atoms: C_2  and  C_4
REMARK    4  A    between atoms: C_4  and  C_5
REMARK    5  A    between atoms: C_5  and  N_7
REMARK    6  A    between atoms: C_5  and  C_19
REMARK    7  A    between atoms: C_8  and  C_10
REMARK    8  A    between atoms: N_21  and  C_22
REMARK    9  A    between atoms: N_27  and  S_31
REMARK   10  A    between atoms: S_31  and  C_34
REMARK                            x       y       z     vdW  Elec       q    Type
REMARK                         _______ _______ _______ _____ _____    ______ ____
ROOT
ATOM      1  C   UNL     1       9.056   5.063  -2.239  0.00  0.00    +0.234 C 
ATOM      2  N   UNL     1       8.226   3.991  -2.560  0.00  0.00    -0.304 N 
ATOM      3  H   UNL     1       7.228   4.184  -2.645  0.00  0.00    +0.149 HD
ATOM      4  O   UNL     1      10.283   4.939  -2.332  0.00  0.00    -0.274 OA
ENDROOT
BRANCH   2   5
ATOM      5  C   UNL     1       8.785   2.698  -3.050  0.00  0.00    +0.141 C 
ATOM      6  C   UNL     1       9.456   1.819  -1.984  0.00  0.00    +0.169 C 
ATOM      7  O   UNL     1      10.328   1.003  -2.286  0.00  0.00    -0.294 OA
ATOM      8  C   UNL     1       8.823   1.806  -0.612  0.00  0.00    +0.185 C 
ATOM      9  N   UNL     1       7.425   1.339  -0.588  0.00  0.00    -0.168 NA
ATOM     10  C   UNL     1       6.932   0.468  -1.662  0.00  0.00    +0.110 C 
ATOM     11  C   UNL     1       6.574   1.295  -2.896  0.00  0.00    +0.019 C 
ATOM     12  C   UNL     1       7.762   1.763  -3.746  0.00  0.00    +0.031 C 
BRANCH   9  13
ATOM     13  S   UNL     1       6.446   1.712   0.737  0.00  0.00    +0.078 S 
ATOM     14  O   UNL     1       7.316   2.273   1.755  0.00  0.00    -0.151 OA
ATOM     15  O   UNL     1       5.610   0.569   1.045  0.00  0.00    -0.151 OA
BRANCH  13  16
ATOM     16  C   UNL     1       5.357   3.052   0.201  0.00  0.00    +0.194 A 
ATOM     17  N   UNL     1       4.470   2.718  -0.774  0.00  0.00    -0.236 NA
ATOM     18  C   UNL     1       3.558   3.670  -1.092  0.00  0.00    +0.113 A 
ATOM     19  C   UNL     1       3.483   4.912  -0.473  0.00  0.00    +0.020 A 
ATOM     20  C   UNL     1       4.412   5.216   0.517  0.00  0.00    +0.005 A 
ATOM     21  C   UNL     1       5.374   4.271   0.863  0.00  0.00    +0.049 A 
ENDBRANCH  13  16
ENDBRANCH   9  13
ENDBRANCH   2   5
BRANCH   1  22
ATOM     22  C   UNL     1       8.393   6.373  -1.609  0.00  0.00    +0.159 C 
BRANCH  22  23
ATOM     23  N   UNL     1       7.596   7.241  -2.511  0.00  0.00    -0.298 N 
ATOM     24  H   UNL     1       7.895   8.203  -2.632  0.00  0.00    +0.150 HD
ATOM     25  C   UNL     1       6.302   6.979  -2.908  0.00  0.00    +0.280 C 
ATOM     26  O   UNL     1       5.821   5.858  -2.741  0.00  0.00    -0.267 OA
BRANCH  25  27
ATOM     27  C   UNL     1       5.574   8.078  -3.555  0.00  0.00    +0.190 A 
ATOM     28  O   UNL     1       6.022   9.386  -3.500  0.00  0.00    -0.450 OA
ATOM     29  C   UNL     1       5.143  10.155  -4.229  0.00  0.00    +0.136 A 
ATOM     30  C   UNL     1       5.206  11.540  -4.441  0.00  0.00    +0.047 A 
ATOM     31  C   UNL     1       4.229  12.111  -5.275  0.00  0.00    +0.004 A 
ATOM     32  C   UNL     1       3.237  11.326  -5.863  0.00  0.00    +0.001 A 
ATOM     33  C   UNL     1       3.173   9.946  -5.610  0.00  0.00    +0.011 A 
ATOM     34  C   UNL     1       4.146   9.354  -4.771  0.00  0.00    +0.021 A 
ATOM     35  C   UNL     1       4.395   8.044  -4.284  0.00  0.00    +0.063 A 
ENDBRANCH  25  27
ENDBRANCH  22  23
BRANCH  22  36
ATOM     36  C   UNL     1       9.512   7.252  -0.945  0.00  0.00    +0.034 C 
BRANCH  36  38
ATOM     37  C   UNL     1       8.389   7.894   1.263  0.00  0.00    +0.007 C 
ATOM     38  C   UNL     1       9.006   8.408  -0.038  0.00  0.00    -0.015 C 
ATOM     39  C   UNL     1      10.116   9.416   0.313  0.00  0.00    +0.007 C 
ENDBRANCH  36  38
ENDBRANCH  22  36
ENDBRANCH   1  22
TORSDOF 8
