REMARK  Name = 
REMARK  2 active torsions:
REMARK  status: ('A' for Active; 'I' for Inactive)
REMARK    1  A    between atoms: O_1  and  C_2
REMARK    2  A    between atoms: C_2  and  C_3
REMARK                            x       y       z     vdW  Elec       q    Type
REMARK                         _______ _______ _______ _____ _____    ______ ____
ROOT
ATOM      1  C   UNL     1       3.002   0.896  -1.187  0.00  0.00    +0.412 C 
ATOM      2  F   UNL     1       3.738   0.184  -2.074  0.00  0.00    -0.168 F 
ATOM      3  F   UNL     1       3.817   1.843  -0.662  0.00  0.00    -0.168 F 
ATOM      4  F   UNL     1       2.034   1.534  -1.881  0.00  0.00    -0.168 F 
ENDROOT
BRANCH   1   5
ATOM      5  C   UNL     1       2.450  -0.014  -0.084  0.00  0.00    +0.269 C 
BRANCH   5   6
ATOM      6  O   UNL     1       1.020  -0.093  -0.035  0.00  0.00    -0.386 OA
ATOM      7  H   UNL     1       0.787  -0.681   0.703  0.00  0.00    +0.210 HD
ENDBRANCH   5   6
ENDBRANCH   1   5
TORSDOF 2
