REMARK  Name = 
REMARK  1 active torsions:
REMARK  status: ('A' for Active; 'I' for Inactive)
REMARK    1  A    between atoms: O_1  and  C_2
REMARK                            x       y       z     vdW  Elec       q    Type
REMARK                         _______ _______ _______ _____ _____    ______ ____
ROOT
ATOM      1  C   UNL     1       2.365  -0.090   0.159  0.00  0.00    +0.288 A 
ATOM      2  O   UNL     1       3.090   1.090   0.163  0.00  0.00    -0.425 OA
ATOM      3  C   UNL     1       4.456   1.026   0.057  0.00  0.00    +0.143 A 
ATOM      4  C   UNL     1       5.156  -0.176   0.013  0.00  0.00    +0.064 A 
ATOM      5  C   UNL     1       6.547  -0.185  -0.114  0.00  0.00    +0.015 A 
ATOM      6  C   UNL     1       7.237   1.025  -0.202  0.00  0.00    +0.001 A 
ATOM      7  C   UNL     1       6.538   2.234  -0.150  0.00  0.00    +0.004 A 
ATOM      8  C   UNL     1       4.395  -1.429   0.088  0.00  0.00    +0.196 A 
ATOM      9  O   UNL     1       4.933  -2.529   0.099  0.00  0.00    -0.287 OA
ATOM     10  C   UNL     1       5.148   2.235  -0.017  0.00  0.00    +0.047 A 
ATOM     11  C   UNL     1       2.929  -1.306   0.133  0.00  0.00    +0.139 A 
ENDROOT
BRANCH   1  12
ATOM     12  O   UNL     1       0.991   0.048   0.182  0.00  0.00    -0.480 OA
ATOM     13  H   UNL     1       0.581  -0.831   0.126  0.00  0.00    +0.295 HD
ENDBRANCH   1  12
TORSDOF 1
