REMARK  Name = 
REMARK  32 active torsions:
REMARK  status: ('A' for Active; 'I' for Inactive)
REMARK    1  A    between atoms: C_1  and  C_2
REMARK    2  A    between atoms: C_2  and  C_3
REMARK    3  A    between atoms: C_3  and  C_4
REMARK    4  A    between atoms: C_4  and  C_5
REMARK    5  A    between atoms: C_5  and  C_6
REMARK    6  A    between atoms: C_6  and  C_7
REMARK    7  A    between atoms: C_7  and  C_8
REMARK    8  A    between atoms: C_8  and  C_9
REMARK    9  A    between atoms: C_9  and  C_10
REMARK   10  A    between atoms: C_10  and  C_11
REMARK   11  A    between atoms: C_11  and  C_12
REMARK   12  A    between atoms: C_12  and  C_13
REMARK   13  A    between atoms: C_13  and  C_14
REMARK   14  A    between atoms: C_14  and  C_15
REMARK   15  A    between atoms: C_15  and  C_16
REMARK   16  A    between atoms: C_16  and  C_17
REMARK   17  A    between atoms: C_17  and  C_18
REMARK   18  A    between atoms: C_18  and  O_19
REMARK   19  A    between atoms: O_19  and  C_20
REMARK   20  A    between atoms: C_20  and  C_21
REMARK   21  A    between atoms: C_21  and  O_23
REMARK   22  A    between atoms: C_21  and  C_24
REMARK   23  A    between atoms: C_24  and  O_25
REMARK   24  A    between atoms: O_25  and  P_26
REMARK   25  A    between atoms: P_26  and  O_27
REMARK   26  A    between atoms: P_26  and  O_29
REMARK   27  A    between atoms: O_29  and  C_30
REMARK   28  A    between atoms: C_30  and  C_31
REMARK   29  A    between atoms: C_31  and  N_32
REMARK   30  A    between atoms: N_32  and  C_33
REMARK   31  A    between atoms: N_32  and  C_34
REMARK   32  A    between atoms: N_32  and  C_35
REMARK                            x       y       z     vdW  Elec       q    Type
REMARK                         _______ _______ _______ _____ _____    ______ ____
ROOT
ATOM      1  C   UNL     1      16.810   0.643  12.365  0.00  0.00    +0.160 C 
ENDROOT
BRANCH   1   2
ATOM      2  O   UNL     1      17.323   0.848  13.678  0.00  0.00    -0.377 OA
BRANCH   2   3
ATOM      3  C   UNL     1      16.842  -0.197  14.530  0.00  0.00    +0.193 C 
BRANCH   3   4
ATOM      4  C   UNL     1      17.361   0.038  15.945  0.00  0.00    +0.166 C 
BRANCH   4   5
ATOM      5  O   UNL     1      16.888   1.300  16.421  0.00  0.00    -0.387 OA
ATOM      6  H   UNL     1      17.118   1.938  15.713  0.00  0.00    +0.210 HD
ENDBRANCH   4   5
BRANCH   4   7
ATOM      7  C   UNL     1      16.862  -1.061  16.870  0.00  0.00    +0.206 C 
BRANCH   7   8
ATOM      8  O   UNL     1      17.216  -2.329  16.337  0.00  0.00    -0.284 OA
BRANCH   8   9
ATOM      9  P   UNL     1      16.632  -3.640  17.303  0.00  0.00    +0.475 P 
ATOM     10  O   UNL     1      17.985  -3.733  18.012  0.00  0.00    -0.227 OA
BRANCH   9  11
ATOM     11  O   UNL     1      16.693  -4.625  16.008  0.00  0.00    -0.302 OA
ATOM     12  H   UNL     1      15.943  -4.527  15.398  0.00  0.00    +0.222 HD
ENDBRANCH   9  11
BRANCH   9  13
ATOM     13  O   UNL     1      16.049  -4.951  18.269  0.00  0.00    -0.281 OA
BRANCH  13  14
ATOM     14  C   UNL     1      15.841  -4.577  19.628  0.00  0.00    +0.223 C 
BRANCH  14  15
ATOM     15  C   UNL     1      15.377  -5.774  20.459  0.00  0.00    +0.161 C 
BRANCH  15  16
ATOM     16  N   UNL     1      16.370  -6.955  20.526  0.00  0.00    +0.239 N 
ATOM     17  C   UNL     1      15.758  -8.024  21.427  0.00  0.00    +0.192 C 
ATOM     18  C   UNL     1      17.711  -6.522  21.106  0.00  0.00    +0.192 C 
ATOM     19  C   UNL     1      16.608  -7.570  19.145  0.00  0.00    +0.192 C 
ENDBRANCH  15  16
ENDBRANCH  14  15
ENDBRANCH  13  14
ENDBRANCH   9  13
ENDBRANCH   8   9
ENDBRANCH   7   8
ENDBRANCH   4   7
ENDBRANCH   3   4
ENDBRANCH   2   3
ENDBRANCH   1   2
BRANCH   1  20
ATOM     20  C   UNL     1      17.279   1.756  11.443  0.00  0.00    +0.028 C 
BRANCH  20  21
ATOM     21  C   UNL     1      16.763   1.559  10.019  0.00  0.00    +0.002 C 
BRANCH  21  22
ATOM     22  C   UNL     1      15.237   1.553   9.961  0.00  0.00    +0.000 C 
BRANCH  22  23
ATOM     23  C   UNL     1      14.729   1.341   8.545  0.00  0.00    +0.000 C 
BRANCH  23  24
ATOM     24  C   UNL     1      13.206   1.312   8.550  0.00  0.00    +0.000 C 
BRANCH  24  25
ATOM     25  C   UNL     1      12.675   1.093   7.144  0.00  0.00    -0.000 C 
BRANCH  25  26
ATOM     26  C   UNL     1      11.154   1.085   7.149  0.00  0.00    -0.000 C 
BRANCH  26  27
ATOM     27  C   UNL     1      10.630   0.874   5.737  0.00  0.00    -0.000 C 
BRANCH  27  28
ATOM     28  C   UNL     1       9.110   0.871   5.728  0.00  0.00    -0.000 C 
BRANCH  28  29
ATOM     29  C   UNL     1       8.592   0.665   4.313  0.00  0.00    -0.000 C 
BRANCH  29  30
ATOM     30  C   UNL     1       7.071   0.660   4.299  0.00  0.00    -0.000 C 
BRANCH  30  31
ATOM     31  C   UNL     1       6.551   0.451   2.883  0.00  0.00    -0.000 C 
BRANCH  31  32
ATOM     32  C   UNL     1       5.027   0.446   2.869  0.00  0.00    -0.000 C 
BRANCH  32  33
ATOM     33  C   UNL     1       4.502   0.234   1.454  0.00  0.00    -0.000 C 
BRANCH  33  34
ATOM     34  C   UNL     1       2.976   0.230   1.440  0.00  0.00    -0.000 C 
BRANCH  34  36
ATOM     35  C   UNL     1       0.922   0.012   0.015  0.00  0.00    +0.004 C 
ATOM     36  C   UNL     1       2.441   0.018   0.028  0.00  0.00    -0.003 C 
ENDBRANCH  34  36
ENDBRANCH  33  34
ENDBRANCH  32  33
ENDBRANCH  31  32
ENDBRANCH  30  31
ENDBRANCH  29  30
ENDBRANCH  28  29
ENDBRANCH  27  28
ENDBRANCH  26  27
ENDBRANCH  25  26
ENDBRANCH  24  25
ENDBRANCH  23  24
ENDBRANCH  22  23
ENDBRANCH  21  22
ENDBRANCH  20  21
ENDBRANCH   1  20
TORSDOF 28
