REMARK  Name = 
REMARK  8 active torsions:
REMARK  status: ('A' for Active; 'I' for Inactive)
REMARK    1  A    between atoms: O_1  and  C_2
REMARK    2  A    between atoms: C_2  and  C_4
REMARK    3  A    between atoms: C_2  and  C_11
REMARK    4  A    between atoms: C_4  and  C_5
REMARK    5  A    between atoms: C_5  and  O_7
REMARK    6  A    between atoms: C_5  and  C_8
REMARK    7  A    between atoms: C_11  and  O_13
REMARK    8  A    between atoms: C_11  and  C_14
REMARK                            x       y       z     vdW  Elec       q    Type
REMARK                         _______ _______ _______ _____ _____    ______ ____
ROOT
ATOM      1  C   UNL     1       2.439  -0.112  -0.117  0.00  0.00    +0.151 C 
ENDROOT
BRANCH   1   2
ATOM      2  O   UNL     1       2.815   0.560   1.109  0.00  0.00    -0.389 OA
ATOM      3  H   UNL     1       3.772   0.735   0.988  0.00  0.00    +0.210 HD
ENDBRANCH   1   2
BRANCH   1   4
ATOM      4  C   UNL     1       3.030   0.715  -1.256  0.00  0.00    +0.188 C 
BRANCH   4   5
ATOM      5  C   UNL     1       2.630   0.183  -2.658  0.00  0.00    +0.073 C 
ATOM      6  O   UNL     1       3.575  -0.276  -3.365  0.00  0.00    -0.547 OA
ATOM      7  O   UNL     1       1.402   0.317  -2.948  0.00  0.00    -0.547 OA
ENDBRANCH   4   5
BRANCH   4   8
ATOM      8  O   UNL     1       4.473   0.843  -1.045  0.00  0.00    -0.383 OA
ATOM      9  H   UNL     1       4.826  -0.035  -1.290  0.00  0.00    +0.210 HD
ENDBRANCH   4   8
ENDBRANCH   1   4
BRANCH   1  10
ATOM     10  C   UNL     1       2.933  -1.572  -0.041  0.00  0.00    +0.071 C 
BRANCH  10  11
ATOM     11  C   UNL     1       2.426  -2.300   1.214  0.00  0.00    +0.162 C 
BRANCH  11  12
ATOM     12  C   UNL     1       2.984  -3.737   1.430  0.00  0.00    +0.070 C 
ATOM     13  O   UNL     1       2.636  -4.302   2.516  0.00  0.00    -0.547 OA
ATOM     14  O   UNL     1       3.801  -4.180   0.568  0.00  0.00    -0.547 OA
ENDBRANCH  11  12
BRANCH  11  15
ATOM     15  O   UNL     1       0.974  -2.292   1.213  0.00  0.00    -0.386 OA
ATOM     16  H   UNL     1       0.742  -1.406   1.508  0.00  0.00    +0.210 HD
ENDBRANCH  11  15
ENDBRANCH  10  11
ENDBRANCH   1  10
TORSDOF 8
