REMARK  Name = 
REMARK  6 active torsions:
REMARK  status: ('A' for Active; 'I' for Inactive)
REMARK    1  A    between atoms: C_1  and  S_2
REMARK    2  A    between atoms: S_2  and  C_3
REMARK    3  A    between atoms: C_3  and  C_4
REMARK    4  A    between atoms: C_9  and  C_17
REMARK    5  A    between atoms: C_11  and  O_13
REMARK    6  A    between atoms: C_14  and  O_16
REMARK                            x       y       z     vdW  Elec       q    Type
REMARK                         _______ _______ _______ _____ _____    ______ ____
ROOT
ATOM      1  C   UNL     1       4.983  -0.336   1.772  0.00  0.00    +0.105 C 
ATOM      2  C   UNL     1       5.587   0.335   3.014  0.00  0.00    +0.198 C 
ATOM      3  C   UNL     1       6.999   0.759   2.581  0.00  0.00    +0.201 C 
ATOM      4  C   UNL     1       6.909   0.958   1.044  0.00  0.00    +0.129 C 
ATOM      5  N   UNL     1       5.519   0.539   0.656  0.00  0.00    +0.239 N 
ATOM      6  H   UNL     1       4.935   1.389   0.620  0.00  0.00    +0.202 HD
ATOM      7  H   UNL     1       5.486   0.110  -0.275  0.00  0.00    +0.202 HD
ENDROOT
BRANCH   4   8
ATOM      8  C   UNL     1       7.240   2.337   0.593  0.00  0.00    +0.046 A 
ATOM      9  C   UNL     1       6.593   3.533   0.960  0.00  0.00    +0.104 A 
ATOM     10  N   UNL     1       5.490   3.659   1.806  0.00  0.00    -0.235 NA
ATOM     11  C   UNL     1       5.152   4.905   2.003  0.00  0.00    +0.199 A 
ATOM     12  N   UNL     1       5.762   6.019   1.466  0.00  0.00    -0.312 N 
ATOM     13  H   UNL     1       5.429   6.948   1.681  0.00  0.00    +0.170 HD
ATOM     14  C   UNL     1       6.839   5.947   0.614  0.00  0.00    +0.275 A 
ATOM     15  O   UNL     1       7.380   6.927   0.124  0.00  0.00    -0.266 OA
ATOM     16  C   UNL     1       7.231   4.595   0.391  0.00  0.00    +0.131 A 
ATOM     17  N   UNL     1       8.262   4.109  -0.361  0.00  0.00    -0.355 N 
ATOM     18  H   UNL     1       8.916   4.678  -0.891  0.00  0.00    +0.166 HD
ATOM     19  C   UNL     1       8.276   2.732  -0.246  0.00  0.00    +0.094 A 
ENDBRANCH   4   8
BRANCH   2  20
ATOM     20  O   UNL     1       4.766   1.458   3.362  0.00  0.00    -0.383 OA
ATOM     21  H   UNL     1       5.099   2.288   2.969  0.00  0.00    +0.210 HD
ENDBRANCH   2  20
BRANCH   3  22
ATOM     22  O   UNL     1       7.918  -0.299   2.865  0.00  0.00    -0.383 OA
ATOM     23  H   UNL     1       8.793   0.099   3.051  0.00  0.00    +0.210 HD
ENDBRANCH   3  22
BRANCH   1  24
ATOM     24  C   UNL     1       5.370  -1.808   1.538  0.00  0.00    +0.125 C 
BRANCH  24  26
ATOM     25  C   UNL     1       5.276  -4.475   2.302  0.00  0.00    +0.084 C 
ATOM     26  S   UNL     1       4.639  -2.865   2.830  0.00  0.00    -0.158 S 
ENDBRANCH  24  26
ENDBRANCH   1  24
TORSDOF 5
