REMARK  Name = 
REMARK  8 active torsions:
REMARK  status: ('A' for Active; 'I' for Inactive)
REMARK    1  A    between atoms: C_2  and  C_3
REMARK    2  A    between atoms: C_8  and  C_10
REMARK    3  A    between atoms: C_10  and  C_11
REMARK    4  A    between atoms: C_11  and  C_12
REMARK    5  A    between atoms: C_12  and  C_13
REMARK    6  A    between atoms: C_13  and  C_14
REMARK    7  A    between atoms: C_14  and  C_15
REMARK    8  A    between atoms: C_15  and  O_16
REMARK                            x       y       z     vdW  Elec       q    Type
REMARK                         _______ _______ _______ _____ _____    ______ ____
ROOT
ATOM      1  C   UNL     1       3.862  -0.649   1.321  0.00  0.00    +0.092 C 
ATOM      2  C   UNL     1       2.657  -1.237   0.547  0.00  0.00    +0.094 C 
ATOM      3  N   UNL     1       1.747  -1.591   1.616  0.00  0.00    -0.295 N 
ATOM      4  H   UNL     1       0.792  -1.902   1.492  0.00  0.00    +0.151 HD
ATOM      5  C   UNL     1       2.029  -0.852   2.751  0.00  0.00    +0.300 C 
ATOM      6  O   UNL     1       1.325  -0.763   3.738  0.00  0.00    -0.253 OA
ATOM      7  N   UNL     1       3.241  -0.222   2.555  0.00  0.00    -0.295 N 
ATOM      8  H   UNL     1       3.675   0.301   3.304  0.00  0.00    +0.151 HD
ATOM      9  C   UNL     1       4.985  -1.635   1.628  0.00  0.00    +0.030 C 
ENDROOT
BRANCH   2  10
ATOM     10  C   UNL     1       2.947  -2.399  -0.405  0.00  0.00    +0.024 C 
BRANCH  10  11
ATOM     11  C   UNL     1       1.686  -2.880  -1.132  0.00  0.00    +0.002 C 
BRANCH  11  12
ATOM     12  C   UNL     1       1.991  -4.037  -2.086  0.00  0.00    +0.001 C 
BRANCH  12  13
ATOM     13  C   UNL     1       0.716  -4.541  -2.764  0.00  0.00    +0.011 C 
BRANCH  13  14
ATOM     14  C   UNL     1       1.003  -5.706  -3.708  0.00  0.00    +0.120 C 
BRANCH  14  15
ATOM     15  C   UNL     1      -0.255  -6.206  -4.382  0.00  0.00    +0.305 C 
ATOM     16  O   UNL     1      -1.375  -5.756  -4.213  0.00  0.00    -0.251 OA
BRANCH  15  17
ATOM     17  O   UNL     1      -0.009  -7.238  -5.223  0.00  0.00    -0.481 OA
ATOM     18  H   UNL     1       0.930  -7.499  -5.264  0.00  0.00    +0.295 HD
ENDBRANCH  15  17
ENDBRANCH  14  15
ENDBRANCH  13  14
ENDBRANCH  12  13
ENDBRANCH  11  12
ENDBRANCH  10  11
ENDBRANCH   2  10
TORSDOF 7
