REMARK  Name = 
REMARK  9 active torsions:
REMARK  status: ('A' for Active; 'I' for Inactive)
REMARK    1  A    between atoms: O_1  and  C_2
REMARK    2  A    between atoms: C_2  and  C_4
REMARK    3  A    between atoms: C_2  and  C_10
REMARK    4  A    between atoms: C_4  and  O_5
REMARK    5  A    between atoms: O_5  and  P_6
REMARK    6  A    between atoms: P_6  and  O_7
REMARK    7  A    between atoms: P_6  and  O_8
REMARK    8  A    between atoms: C_10  and  O_12
REMARK    9  A    between atoms: C_10  and  C_13
REMARK                            x       y       z     vdW  Elec       q    Type
REMARK                         _______ _______ _______ _____ _____    ______ ____
ROOT
ATOM      1  C   UNL     1       2.390  -0.024   0.090  0.00  0.00    +0.176 C 
ENDROOT
BRANCH   1   2
ATOM      2  O   UNL     1       0.960  -0.139   0.089  0.00  0.00    -0.387 OA
ATOM      3  H   UNL     1       0.688  -0.601  -0.724  0.00  0.00    +0.210 HD
ENDBRANCH   1   2
BRANCH   1   4
ATOM      4  C   UNL     1       2.877   0.485   1.453  0.00  0.00    +0.207 C 
BRANCH   4   5
ATOM      5  C   UNL     1       2.492  -0.495   2.526  0.00  0.00    +0.257 C 
ATOM      6  O   UNL     1       3.196  -1.448   2.854  0.00  0.00    -0.298 OA
ENDBRANCH   4   5
BRANCH   4   7
ATOM      7  O   UNL     1       2.309   1.761   1.762  0.00  0.00    -0.382 OA
ATOM      8  H   UNL     1       2.872   2.428   1.334  0.00  0.00    +0.210 HD
ENDBRANCH   4   7
ENDBRANCH   1   4
BRANCH   1   9
ATOM      9  C   UNL     1       2.807   0.884  -1.065  0.00  0.00    +0.206 C 
BRANCH   9  10
ATOM     10  O   UNL     1       4.221   1.031  -1.121  0.00  0.00    -0.284 OA
BRANCH  10  11
ATOM     11  P   UNL     1       4.731   2.118  -2.366  0.00  0.00    +0.472 P 
ATOM     12  O   UNL     1       5.188   3.091  -3.481  0.00  0.00    -0.228 OA
BRANCH  11  13
ATOM     13  O   UNL     1       6.260   1.696  -1.974  0.00  0.00    -0.303 OA
ATOM     14  H   UNL     1       6.648   1.096  -2.637  0.00  0.00    +0.222 HD
ENDBRANCH  11  13
BRANCH  11  15
ATOM     15  O   UNL     1       4.522   3.298  -1.250  0.00  0.00    -0.303 OA
ATOM     16  H   UNL     1       4.390   4.147  -1.709  0.00  0.00    +0.222 HD
ENDBRANCH  11  15
ENDBRANCH  10  11
ENDBRANCH   9  10
ENDBRANCH   1   9
TORSDOF 9
