REMARK  Name = 
REMARK  2 active torsions:
REMARK  status: ('A' for Active; 'I' for Inactive)
REMARK    1  A    between atoms: C_2  and  C_4
REMARK    2  A    between atoms: C_11  and  C_14
REMARK                            x       y       z     vdW  Elec       q    Type
REMARK                         _______ _______ _______ _____ _____    ______ ____
ROOT
ATOM      1  C   UNL     1       3.069  -0.378  -1.195  0.00  0.00    +0.064 A 
ATOM      2  C   UNL     1       3.043  -1.739  -1.565  0.00  0.00    +0.102 A 
ATOM      3  C   UNL     1       3.862  -2.129  -2.655  0.00  0.00    +0.090 A 
ATOM      4  N   UNL     1       3.923  -3.400  -3.081  0.00  0.00    -0.251 NA
ATOM      5  C   UNL     1       3.142  -4.296  -2.440  0.00  0.00    +0.139 A 
ATOM      6  C   UNL     1       2.310  -3.964  -1.383  0.00  0.00    +0.090 A 
ATOM      7  C   UNL     1       4.632  -1.195  -3.332  0.00  0.00    +0.030 A 
ATOM      8  C   UNL     1       4.626   0.148  -2.977  0.00  0.00    +0.003 A 
ATOM      9  N   UNL     1       2.268  -2.680  -0.939  0.00  0.00    -0.243 NA
ATOM     10  C   UNL     1       3.846   0.556  -1.907  0.00  0.00    +0.015 A 
ENDROOT
BRANCH   6  11
ATOM     11  C   UNL     1       1.403  -4.932  -0.737  0.00  0.00    +0.002 A 
ATOM     12  C   UNL     1       0.153  -4.528  -0.229  0.00  0.00    +0.011 A 
ATOM     13  C   UNL     1      -0.753  -5.453   0.306  0.00  0.00    +0.020 A 
ATOM     14  C   UNL     1      -0.419  -6.802   0.350  0.00  0.00    +0.041 A 
ATOM     15 CL   UNL     1      -1.544  -7.948   0.967  0.00  0.00    -0.084 Cl
ATOM     16  C   UNL     1       0.820  -7.230  -0.113  0.00  0.00    +0.020 A 
ATOM     17  C   UNL     1       1.724  -6.301  -0.644  0.00  0.00    +0.011 A 
ENDBRANCH   6  11
BRANCH   1  21
ATOM     18  N   UNL     1       1.607  -0.715   0.745  0.00  0.00    -0.325 N 
ATOM     19  H   UNL     1       1.601  -1.711   0.536  0.00  0.00    +0.145 HD
ATOM     20  H   UNL     1       1.106  -0.367   1.549  0.00  0.00    +0.145 HD
ATOM     21  C   UNL     1       2.300   0.161  -0.035  0.00  0.00    +0.244 C 
ATOM     22  O   UNL     1       2.300   1.358   0.234  0.00  0.00    -0.270 OA
ENDBRANCH   1  21
TORSDOF 2
