REMARK  Name = 
REMARK  5 active torsions:
REMARK  status: ('A' for Active; 'I' for Inactive)
REMARK    1  A    between atoms: O_1  and  C_2
REMARK    2  A    between atoms: C_2  and  C_3
REMARK    3  A    between atoms: C_7  and  O_9
REMARK    4  A    between atoms: C_10  and  O_12
REMARK    5  A    between atoms: C_13  and  O_15
REMARK                            x       y       z     vdW  Elec       q    Type
REMARK                         _______ _______ _______ _____ _____    ______ ____
ROOT
ATOM      1  C   UNK     1       3.016  -0.342   1.371  0.00  0.00    +0.111 C 
ATOM      2  C   UNK     1       4.477   0.142   1.486  0.00  0.00    +0.165 C 
ATOM      3  C   UNK     1       5.371  -0.701   0.556  0.00  0.00    +0.174 C 
ATOM      4  C   UNK     1       5.189  -2.203   0.827  0.00  0.00    +0.159 C 
ATOM      5  C   UNK     1       3.705  -2.593   0.762  0.00  0.00    +0.115 C 
ATOM      6  N   UNK     1       2.893  -1.784   1.666  0.00  0.00    -0.306 NA
ATOM      7  H   UNK     1       1.902  -2.035   1.593  0.00  0.00    +0.122 HD
ENDROOT
BRANCH   2   8
ATOM      8  O   UNK     1       4.542   1.536   1.146  0.00  0.00    -0.388 OA
ATOM      9  H   UNK     1       4.521   1.613   0.178  0.00  0.00    +0.210 HD
ENDBRANCH   2   8
BRANCH   3  10
ATOM     10  O   UNK     1       6.759  -0.359   0.710  0.00  0.00    -0.387 OA
ATOM     11  H   UNK     1       7.268  -1.125   0.383  0.00  0.00    +0.210 HD
ENDBRANCH   3  10
BRANCH   4  12
ATOM     12  O   UNK     1       5.963  -2.938  -0.130  0.00  0.00    -0.388 OA
ATOM     13  H   UNK     1       5.530  -2.864  -0.999  0.00  0.00    +0.210 HD
ENDBRANCH   4  12
BRANCH   1  14
ATOM     14  C   UNK     1       2.071   0.462   2.283  0.00  0.00    +0.177 C 
BRANCH  14  15
ATOM     15  O   UNK     1       0.720   0.123   1.954  0.00  0.00    -0.393 OA
ATOM     16  H   UNK     1       0.168   0.868   2.249  0.00  0.00    +0.209 HD
ENDBRANCH  14  15
ENDBRANCH   1  14
TORSDOF 5
