REMARK  Name = 
REMARK  26 active torsions:
REMARK  status: ('A' for Active; 'I' for Inactive)
REMARK    1  A    between atoms: C_1  and  O_2
REMARK    2  A    between atoms: O_2  and  C_3
REMARK    3  A    between atoms: C_6  and  C_7
REMARK    4  A    between atoms: C_7  and  C_8
REMARK    5  A    between atoms: C_8  and  N_10
REMARK    6  A    between atoms: C_8  and  C_18
REMARK    7  A    between atoms: C_11  and  C_13
REMARK    8  A    between atoms: C_13  and  C_14
REMARK    9  A    between atoms: C_14  and  C_15
REMARK   10  A    between atoms: C_14  and  C_16
REMARK   11  A    between atoms: C_14  and  N_17
REMARK   12  A    between atoms: N_20  and  C_21
REMARK   13  A    between atoms: C_21  and  C_23
REMARK   14  A    between atoms: C_21  and  C_29
REMARK   15  A    between atoms: C_23  and  C_24
REMARK   16  A    between atoms: N_31  and  C_32
REMARK   17  A    between atoms: C_32  and  C_34
REMARK   18  A    between atoms: C_32  and  C_41
REMARK   19  A    between atoms: C_34  and  C_35
REMARK   20  A    between atoms: C_41  and  O_43
REMARK   21  A    between atoms: C_41  and  C_44
REMARK   22  A    between atoms: C_44  and  O_46
REMARK   23  A    between atoms: C_44  and  C_47
REMARK   24  A    between atoms: C_47  and  C_48
REMARK   25  A    between atoms: C_48  and  C_49
REMARK   26  A    between atoms: C_48  and  C_50
REMARK                            x       y       z     vdW  Elec       q    Type
REMARK                         _______ _______ _______ _____ _____    ______ ____
ROOT
ATOM      1  C   UNL     1       9.366   7.139   2.865  0.00  0.00    +0.165 C 
ENDROOT
BRANCH   1   3
ATOM      2  C   UNL     1       7.443   5.738   1.945  0.00  0.00    +0.234 C 
ATOM      3  N   UNL     1       8.685   5.856   2.540  0.00  0.00    -0.302 N 
ATOM      4  H   UNL     1       9.253   5.015   2.648  0.00  0.00    +0.150 HD
ATOM      5  O   UNL     1       6.720   6.707   1.722  0.00  0.00    -0.274 OA
BRANCH   2   6
ATOM      6  C   UNL     1       6.983   4.276   1.686  0.00  0.00    +0.163 C 
BRANCH   6   7
ATOM      7  N   UNL     1       6.250   3.759   2.849  0.00  0.00    -0.304 N 
ATOM      8  H   UNL     1       5.319   4.117   3.028  0.00  0.00    +0.149 HD
ATOM      9  C   UNL     1       6.902   3.061   3.833  0.00  0.00    +0.215 C 
ATOM     10  O   UNL     1       8.125   2.943   3.833  0.00  0.00    -0.276 OA
BRANCH   9  11
ATOM     11  C   UNL     1       6.026   2.461   4.932  0.00  0.00    +0.117 C 
BRANCH  11  12
ATOM     12  C   UNL     1       6.433   2.957   6.338  0.00  0.00    +0.019 C 
ATOM     13  C   UNL     1       5.661   2.229   7.447  0.00  0.00    +0.027 C 
ATOM     14  C   UNL     1       6.098   4.449   6.450  0.00  0.00    +0.027 C 
BRANCH  12  15
ATOM     15  N   UNL     1       7.862   2.710   6.603  0.00  0.00    -0.325 NA
ATOM     16  H   UNL     1       8.029   1.702   6.644  0.00  0.00    +0.119 HD
ATOM     17  H   UNL     1       8.418   2.998   5.789  0.00  0.00    +0.119 HD
ENDBRANCH  12  15
ENDBRANCH  11  12
ENDBRANCH   9  11
ENDBRANCH   6   7
BRANCH   6  18
ATOM     18  C   UNL     1       6.119   4.191   0.412  0.00  0.00    +0.067 C 
BRANCH  18  22
ATOM     19  C   UNL     1       5.221   0.186  -1.027  0.00  0.00    +0.120 A 
ATOM     20  C   UNL     1       6.539   0.577  -0.792  0.00  0.00    +0.046 A 
ATOM     21  C   UNL     1       6.834   1.859  -0.317  0.00  0.00    +0.007 A 
ATOM     22  C   UNL     1       5.810   2.778  -0.054  0.00  0.00    -0.045 A 
ATOM     23  C   UNL     1       4.486   2.378  -0.290  0.00  0.00    +0.007 A 
ATOM     24  C   UNL     1       4.193   1.092  -0.769  0.00  0.00    +0.046 A 
BRANCH  19  26
ATOM     25  C   UNL     1       3.758  -1.521  -1.811  0.00  0.00    +0.277 C 
ATOM     26  O   UNL     1       5.078  -1.084  -1.514  0.00  0.00    -0.495 OA
ENDBRANCH  19  26
ENDBRANCH  18  22
ENDBRANCH   6  18
ENDBRANCH   2   6
ENDBRANCH   1   3
BRANCH   1  27
ATOM     27  C   UNL     1      10.771   6.776   3.457  0.00  0.00    +0.234 C 
ATOM     28  N   UNL     1      11.506   7.801   4.032  0.00  0.00    -0.308 N 
ATOM     29  H   UNL     1      11.294   8.761   3.790  0.00  0.00    +0.149 HD
ATOM     30  O   UNL     1      11.151   5.602   3.470  0.00  0.00    -0.274 OA
BRANCH  28  31
ATOM     31  C   UNL     1      12.751   7.547   4.804  0.00  0.00    +0.104 C 
BRANCH  31  32
ATOM     32  C   UNL     1      12.887   8.528   6.019  0.00  0.00    +0.163 C 
BRANCH  32  33
ATOM     33  O   UNL     1      11.744   8.400   6.878  0.00  0.00    -0.387 OA
ATOM     34  H   UNL     1      10.968   8.182   6.332  0.00  0.00    +0.210 HD
ENDBRANCH  32  33
BRANCH  32  35
ATOM     35  C   UNL     1      14.136   8.263   6.896  0.00  0.00    +0.145 C 
BRANCH  35  36
ATOM     36  O   UNL     1      15.330   8.323   6.130  0.00  0.00    -0.389 OA
ATOM     37  H   UNL     1      15.919   7.617   6.447  0.00  0.00    +0.210 HD
ENDBRANCH  35  36
BRANCH  35  38
ATOM     38  C   UNL     1      14.305   9.257   8.063  0.00  0.00    +0.037 C 
BRANCH  38  39
ATOM     39  C   UNL     1      15.572   8.986   8.912  0.00  0.00    -0.015 C 
ATOM     40  C   UNL     1      15.554   7.591   9.542  0.00  0.00    +0.007 C 
ATOM     41  C   UNL     1      15.736  10.044  10.005  0.00  0.00    +0.007 C 
ENDBRANCH  38  39
ENDBRANCH  35  38
ENDBRANCH  32  35
ENDBRANCH  31  32
BRANCH  31  42
ATOM     42  C   UNL     1      13.960   7.397   3.846  0.00  0.00    +0.028 C 
BRANCH  42  43
ATOM     43  C   UNL     1      14.302   8.563   2.882  0.00  0.00    -0.009 C 
ATOM     44  C   UNL     1      15.363   8.093   1.861  0.00  0.00    +0.003 C 
ATOM     45  C   UNL     1      16.801   8.312   2.318  0.00  0.00    +0.000 C 
ATOM     46  C   UNL     1      17.038   9.788   2.592  0.00  0.00    +0.000 C 
ATOM     47  C   UNL     1      16.148  10.242   3.732  0.00  0.00    +0.000 C 
ATOM     48  C   UNL     1      14.670   9.940   3.479  0.00  0.00    +0.003 C 
ENDBRANCH  42  43
ENDBRANCH  31  42
ENDBRANCH  28  31
ENDBRANCH   1  27
BRANCH   1  49
ATOM     49  C   UNL     1       8.562   7.995   3.869  0.00  0.00    +0.086 C 
BRANCH  49  50
ATOM     50  C   UNL     1       8.561   7.436   5.254  0.00  0.00    +0.038 A 
ATOM     51  N   UNL     1       8.773   6.111   5.542  0.00  0.00    -0.348 N 
ATOM     52  H   UNL     1       8.863   5.349   4.874  0.00  0.00    +0.166 HD
ATOM     53  C   UNL     1       8.902   5.987   6.889  0.00  0.00    +0.196 A 
ATOM     54  N   UNL     1       8.675   7.132   7.485  0.00  0.00    -0.244 NA
ATOM     55  C   UNL     1       8.440   8.038   6.488  0.00  0.00    +0.133 A 
ENDBRANCH  49  50
ENDBRANCH   1  49
TORSDOF 21
