REMARK  Name = 
REMARK  6 active torsions:
REMARK  status: ('A' for Active; 'I' for Inactive)
REMARK    1  A    between atoms: O_1  and  S_2
REMARK    2  A    between atoms: S_2  and  C_5
REMARK    3  A    between atoms: C_5  and  C_6
REMARK    4  A    between atoms: C_6  and  C_7
REMARK    5  A    between atoms: C_7  and  S_8
REMARK    6  A    between atoms: S_8  and  C_9
REMARK                            x       y       z     vdW  Elec       q    Type
REMARK                         _______ _______ _______ _____ _____    ______ ____
ROOT
ATOM      1  S   UNL     1       7.148  -2.101   2.251  0.00  0.00    -0.099 S 
ENDROOT
BRANCH   1   2
ATOM      2  C   UNL     1       7.505  -3.155   3.600  0.00  0.00    +0.136 A 
ATOM      3  S   UNL     1       8.852  -4.208   3.586  0.00  0.00    -0.061 S 
ATOM      4  C   UNL     1       8.421  -4.772   5.154  0.00  0.00    +0.040 A 
ATOM      5  C   UNL     1       9.049  -5.745   5.948  0.00  0.00    +0.017 A 
ATOM      6  C   UNL     1       8.506  -6.022   7.206  0.00  0.00    +0.001 A 
ATOM      7  C   UNL     1       7.378  -5.347   7.660  0.00  0.00    +0.002 A 
ATOM      8  C   UNL     1       6.759  -4.381   6.859  0.00  0.00    +0.029 A 
ATOM      9  C   UNL     1       7.280  -4.089   5.582  0.00  0.00    +0.079 A 
ATOM     10  N   UNL     1       6.760  -3.174   4.680  0.00  0.00    -0.233 NA
ENDBRANCH   1   2
BRANCH   1  11
ATOM     11  C   UNL     1       5.345  -1.941   2.412  0.00  0.00    +0.078 C 
BRANCH  11  12
ATOM     12  C   UNL     1       4.827  -1.076   1.267  0.00  0.00    +0.036 C 
BRANCH  12  13
ATOM     13  C   UNL     1       3.313  -0.910   1.326  0.00  0.00    +0.198 C 
BRANCH  13  14
ATOM     14  S   UNL     1       2.750   0.119  -0.028  0.00  0.00    +0.080 S 
ATOM     15  O   UNL     1       3.200   1.477   0.159  0.00  0.00    -0.147 OA
ATOM     16  O   UNL     1       2.910  -0.580  -1.282  0.00  0.00    -0.147 OA
BRANCH  14  17
ATOM     17  O   UNL     1       1.171   0.101   0.312  0.00  0.00    -0.254 OA
ATOM     18  H   UNL     1       0.703   0.601  -0.391  0.00  0.00    +0.244 HD
ENDBRANCH  14  17
ENDBRANCH  13  14
ENDBRANCH  12  13
ENDBRANCH  11  12
ENDBRANCH   1  11
TORSDOF 6
