REMARK  Name = 
REMARK  4 active torsions:
REMARK  status: ('A' for Active; 'I' for Inactive)
REMARK    1  A    between atoms: C_2  and  C_6
REMARK    2  A    between atoms: C_11  and  C_15
REMARK    3  A    between atoms: C_19  and  O_20
REMARK    4  A    between atoms: O_20  and  C_21
REMARK                            x       y       z     vdW  Elec       q    Type
REMARK                         _______ _______ _______ _____ _____    ______ ____
ROOT
ATOM      1  C   UNL     1       3.106  -0.986  -1.079  0.00  0.00    +0.061 A 
ATOM      2  C   UNL     1       3.466  -0.071  -2.089  0.00  0.00    +0.025 A 
ATOM      3  C   UNL     1       4.232  -0.503  -3.186  0.00  0.00    +0.001 A 
ATOM      4  C   UNL     1       4.633  -1.831  -3.237  0.00  0.00    +0.047 A 
ATOM      5  N   UNL     1       5.286  -1.991  -4.433  0.00  0.00    -0.354 N 
ATOM      6  H   UNL     1       5.656  -2.851  -4.842  0.00  0.00    +0.166 HD
ATOM      7  C   UNL     1       5.237  -0.842  -5.193  0.00  0.00    +0.047 A 
ATOM      8  C   UNL     1       4.345  -2.756  -2.231  0.00  0.00    +0.027 A 
ATOM      9  C   UNL     1       4.668   0.126  -4.383  0.00  0.00    +0.036 A 
ATOM     10  C   UNL     1       3.575  -2.308  -1.154  0.00  0.00    +0.018 A 
ENDROOT
BRANCH   1  14
ATOM     11  N   UNL     1       1.297  -1.392   0.461  0.00  0.00    -0.250 N 
ATOM     12  H   UNL     1       1.202  -2.308   0.036  0.00  0.00    +0.288 HD
ATOM     13  H   UNL     1       0.650  -1.145   1.195  0.00  0.00    +0.288 HD
ATOM     14  C   UNL     1       2.208  -0.559   0.004  0.00  0.00    +0.266 C 
ATOM     15  N   UNL     1       2.305   0.660   0.495  0.00  0.00    -0.288 N 
ATOM     16  H   UNL     1       1.692   1.007   1.216  0.00  0.00    +0.301 HD
ATOM     17  H   UNL     1       3.021   1.286   0.143  0.00  0.00    +0.301 HD
ENDBRANCH   1  14
BRANCH   7  18
ATOM     18  C   UNL     1       5.638  -0.860  -6.625  0.00  0.00    -0.006 A 
ATOM     19  C   UNL     1       6.017  -2.094  -7.281  0.00  0.00    -0.056 A 
ATOM     20  O   UNL     1       6.259  -3.178  -6.624  0.00  0.00    -0.871 OA
ATOM     21  C   UNL     1       6.115  -1.988  -8.703  0.00  0.00    +0.114 A 
ATOM     22  C   UNL     1       6.036  -0.754  -9.379  0.00  0.00    +0.045 A 
ATOM     23  C   UNL     1       5.774   0.420  -8.697  0.00  0.00    +0.004 A 
ATOM     24  C   UNL     1       5.547   0.360  -7.331  0.00  0.00    +0.009 A 
BRANCH  21  25
ATOM     25  O   UNL     1       6.341  -3.018  -9.599  0.00  0.00    -0.489 OA
BRANCH  25  26
ATOM     26  C   UNL     1       5.760  -4.283  -9.315  0.00  0.00    +0.173 C 
ATOM     27  C   UNL     1       6.824  -5.372  -9.451  0.00  0.00    +0.044 C 
ATOM     28  C   UNL     1       6.083  -6.626  -9.914  0.00  0.00    +0.004 C 
ATOM     29  C   UNL     1       4.645  -6.188 -10.177  0.00  0.00    +0.004 C 
ATOM     30  C   UNL     1       4.742  -4.683 -10.383  0.00  0.00    +0.044 C 
ENDBRANCH  25  26
ENDBRANCH  21  25
ENDBRANCH   7  18
TORSDOF 4
