REMARK  Name = 
REMARK  22 active torsions:
REMARK  status: ('A' for Active; 'I' for Inactive)
REMARK    1  A    between atoms: O_1  and  C_2
REMARK    2  A    between atoms: C_5  and  C_6
REMARK    3  A    between atoms: C_8  and  C_9
REMARK    4  A    between atoms: C_10  and  C_11
REMARK    5  A    between atoms: C_11  and  C_12
REMARK    6  A    between atoms: C_13  and  C_14
REMARK    7  A    between atoms: C_15  and  C_16
REMARK    8  A    between atoms: C_16  and  C_17
REMARK    9  A    between atoms: C_18  and  C_19
REMARK   10  A    between atoms: C_20  and  C_21
REMARK   11  A    between atoms: C_22  and  C_23
REMARK   12  A    between atoms: C_22  and  C_24
REMARK   13  A    between atoms: C_25  and  C_26
REMARK   14  A    between atoms: C_27  and  C_28
REMARK   15  A    between atoms: C_27  and  C_29
REMARK   16  A    between atoms: C_30  and  C_31
REMARK   17  A    between atoms: C_33  and  C_34
REMARK   18  A    between atoms: C_36  and  O_38
REMARK   19  A    between atoms: C_40  and  C_41
REMARK   20  A    between atoms: C_40  and  C_42
REMARK   21  A    between atoms: C_43  and  C_44
REMARK   22  A    between atoms: C_43  and  C_45
REMARK                            x       y       z     vdW  Elec       q    Type
REMARK                         _______ _______ _______ _____ _____    ______ ____
ROOT
ATOM      1  C   UNL     1       2.510  -7.082  11.530  0.00  0.00    +0.000 C 
ATOM      2  C   UNL     1       2.358  -8.400  11.804  0.00  0.00    +0.000 C 
ENDROOT
BRANCH   1   4
ATOM      3  C   UNL     1       2.625  -5.130   9.904  0.00  0.00    -0.050 C 
ATOM      4  C   UNL     1       2.491  -6.457  10.182  0.00  0.00    +0.003 C 
ATOM      5  C   UNL     1       2.806  -4.143  11.032  0.00  0.00    +0.044 C 
BRANCH   3   7
ATOM      6  C   UNL     1       2.692  -3.328   8.085  0.00  0.00    +0.001 C 
ATOM      7  C   UNL     1       2.570  -4.596   8.500  0.00  0.00    +0.003 C 
BRANCH   6   9
ATOM      8  C   UNL     1       2.683  -1.522   6.274  0.00  0.00    -0.051 C 
ATOM      9  C   UNL     1       2.590  -2.817   6.691  0.00  0.00    +0.003 C 
ATOM     10  C   UNL     1       2.918  -0.422   7.301  0.00  0.00    +0.044 C 
BRANCH   8  12
ATOM     11  C   UNL     1       2.620   0.042   4.250  0.00  0.00    +0.011 C 
ATOM     12  C   UNL     1       2.480  -1.170   4.827  0.00  0.00    +0.002 C 
BRANCH  11  18
ATOM     13  C   UNL     1       1.698   3.080   1.096  0.00  0.00    +0.118 C 
ATOM     14  C   UNL     1       2.875   3.011   2.228  0.00  0.00    +0.041 C 
ATOM     15  C   UNL     1       3.529   1.588   2.242  0.00  0.00    +0.003 C 
ATOM     16  C   UNL     1       4.180   1.644   0.794  0.00  0.00    +0.014 C 
ATOM     17  C   UNL     1       4.820   0.946   2.869  0.00  0.00    +0.014 C 
ATOM     18  C   UNL     1       2.315   0.643   2.838  0.00  0.00    +0.122 C 
ATOM     19  C   UNL     1       0.957   0.879   2.002  0.00  0.00    +0.103 C 
ATOM     20  C   UNL     1       0.203  -0.343   1.624  0.00  0.00    +0.045 C 
ATOM     21  O   UNL     1       1.068   1.270   3.310  0.00  0.00    -0.357 OA
ATOM     22  C   UNL     1       0.503   2.184   1.375  0.00  0.00    +0.069 C 
BRANCH  13  23
ATOM     23  O   UNL     1       2.051   2.704  -0.251  0.00  0.00    -0.392 OA
ATOM     24  H   UNL     1       1.996   1.733  -0.347  0.00  0.00    +0.210 HD
ENDBRANCH  13  23
ENDBRANCH  11  18
ENDBRANCH   8  12
ENDBRANCH   6   9
ENDBRANCH   3   7
ENDBRANCH   1   4
BRANCH   2  25
ATOM     25  C   UNL     1       2.382  -9.007  13.161  0.00  0.00    +0.003 C 
ATOM     26  C   UNL     1       2.246 -10.320  13.507  0.00  0.00    -0.050 C 
ATOM     27  C   UNL     1       2.038 -11.412  12.481  0.00  0.00    +0.044 C 
BRANCH  26  28
ATOM     28  C   UNL     1       2.307 -10.786  14.940  0.00  0.00    +0.003 C 
ATOM     29  C   UNL     1       2.190 -12.064  15.384  0.00  0.00    +0.001 C 
BRANCH  29  30
ATOM     30  C   UNL     1       2.290 -12.559  16.779  0.00  0.00    +0.003 C 
ATOM     31  C   UNL     1       2.234 -13.854  17.213  0.00  0.00    -0.051 C 
ATOM     32  C   UNL     1       2.010 -15.027  16.281  0.00  0.00    +0.044 C 
BRANCH  31  33
ATOM     33  C   UNL     1       2.486 -14.224  18.647  0.00  0.00    +0.002 C 
ATOM     34  C   UNL     1       2.499 -15.475  19.182  0.00  0.00    +0.011 C 
BRANCH  34  35
ATOM     35  C   UNL     1       2.960 -15.968  20.543  0.00  0.00    +0.122 C 
ATOM     36  C   UNL     1       1.918 -16.361  21.646  0.00  0.00    +0.003 C 
ATOM     37  C   UNL     1       0.511 -16.621  21.081  0.00  0.00    +0.014 C 
ATOM     38  C   UNL     1       2.254 -17.667  22.434  0.00  0.00    +0.014 C 
ATOM     39  C   UNL     1       1.920 -15.165  22.624  0.00  0.00    +0.041 C 
ATOM     40  C   UNL     1       3.237 -15.073  23.418  0.00  0.00    +0.118 C 
ATOM     41  C   UNL     1       4.513 -15.404  22.618  0.00  0.00    +0.069 C 
ATOM     42  C   UNL     1       4.309 -15.436  21.114  0.00  0.00    +0.103 C 
ATOM     43  C   UNL     1       5.331 -14.676  20.322  0.00  0.00    +0.045 C 
ATOM     44  O   UNL     1       4.147 -16.773  20.614  0.00  0.00    -0.357 OA
BRANCH  40  45
ATOM     45  O   UNL     1       3.342 -13.765  23.979  0.00  0.00    -0.392 OA
ATOM     46  H   UNL     1       2.572 -13.644  24.562  0.00  0.00    +0.210 HD
ENDBRANCH  40  45
ENDBRANCH  34  35
ENDBRANCH  31  33
ENDBRANCH  29  30
ENDBRANCH  26  28
ENDBRANCH   2  25
TORSDOF 12
