REMARK  Name = 
REMARK  10 active torsions:
REMARK  status: ('A' for Active; 'I' for Inactive)
REMARK    1  A    between atoms: N_8  and  C_9
REMARK    2  A    between atoms: C_12  and  O_14
REMARK    3  A    between atoms: C_15  and  C_17
REMARK    4  A    between atoms: C_17  and  O_18
REMARK    5  A    between atoms: O_18  and  P_19
REMARK    6  A    between atoms: P_19  and  O_20
REMARK    7  A    between atoms: P_19  and  O_22
REMARK    8  A    between atoms: O_22  and  P_23
REMARK    9  A    between atoms: P_23  and  O_24
REMARK   10  A    between atoms: P_23  and  O_25
REMARK                            x       y       z     vdW  Elec       q    Type
REMARK                         _______ _______ _______ _____ _____    ______ ____
ROOT
ATOM      1  C   UNL     1       3.925  -9.112  -1.086  0.00  0.00    +0.225 C 
ATOM      2  O   UNL     1       3.703  -9.425   0.304  0.00  0.00    -0.348 OA
ATOM      3  C   UNL     1       2.317  -9.123   0.581  0.00  0.00    +0.175 C 
ATOM      4  C   UNL     1       1.647  -8.843  -0.777  0.00  0.00    +0.150 C 
ATOM      5  C   UNL     1       2.619  -9.473  -1.755  0.00  0.00    +0.088 C 
ENDROOT
BRANCH   1  17
ATOM      6  N   UNL     1       6.624  -7.013  -5.044  0.00  0.00    -0.329 N 
ATOM      7  H   UNL     1       7.498  -6.586  -5.313  0.00  0.00    +0.145 HD
ATOM      8  H   UNL     1       5.914  -6.339  -4.776  0.00  0.00    +0.145 HD
ATOM      9  C   UNL     1       6.675  -8.075  -4.204  0.00  0.00    +0.195 A 
ATOM     10  N   UNL     1       7.782  -8.893  -4.320  0.00  0.00    -0.293 N 
ATOM     11  H   UNL     1       8.480  -8.707  -5.019  0.00  0.00    +0.172 HD
ATOM     12  C   UNL     1       8.008 -10.027  -3.551  0.00  0.00    +0.280 A 
ATOM     13  O   UNL     1       9.007 -10.726  -3.707  0.00  0.00    -0.265 OA
ATOM     14  C   UNL     1       6.946 -10.266  -2.600  0.00  0.00    +0.172 A 
ATOM     15  N   UNL     1       6.787 -11.252  -1.660  0.00  0.00    -0.229 NA
ATOM     16  C   UNL     1       5.661 -10.939  -1.047  0.00  0.00    +0.203 A 
ATOM     17  N   UNL     1       5.092  -9.805  -1.566  0.00  0.00    -0.288 N 
ATOM     18  C   UNL     1       5.903  -9.370  -2.574  0.00  0.00    +0.171 A 
ATOM     19  N   UNL     1       5.712  -8.272  -3.345  0.00  0.00    -0.196 NA
ENDBRANCH   1  17
BRANCH   4  20
ATOM     20  O   UNL     1       0.347  -9.389  -0.918  0.00  0.00    -0.389 OA
ATOM     21  H   UNL     1       0.372 -10.335  -0.690  0.00  0.00    +0.210 HD
ENDBRANCH   4  20
BRANCH   3  22
ATOM     22  C   UNL     1       2.296  -7.931   1.532  0.00  0.00    +0.206 C 
BRANCH  22  23
ATOM     23  O   UNL     1       0.970  -7.535   1.812  0.00  0.00    -0.284 OA
BRANCH  23  24
ATOM     24  P   UNL     1       0.741  -6.302   2.860  0.00  0.00    +0.483 P 
ATOM     25  O   UNL     1       2.030  -5.488   2.974  0.00  0.00    -0.227 OA
BRANCH  24  26
ATOM     26  O   UNL     1       0.314  -5.304   1.512  0.00  0.00    -0.302 OA
ATOM     27  H   UNL     1       1.178  -5.048   1.132  0.00  0.00    +0.222 HD
ENDBRANCH  24  26
BRANCH  24  28
ATOM     28  O   UNL     1       1.168  -7.299   4.208  0.00  0.00    -0.186 OA
BRANCH  28  29
ATOM     29  P   UNL     1      -0.267  -7.958   4.915  0.00  0.00    +0.481 P 
ATOM     30  O   UNL     1      -1.551  -8.548   5.547  0.00  0.00    -0.227 OA
BRANCH  29  31
ATOM     31  O   UNL     1       0.689  -8.336   6.191  0.00  0.00    -0.302 OA
ATOM     32  H   UNL     1       0.684  -7.649   6.881  0.00  0.00    +0.222 HD
ENDBRANCH  29  31
BRANCH  29  33
ATOM     33  O   UNL     1       0.078  -9.332   4.099  0.00  0.00    -0.302 OA
ATOM     34  H   UNL     1       0.123 -10.042   4.768  0.00  0.00    +0.222 HD
ENDBRANCH  29  33
ENDBRANCH  28  29
ENDBRANCH  24  28
ENDBRANCH  23  24
ENDBRANCH  22  23
ENDBRANCH   3  22
TORSDOF 10
