REMARK  Name = 
REMARK  7 active torsions:
REMARK  status: ('A' for Active; 'I' for Inactive)
REMARK    1  A    between atoms: C_2  and  C_3
REMARK    2  A    between atoms: C_2  and  N_10
REMARK    3  A    between atoms: C_2  and  C_23
REMARK    4  A    between atoms: C_3  and  C_4
REMARK    5  A    between atoms: C_11  and  C_13
REMARK    6  A    between atoms: C_27  and  C_29
REMARK    7  A    between atoms: C_29  and  O_30
REMARK                            x       y       z     vdW  Elec       q    Type
REMARK                         _______ _______ _______ _____ _____    ______ ____
ROOT
ATOM      1  C   UNL     1       2.354  -0.205  -0.118  0.00  0.00    +0.164 C 
ENDROOT
BRANCH   1   2
ATOM      2  C   UNL     1       2.874   1.013  -0.921  0.00  0.00    +0.236 C 
ATOM      3  N   UNL     1       2.960   0.829  -2.292  0.00  0.00    -0.298 N 
ATOM      4  C   UNL     1       1.882   0.322  -3.147  0.00  0.00    +0.124 C 
ATOM      5  C   UNL     1       2.041   1.598  -3.987  0.00  0.00    +0.132 C 
ATOM      6  C   UNL     1       3.365   1.847  -3.264  0.00  0.00    +0.124 C 
ATOM      7  O   UNL     1       3.032   2.134  -0.437  0.00  0.00    -0.274 OA
BRANCH   5   8
ATOM      8  C   UNL     1       0.915   2.647  -3.901  0.00  0.00    +0.311 C 
ATOM      9  O   UNL     1       0.115   2.878  -4.807  0.00  0.00    -0.251 OA
BRANCH   8  10
ATOM     10  O   UNL     1       0.832   3.337  -2.730  0.00  0.00    -0.480 OA
ATOM     11  H   UNL     1       1.502   3.115  -2.047  0.00  0.00    +0.295 HD
ENDBRANCH   8  10
ENDBRANCH   5   8
ENDBRANCH   1   2
BRANCH   1  12
ATOM     12  N   UNL     1       2.779  -1.468  -0.731  0.00  0.00    -0.299 N 
ATOM     13  H   UNL     1       3.651  -1.471  -1.239  0.00  0.00    +0.150 HD
ATOM     14  C   UNL     1       2.054  -2.627  -0.612  0.00  0.00    +0.261 C 
ATOM     15  O   UNL     1       0.999  -2.677   0.012  0.00  0.00    -0.269 OA
BRANCH  14  16
ATOM     16  C   UNL     1       2.588  -3.771  -1.317  0.00  0.00    +0.103 A 
ATOM     17  N   UNL     1       1.861  -4.939  -1.434  0.00  0.00    -0.351 N 
ATOM     18  H   UNL     1       0.951  -5.074  -1.013  0.00  0.00    +0.166 HD
ATOM     19  C   UNL     1       2.485  -5.829  -2.275  0.00  0.00    +0.047 A 
ATOM     20  C   UNL     1       2.059  -7.077  -2.749  0.00  0.00    +0.027 A 
ATOM     21  C   UNL     1       2.900  -7.748  -3.643  0.00  0.00    +0.022 A 
ATOM     22  C   UNL     1       4.124  -7.198  -4.018  0.00  0.00    +0.042 A 
ATOM     23  C   UNL     1       4.552  -5.967  -3.511  0.00  0.00    +0.030 A 
ATOM     24 CL   UNL     1       5.119  -8.038  -5.147  0.00  0.00    -0.084 Cl
ATOM     25  C   UNL     1       3.705  -5.261  -2.634  0.00  0.00    +0.002 A 
ATOM     26  C   UNL     1       3.780  -3.991  -1.990  0.00  0.00    +0.041 A 
ENDBRANCH  14  16
ENDBRANCH   1  12
BRANCH   1  27
ATOM     27  C   UNL     1       2.702  -0.107   1.383  0.00  0.00    +0.067 C 
BRANCH  27  28
ATOM     28  C   UNL     1       4.181  -0.079   1.712  0.00  0.00    -0.045 A 
ATOM     29  C   UNL     1       5.002  -1.189   1.468  0.00  0.00    +0.004 A 
ATOM     30  C   UNL     1       6.370  -1.137   1.737  0.00  0.00    +0.000 A 
ATOM     31  C   UNL     1       6.930   0.013   2.288  0.00  0.00    +0.000 A 
ATOM     32  C   UNL     1       6.120   1.108   2.577  0.00  0.00    +0.000 A 
ATOM     33  C   UNL     1       4.754   1.064   2.288  0.00  0.00    +0.004 A 
ENDBRANCH  27  28
ENDBRANCH   1  27
TORSDOF 7
