REMARK  Name = 
REMARK  7 active torsions:
REMARK  status: ('A' for Active; 'I' for Inactive)
REMARK    1  A    between atoms: O_1  and  C_2
REMARK    2  A    between atoms: C_6  and  C_8
REMARK    3  A    between atoms: C_8  and  O_9
REMARK    4  A    between atoms: O_9  and  P_10
REMARK    5  A    between atoms: P_10  and  O_11
REMARK    6  A    between atoms: P_10  and  O_12
REMARK    7  A    between atoms: C_14  and  O_16
REMARK                            x       y       z     vdW  Elec       q    Type
REMARK                         _______ _______ _______ _____ _____    ______ ____
ROOT
ATOM      1  C   UNL     1       2.455  -0.111   0.030  0.00  0.00    +0.171 C 
ATOM      2  C   UNL     1       2.922  -1.380   0.733  0.00  0.00    +0.176 C 
ATOM      3  C   UNL     1       4.161  -0.932   1.521  0.00  0.00    +0.175 C 
ATOM      4  O   UNL     1       4.247   0.509   1.393  0.00  0.00    -0.369 OA
ATOM      5  C   UNL     1       2.971   0.985   0.944  0.00  0.00    +0.194 C 
ENDROOT
BRANCH   1   6
ATOM      6  O   UNL     1       3.076  -0.015  -1.256  0.00  0.00    -0.387 OA
ATOM      7  H   UNL     1       3.978   0.332  -1.129  0.00  0.00    +0.210 HD
ENDBRANCH   1   6
BRANCH   2   8
ATOM      8  O   UNL     1       1.912  -1.870   1.622  0.00  0.00    -0.387 OA
ATOM      9  H   UNL     1       1.703  -1.181   2.276  0.00  0.00    +0.210 HD
ENDBRANCH   2   8
BRANCH   3  10
ATOM     10  C   UNL     1       5.460  -1.558   1.011  0.00  0.00    +0.206 C 
BRANCH  10  11
ATOM     11  O   UNL     1       6.517  -1.177   1.888  0.00  0.00    -0.284 OA
BRANCH  11  12
ATOM     12  P   UNL     1       8.072  -1.806   1.465  0.00  0.00    +0.472 P 
ATOM     13  O   UNL     1       9.464  -2.369   1.086  0.00  0.00    -0.228 OA
BRANCH  12  14
ATOM     14  O   UNL     1       8.637  -1.206   2.872  0.00  0.00    -0.303 OA
ATOM     15  H   UNL     1       9.603  -1.357   2.843  0.00  0.00    +0.222 HD
ENDBRANCH  12  14
BRANCH  12  16
ATOM     16  O   UNL     1       8.262  -0.412   0.633  0.00  0.00    -0.303 OA
ATOM     17  H   UNL     1       8.327   0.308   1.286  0.00  0.00    +0.222 HD
ENDBRANCH  12  16
ENDBRANCH  11  12
ENDBRANCH  10  11
ENDBRANCH   3  10
TORSDOF 7
