REMARK  Name = 
REMARK  4 active torsions:
REMARK  status: ('A' for Active; 'I' for Inactive)
REMARK    1  A    between atoms: O_1  and  C_2
REMARK    2  A    between atoms: C_2  and  C_4
REMARK    3  A    between atoms: C_7  and  O_8
REMARK    4  A    between atoms: C_9  and  O_10
REMARK                            x       y       z     vdW  Elec       q    Type
REMARK                         _______ _______ _______ _____ _____    ______ ____
ROOT
ATOM      1  C   UNL     1       3.209   1.227  -0.435  0.00  0.00    +0.063 A 
ATOM      2  C   UNL     1       4.341   1.165  -1.255  0.00  0.00    +0.064 A 
ATOM      3  C   UNL     1       4.941   2.349  -1.657  0.00  0.00    +0.159 A 
ATOM      4  C   UNL     1       4.425   3.587  -1.276  0.00  0.00    +0.158 A 
ATOM      5  C   UNL     1       3.289   3.660  -0.479  0.00  0.00    +0.050 A 
ATOM      6  C   UNL     1       2.679   2.474  -0.060  0.00  0.00    +0.019 A 
ENDROOT
BRANCH   1   7
ATOM      7  C   UNL     1       2.513   0.003   0.028  0.00  0.00    +0.337 C 
ATOM      8  O   UNL     1       1.309  -0.040   0.215  0.00  0.00    -0.245 OA
BRANCH   7   9
ATOM      9  O   UNL     1       3.338  -1.035   0.277  0.00  0.00    -0.477 OA
ATOM     10  H   UNL     1       4.291  -0.828   0.244  0.00  0.00    +0.295 HD
ENDBRANCH   7   9
ENDBRANCH   1   7
BRANCH   3  11
ATOM     11  O   UNL     1       6.053   2.288  -2.447  0.00  0.00    -0.503 OA
ATOM     12  H   UNL     1       6.290   3.222  -2.617  0.00  0.00    +0.292 HD
ENDBRANCH   3  11
BRANCH   4  13
ATOM     13  O   UNL     1       5.069   4.706  -1.724  0.00  0.00    -0.503 OA
ATOM     14  H   UNL     1       4.575   5.487  -1.417  0.00  0.00    +0.292 HD
ENDBRANCH   4  13
TORSDOF 4
