REMARK  Name = 
REMARK  9 active torsions:
REMARK  status: ('A' for Active; 'I' for Inactive)
REMARK    1  A    between atoms: O_1  and  C_2
REMARK    2  A    between atoms: C_2  and  C_4
REMARK    3  A    between atoms: C_4  and  N_5
REMARK    4  A    between atoms: N_5  and  C_6
REMARK    5  A    between atoms: N_5  and  C_10
REMARK    6  A    between atoms: C_6  and  C_7
REMARK    7  A    between atoms: C_7  and  O_8
REMARK    8  A    between atoms: C_10  and  C_11
REMARK    9  A    between atoms: C_11  and  O_12
REMARK                            x       y       z     vdW  Elec       q    Type
REMARK                         _______ _______ _______ _____ _____    ______ ____
ROOT
ATOM      1  N   UNL     1       4.644  -0.606  -0.782  0.00  0.00    -0.272 NA
ENDROOT
BRANCH   1   2
ATOM      2  C   UNL     1       3.187  -0.818  -1.164  0.00  0.00    +0.206 C 
BRANCH   2   3
ATOM      3  C   UNL     1       2.209  -0.275  -0.125  0.00  0.00    +0.319 C 
ATOM      4  O   UNL     1       1.115  -0.763   0.110  0.00  0.00    -0.250 OA
BRANCH   3   5
ATOM      5  O   UNL     1       2.663   0.839   0.495  0.00  0.00    -0.480 OA
ATOM      6  H   UNL     1       3.541   1.076   0.142  0.00  0.00    +0.295 HD
ENDBRANCH   3   5
ENDBRANCH   2   3
ENDBRANCH   1   2
BRANCH   1   7
ATOM      7  C   UNL     1       5.461  -1.269  -1.879  0.00  0.00    +0.206 C 
BRANCH   7   8
ATOM      8  C   UNL     1       5.220  -0.650  -3.253  0.00  0.00    +0.319 C 
ATOM      9  O   UNL     1       4.808  -1.273  -4.220  0.00  0.00    -0.250 OA
BRANCH   8  10
ATOM     10  O   UNL     1       5.482   0.677  -3.295  0.00  0.00    -0.480 OA
ATOM     11  H   UNL     1       5.812   1.018  -2.444  0.00  0.00    +0.295 HD
ENDBRANCH   8  10
ENDBRANCH   7   8
ENDBRANCH   1   7
BRANCH   1  12
ATOM     12  C   UNL     1       4.898  -1.411   0.479  0.00  0.00    +0.206 C 
BRANCH  12  13
ATOM     13  C   UNL     1       6.341  -1.283   0.966  0.00  0.00    +0.319 C 
ATOM     14  O   UNL     1       6.987  -2.199   1.448  0.00  0.00    -0.250 OA
BRANCH  13  15
ATOM     15  O   UNL     1       6.836  -0.028   0.832  0.00  0.00    -0.480 OA
ATOM     16  H   UNL     1       6.164   0.567   0.451  0.00  0.00    +0.295 HD
ENDBRANCH  13  15
ENDBRANCH  12  13
ENDBRANCH   1  12
TORSDOF 9
