REMARK  Name = 
REMARK  18 active torsions:
REMARK  status: ('A' for Active; 'I' for Inactive)
REMARK    1  A    between atoms: N_1  and  C_2
REMARK    2  A    between atoms: C_2  and  C_4
REMARK    3  A    between atoms: C_2  and  C_32
REMARK    4  A    between atoms: C_4  and  C_5
REMARK    5  A    between atoms: C_5  and  C_6
REMARK    6  A    between atoms: N_8  and  C_9
REMARK    7  A    between atoms: C_9  and  C_11
REMARK    8  A    between atoms: C_9  and  C_25
REMARK    9  A    between atoms: C_11  and  S_12
REMARK   10  A    between atoms: S_12  and  C_13
REMARK   11  A    between atoms: C_13  and  O_15
REMARK   12  A    between atoms: C_13  and  N_16
REMARK   13  A    between atoms: N_16  and  O_17
REMARK   14  A    between atoms: N_16  and  C_18
REMARK   15  A    between atoms: N_27  and  CA_28
REMARK   16  A    between atoms: CA_28  and  C_29
REMARK   17  A    between atoms: C_29  and  O_30
REMARK   18  A    between atoms: C_32  and  O_33
REMARK                            x       y       z     vdW  Elec       q    Type
REMARK                         _______ _______ _______ _____ _____    ______ ____
ROOT
ATOM      1  C   UNK A   1       6.844   0.534  -6.189  0.00  0.00    +0.169 C 
ENDROOT
BRANCH   1   3
ATOM      2  C   UNK A   1       5.767  -0.563  -4.169  0.00  0.00    +0.214 C 
ATOM      3  N   UNK A   1       6.695  -0.533  -5.179  0.00  0.00    -0.303 N 
ATOM      4  H   UNK A   1       7.416  -1.243  -5.187  0.00  0.00    +0.149 HD
ATOM      5  O   UNK A   1       4.945   0.331  -4.008  0.00  0.00    -0.276 OA
BRANCH   2   6
ATOM      6  C   UNK A   1       5.814  -1.805  -3.306  0.00  0.00    +0.098 C 
BRANCH   6   7
ATOM      7  C   UNK A   1       4.464  -2.212  -2.675  0.00  0.00    +0.039 C 
BRANCH   7   8
ATOM      8  C   UNK A   1       3.361  -2.686  -3.633  0.00  0.00    +0.161 C 
BRANCH   8   9
ATOM      9  N   UNK A   1       3.807  -3.792  -4.541  0.00  0.00    -0.318 NA
ATOM     10  H   UNK A   1       4.810  -3.961  -4.452  0.00  0.00    +0.119 HD
ATOM     11  H   UNK A   1       3.386  -4.663  -4.197  0.00  0.00    +0.119 HD
ENDBRANCH   8   9
BRANCH   8  12
ATOM     12  C   UNK A   1       2.880  -1.536  -4.520  0.00  0.00    +0.322 C 
ATOM     13  O   UNK A   1       2.215  -0.568  -4.205  0.00  0.00    -0.249 OA
BRANCH  12  14
ATOM     14  O   UNK A   1       3.349  -1.725  -5.783  0.00  0.00    -0.480 OA
ATOM     15  H   UNK A   1       3.642  -2.679  -5.794  0.00  0.00    +0.295 HD
ENDBRANCH  12  14
ENDBRANCH   8  12
ENDBRANCH   7   8
ENDBRANCH   6   7
ENDBRANCH   2   6
ENDBRANCH   1   3
BRANCH   1  16
ATOM     16  C   UNK A   1       6.027   0.265  -7.479  0.00  0.00    +0.235 C 
ATOM     17  N   GLY A   2       4.693  -0.081  -7.355  0.00  0.00    -0.303 N 
ATOM     18  H   GLY A   2       4.389  -0.434  -6.450  0.00  0.00    +0.149 HD
ATOM     19  O   UNK A   1       6.535   0.459  -8.584  0.00  0.00    -0.274 OA
BRANCH  17  20
ATOM     20  CA  GLY A   2       3.955  -0.464  -8.562  0.00  0.00    +0.224 C 
BRANCH  20  21
ATOM     21  C   GLY A   2       2.507  -0.974  -8.541  0.00  0.00    +0.322 C 
ATOM     22  OXT GLY A   2       1.990  -1.517  -9.510  0.00  0.00    -0.249 OA
BRANCH  21  23
ATOM     23  O   GLY A   2       1.790  -0.724  -7.430  0.00  0.00    -0.480 OA
ATOM     24  H   GLY A   2       2.338  -0.435  -6.669  0.00  0.00    +0.295 HD
ENDBRANCH  21  23
ENDBRANCH  20  21
ENDBRANCH  17  20
ENDBRANCH   1  16
BRANCH   1  25
ATOM     25  C   UNK A   1       6.591   1.987  -5.751  0.00  0.00    +0.105 C 
BRANCH  25  26
ATOM     26  S   UNK A   1       7.585   2.541  -4.310  0.00  0.00    -0.104 S 
BRANCH  26  27
ATOM     27  C   UNK A   1       6.750   4.150  -4.076  0.00  0.00    +0.299 C 
BRANCH  27  28
ATOM     28  O   UNK A   1       7.046   4.997  -5.166  0.00  0.00    -0.362 OA
ATOM     29  H   UNK A   1       7.672   5.615  -4.743  0.00  0.00    +0.213 HD
ENDBRANCH  27  28
BRANCH  27  30
ATOM     30  N   UNK A   1       7.231   4.818  -2.853  0.00  0.00    -0.217 N 
BRANCH  30  31
ATOM     31  C   UNK A   1       6.377   5.775  -2.248  0.00  0.00    +0.068 A 
ATOM     32  C   UNK A   1       6.922   6.885  -1.573  0.00  0.00    +0.029 A 
ATOM     33  C   UNK A   1       6.112   7.883  -1.012  0.00  0.00    +0.016 A 
ATOM     34  C   UNK A   1       4.730   7.777  -1.101  0.00  0.00    +0.014 A 
ATOM     35  I   UNK A   1       3.513   9.285  -0.358  0.00  0.00    -0.044 I 
ATOM     36  C   UNK A   1       4.160   6.660  -1.700  0.00  0.00    +0.016 A 
ATOM     37  C   UNK A   1       4.978   5.664  -2.251  0.00  0.00    +0.029 A 
ENDBRANCH  30  31
BRANCH  30  38
ATOM     38  O   UNK A   1       8.601   5.147  -2.948  0.00  0.00    -0.284 OA
ATOM     39  H   UNK A   1       9.038   4.291  -2.768  0.00  0.00    +0.245 HD
ENDBRANCH  30  38
ENDBRANCH  27  30
ENDBRANCH  26  27
ENDBRANCH  25  26
ENDBRANCH   1  25
TORSDOF 18
