REMARK  Name = 
REMARK  9 active torsions:
REMARK  status: ('A' for Active; 'I' for Inactive)
REMARK    1  A    between atoms: C_1  and  C_2
REMARK    2  A    between atoms: C_2  and  C_3
REMARK    3  A    between atoms: C_3  and  C_4
REMARK    4  A    between atoms: C_4  and  N_5
REMARK    5  A    between atoms: C_6  and  C_7
REMARK    6  A    between atoms: C_7  and  C_8
REMARK    7  A    between atoms: C_12  and  O_13
REMARK    8  A    between atoms: O_13  and  C_14
REMARK    9  A    between atoms: C_18  and  N_19
REMARK                            x       y       z     vdW  Elec       q    Type
REMARK                         _______ _______ _______ _____ _____    ______ ____
ROOT
ATOM      1  N   UNL     1       4.905   0.684  -2.733  0.00  0.00    -0.312 N 
ATOM      2  C   UNL     1       5.481   0.042  -3.801  0.00  0.00    +0.166 A 
ATOM      3  C   UNL     1       5.735   1.040  -4.722  0.00  0.00    +0.148 A 
ATOM      4  C   UNL     1       6.249   0.637  -5.966  0.00  0.00    +0.147 A 
ATOM      5  N   UNL     1       6.550  -0.669  -6.146  0.00  0.00    -0.219 NA
ATOM      6  C   UNL     1       6.290  -1.530  -5.138  0.00  0.00    +0.225 A 
ATOM      7  N   UNL     1       5.430   2.270  -4.197  0.00  0.00    -0.227 NA
ATOM      8  N   UNL     1       5.733  -1.270  -3.938  0.00  0.00    -0.216 NA
ATOM      9  C   UNL     1       4.938   2.045  -2.987  0.00  0.00    +0.116 A 
ENDROOT
BRANCH   4  10
ATOM     10  N   UNL     1       6.467   1.513  -7.019  0.00  0.00    -0.341 N 
ATOM     11  H   UNL     1       7.121   1.152  -7.699  0.00  0.00    +0.144 HD
ATOM     12  H   UNL     1       6.543   2.483  -6.738  0.00  0.00    +0.144 HD
ENDBRANCH   4  10
BRANCH   1  13
ATOM     13  C   UNL     1       4.351  -0.004  -1.580  0.00  0.00    +0.125 C 
BRANCH  13  14
ATOM     14  C   UNL     1       2.825   0.097  -1.521  0.00  0.00    +0.021 C 
BRANCH  14  16
ATOM     15  C   UNL     1       0.737  -0.616  -0.318  0.00  0.00    +0.004 C 
ATOM     16  C   UNL     1       2.247  -0.771  -0.405  0.00  0.00    -0.002 C 
ENDBRANCH  14  16
ENDBRANCH  13  14
ENDBRANCH   1  13
BRANCH   9  17
ATOM     17  C   UNL     1       4.582   3.121  -1.987  0.00  0.00    +0.109 C 
BRANCH  17  18
ATOM     18  C   UNL     1       3.581   4.185  -2.423  0.00  0.00    -0.037 A 
ATOM     19  C   UNL     1       2.852   4.888  -1.438  0.00  0.00    +0.049 A 
ATOM     20  C   UNL     1       2.039   5.976  -1.781  0.00  0.00    +0.120 A 
ATOM     21  C   UNL     1       1.966   6.385  -3.112  0.00  0.00    +0.045 A 
ATOM     22  C   UNL     1       2.662   5.697  -4.099  0.00  0.00    +0.004 A 
ATOM     23  C   UNL     1       3.460   4.605  -3.756  0.00  0.00    +0.004 A 
BRANCH  20  24
ATOM     24  O   UNL     1       1.291   6.735  -0.924  0.00  0.00    -0.495 OA
ATOM     25  C   UNL     1       1.184   6.292   0.421  0.00  0.00    +0.277 C 
ENDBRANCH  20  24
ENDBRANCH  17  18
ENDBRANCH   9  17
TORSDOF 7
