REMARK  Name = 
REMARK  11 active torsions:
REMARK  status: ('A' for Active; 'I' for Inactive)
REMARK    1  A    between atoms: C_1  and  O_2
REMARK    2  A    between atoms: O_2  and  C_3
REMARK    3  A    between atoms: C_5  and  C_6
REMARK    4  A    between atoms: C_6  and  C_7
REMARK    5  A    between atoms: C_10  and  N_11
REMARK    6  A    between atoms: N_17  and  C_18
REMARK    7  A    between atoms: C_18  and  C_19
REMARK    8  A    between atoms: C_19  and  C_20
REMARK    9  A    between atoms: C_20  and  C_21
REMARK   10  A    between atoms: C_23  and  O_24
REMARK   11  A    between atoms: O_24  and  C_25
REMARK                            x       y       z     vdW  Elec       q    Type
REMARK                         _______ _______ _______ _____ _____    ______ ____
ROOT
ATOM      1  C   UNL     1       5.260   0.270  -3.935  0.00  0.00    +0.116 A 
ATOM      2  N   UNL     1       6.477   0.707  -4.432  0.00  0.00    -0.312 N 
ATOM      3  C   UNL     1       6.454   2.077  -4.459  0.00  0.00    +0.168 A 
ATOM      4  C   UNL     1       5.210   2.432  -3.982  0.00  0.00    +0.148 A 
ATOM      5  C   UNL     1       4.944   3.811  -3.904  0.00  0.00    +0.150 A 
ATOM      6  N   UNL     1       5.919   4.681  -4.248  0.00  0.00    -0.185 NA
ATOM      7  C   UNL     1       7.093   4.191  -4.692  0.00  0.00    +0.313 A 
ATOM      8  F   UNL     1       8.039   5.094  -4.998  0.00  0.00    -0.161 F 
ATOM      9  N   UNL     1       7.443   2.900  -4.840  0.00  0.00    -0.182 NA
ATOM     10  N   UNL     1       4.480   1.308  -3.657  0.00  0.00    -0.227 NA
ENDROOT
BRANCH   5  11
ATOM     11  N   UNL     1       3.736   4.334  -3.465  0.00  0.00    -0.341 N 
ATOM     12  H   UNL     1       3.821   5.290  -3.143  0.00  0.00    +0.144 HD
ATOM     13  H   UNL     1       3.188   3.693  -2.905  0.00  0.00    +0.144 HD
ENDBRANCH   5  11
BRANCH   1  14
ATOM     14  C   UNL     1       4.886  -1.177  -3.708  0.00  0.00    +0.113 C 
BRANCH  14  19
ATOM     15  C   UNL     1       3.932  -2.129  -7.307  0.00  0.00    +0.121 A 
ATOM     16  C   UNL     1       3.670  -3.486  -7.171  0.00  0.00    +0.049 A 
ATOM     17  C   UNL     1       3.811  -4.103  -5.929  0.00  0.00    +0.049 A 
ATOM     18  C   UNL     1       4.221  -3.370  -4.809  0.00  0.00    +0.124 A 
ATOM     19  C   UNL     1       4.458  -1.981  -4.927  0.00  0.00    +0.005 A 
ATOM     20  C   UNL     1       4.276  -1.375  -6.184  0.00  0.00    +0.053 A 
BRANCH  15  22
ATOM     21  C   UNL     1       4.212  -2.207  -9.635  0.00  0.00    +0.277 C 
ATOM     22  O   UNL     1       3.855  -1.441  -8.486  0.00  0.00    -0.495 OA
ENDBRANCH  15  22
BRANCH  18  23
ATOM     23  O   UNL     1       4.420  -3.930  -3.569  0.00  0.00    -0.495 OA
ATOM     24  C   UNL     1       4.197  -5.334  -3.455  0.00  0.00    +0.277 C 
ENDBRANCH  18  23
ENDBRANCH  14  19
ENDBRANCH   1  14
BRANCH   2  25
ATOM     25  C   UNL     1       7.617  -0.079  -4.858  0.00  0.00    +0.126 C 
BRANCH  25  26
ATOM     26  C   UNL     1       8.885   0.169  -4.026  0.00  0.00    +0.034 C 
BRANCH  26  27
ATOM     27  C   UNL     1       8.692  -0.093  -2.533  0.00  0.00    +0.090 C 
BRANCH  27  28
ATOM     28  C   UNL     1       8.322  -1.555  -2.344  0.00  0.00    -0.106 C 
ATOM     29  C   UNL     1       8.005  -2.809  -2.181  0.00  0.00    +0.004 C 
ENDBRANCH  27  28
ENDBRANCH  26  27
ENDBRANCH  25  26
ENDBRANCH   2  25
TORSDOF 9
