REMARK  Name = 
REMARK  4 active torsions:
REMARK  status: ('A' for Active; 'I' for Inactive)
REMARK    1  A    between atoms: N_1  and  C_2
REMARK    2  A    between atoms: C_5  and  N_6
REMARK    3  A    between atoms: C_12  and  O_13
REMARK    4  A    between atoms: C_16  and  O_17
REMARK                            x       y       z     vdW  Elec       q    Type
REMARK                         _______ _______ _______ _____ _____    ______ ____
ROOT
ATOM      1  C   UNL     1       2.370   0.086  -0.062  0.00  0.00    +0.036 A 
ATOM      2  C   UNL     1       3.060  -1.150  -0.061  0.00  0.00    +0.056 A 
ATOM      3  C   UNL     1       2.303  -2.423  -0.031  0.00  0.00    +0.200 C 
ATOM      4  C   UNL     1       3.006  -3.717  -0.043  0.00  0.00    +0.078 A 
ATOM      5  C   UNL     1       4.401  -3.764  -0.048  0.00  0.00    +0.078 A 
ATOM      6  C   UNL     1       5.170  -2.493  -0.082  0.00  0.00    +0.200 C 
ATOM      7  O   UNL     1       6.391  -2.498  -0.208  0.00  0.00    -0.286 OA
ATOM      8  C   UNL     1       5.034  -5.023  -0.038  0.00  0.00    +0.129 A 
ATOM      9  C   UNL     1       4.289  -6.207  -0.036  0.00  0.00    +0.050 A 
ATOM     10  C   UNL     1       2.901  -6.150  -0.041  0.00  0.00    +0.050 A 
ATOM     11  C   UNL     1       2.265  -4.914  -0.041  0.00  0.00    +0.129 A 
ATOM     12  O   UNL     1       1.073  -2.431   0.045  0.00  0.00    -0.286 OA
ATOM     13  C   UNL     1       4.460  -1.184  -0.027  0.00  0.00    +0.056 A 
ATOM     14  C   UNL     1       5.194   0.027  -0.019  0.00  0.00    +0.036 A 
ATOM     15  C   UNL     1       4.501   1.241  -0.008  0.00  0.00    +0.025 A 
ATOM     16  C   UNL     1       3.111   1.270  -0.071  0.00  0.00    +0.025 A 
ENDROOT
BRANCH   1  17
ATOM     17  N   UNL     1       0.984   0.184  -0.280  0.00  0.00    -0.357 N 
ATOM     18  H   UNL     1       0.490  -0.685  -0.048  0.00  0.00    +0.142 HD
ATOM     19  H   UNL     1       0.543   1.001   0.130  0.00  0.00    +0.142 HD
ENDBRANCH   1  17
BRANCH  14  20
ATOM     20  N   UNL     1       6.584   0.072   0.199  0.00  0.00    -0.357 N 
ATOM     21  H   UNL     1       7.030  -0.829  -0.026  0.00  0.00    +0.142 HD
ATOM     22  H   UNL     1       7.060   0.852  -0.241  0.00  0.00    +0.142 HD
ENDBRANCH  14  20
BRANCH   8  23
ATOM     23  O   UNL     1       6.396  -5.128  -0.020  0.00  0.00    -0.506 OA
ATOM     24  H   UNL     1       6.671  -6.059  -0.039  0.00  0.00    +0.292 HD
ENDBRANCH   8  23
BRANCH  11  25
ATOM     25  O   UNL     1       0.896  -4.955  -0.039  0.00  0.00    -0.506 OA
ATOM     26  H   UNL     1       0.563  -4.029  -0.019  0.00  0.00    +0.292 HD
ENDBRANCH  11  25
TORSDOF 4
