REMARK  Name = 
REMARK  5 active torsions:
REMARK  status: ('A' for Active; 'I' for Inactive)
REMARK    1  A    between atoms: C_7  and  C_8
REMARK    2  A    between atoms: C_8  and  O_9
REMARK    3  A    between atoms: O_9  and  P_10
REMARK    4  A    between atoms: P_10  and  O_11
REMARK    5  A    between atoms: P_10  and  O_12
REMARK                            x       y       z     vdW  Elec       q    Type
REMARK                         _______ _______ _______ _____ _____    ______ ____
ROOT
ATOM      1  N   UNL     1       1.308   0.039  -0.211  0.00  0.00    -0.329 N 
ATOM      2  H   UNL     1       0.815  -0.745   0.193  0.00  0.00    +0.145 HD
ATOM      3  H   UNL     1       0.885   0.939  -0.001  0.00  0.00    +0.145 HD
ATOM      4  C   UNL     1       2.659   0.064  -0.142  0.00  0.00    +0.195 A 
ATOM      5  N   UNL     1       3.301  -1.140  -0.128  0.00  0.00    -0.293 N 
ATOM      6  H   UNL     1       2.775  -1.998  -0.193  0.00  0.00    +0.172 HD
ATOM      7  C   UNL     1       4.671  -1.283  -0.081  0.00  0.00    +0.280 A 
ATOM      8  O   UNL     1       5.193  -2.392  -0.074  0.00  0.00    -0.265 OA
ATOM      9  C   UNL     1       5.435  -0.018  -0.048  0.00  0.00    +0.172 A 
ATOM     10  C   UNL     1       4.691   1.152  -0.050  0.00  0.00    +0.187 A 
ATOM     11  N   UNL     1       5.297   2.358  -0.027  0.00  0.00    -0.232 NA
ATOM     12  C   UNL     1       6.656   2.337  -0.025  0.00  0.00    +0.138 A 
ATOM     13  C   UNL     1       7.404   1.163  -0.040  0.00  0.00    +0.086 A 
ATOM     14  N   UNL     1       6.798  -0.055  -0.026  0.00  0.00    -0.239 NA
ATOM     15  N   UNL     1       3.291   1.190  -0.094  0.00  0.00    -0.195 NA
ENDROOT
BRANCH  13  16
ATOM     16  C   UNL     1       8.910   1.224  -0.052  0.00  0.00    +0.229 C 
BRANCH  16  17
ATOM     17  O   UNL     1       9.381   0.226  -0.934  0.00  0.00    -0.280 OA
BRANCH  17  18
ATOM     18  P   UNL     1      10.868  -0.298  -0.730  0.00  0.00    +0.473 P 
ATOM     19  O   UNL     1      11.960   0.680  -0.975  0.00  0.00    -0.228 OA
BRANCH  18  20
ATOM     20  O   UNL     1      10.890  -1.578  -1.681  0.00  0.00    -0.303 OA
ATOM     21  H   UNL     1      10.710  -1.326  -2.605  0.00  0.00    +0.222 HD
ENDBRANCH  18  20
BRANCH  18  22
ATOM     22  O   UNL     1      10.825  -1.000   0.701  0.00  0.00    -0.303 OA
ATOM     23  H   UNL     1      10.270  -1.800   0.665  0.00  0.00    +0.222 HD
ENDBRANCH  18  22
ENDBRANCH  17  18
ENDBRANCH  16  17
ENDBRANCH  13  16
TORSDOF 5
