REMARK  Name = 
REMARK  5 active torsions:
REMARK  status: ('A' for Active; 'I' for Inactive)
REMARK    1  A    between atoms: C_1  and  C_2
REMARK    2  A    between atoms: C_5  and  O_7
REMARK    3  A    between atoms: C_8  and  O_10
REMARK    4  A    between atoms: C_11  and  O_13
REMARK    5  A    between atoms: C_14  and  N_16
REMARK                            x       y       z     vdW  Elec       q    Type
REMARK                         _______ _______ _______ _____ _____    ______ ____
ROOT
ATOM      1  C   UNL     1       3.066   0.217   1.505  0.00  0.00    +0.039 C 
ATOM      2  C   UNL     1       2.546   0.001   0.089  0.00  0.00    +0.138 C 
ATOM      3  C   UNL     1       3.028   1.096  -0.890  0.00  0.00    +0.111 C 
ATOM      4  C   UNL     1       2.562   0.753  -2.321  0.00  0.00    +0.167 C 
ATOM      5  C   UNL     1       2.950  -0.675  -2.700  0.00  0.00    +0.200 C 
ATOM      6  C   UNL     1       2.482  -1.645  -1.608  0.00  0.00    +0.279 C 
ATOM      7  O   UNL     1       3.003  -1.296  -0.337  0.00  0.00    -0.344 OA
ENDROOT
BRANCH   3   8
ATOM      8  N   UNL     1       2.564   2.448  -0.518  0.00  0.00    -0.323 NA
ATOM      9  H   UNL     1       2.920   3.087  -1.238  0.00  0.00    +0.119 HD
ATOM     10  H   UNL     1       1.550   2.504  -0.616  0.00  0.00    +0.119 HD
ENDBRANCH   3   8
BRANCH   4  11
ATOM     11  O   UNL     1       3.127   1.679  -3.260  0.00  0.00    -0.387 OA
ATOM     12  H   UNL     1       2.981   1.280  -4.139  0.00  0.00    +0.210 HD
ENDBRANCH   4  11
BRANCH   5  13
ATOM     13  O   UNL     1       2.337  -0.988  -3.963  0.00  0.00    -0.384 OA
ATOM     14  H   UNL     1       2.382  -1.964  -4.036  0.00  0.00    +0.210 HD
ENDBRANCH   5  13
BRANCH   6  15
ATOM     15  O   UNL     1       2.961  -2.943  -1.938  0.00  0.00    -0.365 OA
ATOM     16  H   UNL     1       2.825  -3.458  -1.125  0.00  0.00    +0.213 HD
ENDBRANCH   6  15
TORSDOF 4
