REMARK  Name = 
REMARK  16 active torsions:
REMARK  status: ('A' for Active; 'I' for Inactive)
REMARK    1  A    between atoms: C_1  and  C_2
REMARK    2  A    between atoms: C_2  and  C_3
REMARK    3  A    between atoms: C_3  and  O_4
REMARK    4  A    between atoms: C_3  and  C_5
REMARK    5  A    between atoms: C_3  and  C_7
REMARK    6  A    between atoms: C_5  and  C_6
REMARK    7  A    between atoms: C_7  and  C_8
REMARK    8  A    between atoms: C_8  and  C_9
REMARK    9  A    between atoms: C_9  and  O_10
REMARK   10  A    between atoms: O_10  and  C_11
REMARK   11  A    between atoms: C_11  and  C_13
REMARK   12  A    between atoms: C_11  and  C_14
REMARK   13  A    between atoms: C_24  and  C_25
REMARK   14  A    between atoms: C_26  and  C_27
REMARK   15  A    between atoms: C_30  and  O_32
REMARK   16  A    between atoms: C_34  and  O_36
REMARK                            x       y       z     vdW  Elec       q    Type
REMARK                         _______ _______ _______ _____ _____    ______ ____
ROOT
ATOM      1  C   UNL     1      -0.000  -0.000  -0.000  0.00  0.00    +0.024 C 
ATOM      2  C   UNL     1      -0.000  -0.000  -0.000  0.00  0.00    -0.020 C 
ATOM      3  C   UNL     1      -0.000  -0.000  -0.000  0.00  0.00    +0.012 C 
ATOM      4  C   UNL     1      -0.000  -0.000  -0.000  0.00  0.00    +0.021 C 
ATOM      5  C   UNL     1      -0.000  -0.000   0.000  0.00  0.00    -0.066 C 
ATOM      6  C   UNL     1      -0.000  -0.000  -0.000  0.00  0.00    -0.000 C 
ATOM      7  C   UNL     1      -0.000  -0.000  -0.000  0.00  0.00    +0.031 C 
ATOM      8  C   UNL     1      -0.000  -0.000   0.000  0.00  0.00    +0.005 C 
ATOM      9  C   UNL     1      -0.000  -0.000  -0.000  0.00  0.00    +0.009 C 
ATOM     10  C   UNL     1      -0.000  -0.000  -0.000  0.00  0.00    +0.008 C 
ATOM     11  C   UNL     1      -0.000  -0.000  -0.000  0.00  0.00    +0.007 C 
ENDROOT
BRANCH   6  12
ATOM     12  C   UNL     1      -0.000  -0.000  -0.000  0.00  0.00    +0.004 C 
ATOM     13  C   UNL     1      -0.000  -0.000  -0.000  0.00  0.00    -0.040 C 
ATOM     14  C   UNL     1      -0.000  -0.000  -0.000  0.00  0.00    -0.023 C 
ATOM     15  C   UNL     1      -0.000  -0.000  -0.000  0.00  0.00    +0.015 C 
ATOM     16  C   UNL     1      -0.000  -0.000  -0.000  0.00  0.00    +0.147 C 
ATOM     17  C   UNL     1      -0.000  -0.000  -0.000  0.00  0.00    +0.067 C 
ATOM     18  C   UNL     1      -0.000  -0.000  -0.000  0.00  0.00    +0.122 C 
ATOM     19  C   UNL     1      -0.000  -0.000  -0.000  0.00  0.00    +0.067 C 
BRANCH  16  20
ATOM     20  O   UNL     1      -0.000  -0.000   0.000  0.00  0.00    -0.387 OA
ATOM     21  H   UNL     1      -0.000  -0.000  -0.000  0.00  0.00    +0.210 HD
ENDBRANCH  16  20
BRANCH  18  22
ATOM     22  O   UNL     1      -0.000  -0.000  -0.000  0.00  0.00    -0.391 OA
ATOM     23  H   UNL     1      -0.000  -0.000  -0.000  0.00  0.00    +0.210 HD
ENDBRANCH  18  22
ENDBRANCH   6  12
BRANCH   1  24
ATOM     24  C   UNL     1      -0.000  -0.000   0.000  0.00  0.00    +0.119 C 
ATOM     25  C   UNL     1      -0.000  -0.000  -0.000  0.00  0.00    +0.038 C 
BRANCH  24  26
ATOM     26  O   UNL     1      -0.000  -0.000  -0.000  0.00  0.00    -0.377 OA
BRANCH  26  27
ATOM     27  C   UNL     1      -0.000  -0.000   0.000  0.00  0.00    +0.160 C 
BRANCH  27  28
ATOM     28  C   UNL     1      -0.000  -0.000   0.000  0.00  0.00    +0.031 C 
BRANCH  28  29
ATOM     29  C   UNL     1      -0.000  -0.000   0.000  0.00  0.00    +0.037 C 
BRANCH  29  30
ATOM     30  C   UNL     1      -0.000  -0.000   0.000  0.00  0.00    +0.066 C 
BRANCH  30  32
ATOM     31  C   UNL     1      -0.000  -0.000   0.000  0.00  0.00    +0.007 C 
ATOM     32  C   UNL     1      -0.000  -0.000   0.000  0.00  0.00    +0.031 C 
ENDBRANCH  30  32
BRANCH  30  33
ATOM     33  C   UNL     1      -0.000  -0.000   0.000  0.00  0.00    +0.031 C 
ATOM     34  C   UNL     1      -0.000  -0.000   0.000  0.00  0.00    +0.007 C 
ENDBRANCH  30  33
BRANCH  30  35
ATOM     35  O   UNL     1      -0.000  -0.000   0.000  0.00  0.00    -0.389 OA
ATOM     36  H   UNL     1      -0.000  -0.000   0.000  0.00  0.00    +0.210 HD
ENDBRANCH  30  35
ENDBRANCH  29  30
ENDBRANCH  28  29
ENDBRANCH  27  28
ENDBRANCH  26  27
ENDBRANCH  24  26
ENDBRANCH   1  24
TORSDOF 12
