REMARK  Name = 
REMARK  7 active torsions:
REMARK  status: ('A' for Active; 'I' for Inactive)
REMARK    1  A    between atoms: C_1  and  C_2
REMARK    2  A    between atoms: C_2  and  C_3
REMARK    3  A    between atoms: C_2  and  C_4
REMARK    4  A    between atoms: C_4  and  O_5
REMARK    5  A    between atoms: O_5  and  C_6
REMARK    6  A    between atoms: C_9  and  C_13
REMARK    7  A    between atoms: C_17  and  C_18
REMARK                            x       y       z     vdW  Elec       q    Type
REMARK                         _______ _______ _______ _____ _____    ______ ____
ROOT
ATOM      1  C   UNL     1       4.589  -6.237  -1.717  0.00  0.00    +0.139 A 
ATOM      2  N   UNL     1       3.373  -6.540  -1.143  0.00  0.00    -0.338 N 
ATOM      3  H   UNL     1       2.880  -5.844  -0.585  0.00  0.00    +0.167 HD
ATOM      4  C   UNL     1       2.984  -7.781  -1.576  0.00  0.00    +0.069 A 
ATOM      5  C   UNL     1       4.036  -8.192  -2.382  0.00  0.00    +0.090 A 
ATOM      6  C   UNL     1       3.975  -9.421  -3.050  0.00  0.00    +0.048 A 
ATOM      7  C   UNL     1       2.838 -10.227  -2.897  0.00  0.00    +0.098 A 
ATOM      8  C   UNL     1       1.813  -9.785  -2.043  0.00  0.00    +0.140 A 
ATOM      9  F   UNL     1       0.744 -10.577  -1.866  0.00  0.00    -0.205 F 
ATOM     10  C   UNL     1       1.848  -8.560  -1.365  0.00  0.00    +0.067 A 
ATOM     11  N   UNL     1       5.028  -7.265  -2.431  0.00  0.00    -0.228 NA
ENDROOT
BRANCH   1  16
ATOM     12  C   UNL     1       5.249  -2.538  -1.132  0.00  0.00    +0.114 A 
ATOM     13  C   UNL     1       6.490  -2.451  -1.805  0.00  0.00    +0.045 A 
ATOM     14  C   UNL     1       7.105  -3.564  -2.345  0.00  0.00    +0.004 A 
ATOM     15  C   UNL     1       6.468  -4.783  -2.249  0.00  0.00    +0.011 A 
ATOM     16  C   UNL     1       5.217  -4.905  -1.607  0.00  0.00    +0.013 A 
ATOM     17  C   UNL     1       4.564  -3.789  -0.969  0.00  0.00    -0.054 A 
ATOM     18  O   UNL     1       3.449  -3.913  -0.331  0.00  0.00    -0.871 OA
BRANCH  12  19
ATOM     19  O   UNL     1       4.633  -1.396  -0.617  0.00  0.00    -0.492 OA
BRANCH  19  20
ATOM     20  C   UNL     1       5.236  -0.154  -0.979  0.00  0.00    +0.232 C 
BRANCH  20  22
ATOM     21  C   UNL     1       4.397   1.013   1.100  0.00  0.00    +0.010 C 
ATOM     22  C   UNL     1       4.475   1.057  -0.425  0.00  0.00    +0.020 C 
ATOM     23  C   UNL     1       5.184   2.336  -0.884  0.00  0.00    +0.010 C 
ENDBRANCH  20  22
ENDBRANCH  19  20
ENDBRANCH  12  19
ENDBRANCH   1  16
BRANCH   7  24
ATOM     24  C   UNL     1       2.721 -11.504  -3.615  0.00  0.00    +0.269 C 
ATOM     25  N   UNL     1       2.044 -12.503  -3.096  0.00  0.00    -0.288 N 
ATOM     26  H   UNL     1       1.938 -13.400  -3.549  0.00  0.00    +0.301 HD
ATOM     27  H   UNL     1       1.572 -12.370  -2.204  0.00  0.00    +0.301 HD
ATOM     28  N   UNL     1       3.299 -11.651  -4.792  0.00  0.00    -0.250 N 
ATOM     29  H   UNL     1       3.258 -12.512  -5.318  0.00  0.00    +0.288 HD
ATOM     30  H   UNL     1       3.785 -10.872  -5.231  0.00  0.00    +0.288 HD
ENDBRANCH   7  24
TORSDOF 5
