REMARK  Name = 
REMARK  18 active torsions:
REMARK  status: ('A' for Active; 'I' for Inactive)
REMARK    1  A    between atoms: C_1  and  C_2
REMARK    2  A    between atoms: C_3  and  C_4
REMARK    3  A    between atoms: C_4  and  C_5
REMARK    4  A    between atoms: C_5  and  C_6
REMARK    5  A    between atoms: C_6  and  O_7
REMARK    6  A    between atoms: C_12  and  C_13
REMARK    7  A    between atoms: C_13  and  C_14
REMARK    8  A    between atoms: C_14  and  C_15
REMARK    9  A    between atoms: C_15  and  O_16
REMARK   10  A    between atoms: C_18  and  C_19
REMARK   11  A    between atoms: C_36  and  C_37
REMARK   12  A    between atoms: C_36  and  C_38
REMARK   13  A    between atoms: C_38  and  C_39
REMARK   14  A    between atoms: C_39  and  O_40
REMARK   15  A    between atoms: C_44  and  C_45
REMARK   16  A    between atoms: C_44  and  C_46
REMARK   17  A    between atoms: C_46  and  C_47
REMARK   18  A    between atoms: C_47  and  O_48
REMARK                            x       y       z     vdW  Elec       q    Type
REMARK                         _______ _______ _______ _____ _____    ______ ____
ROOT
ATOM      1  C   UNL     1       9.363 -11.401  -0.308  0.00  0.00    +0.000 C 
ATOM      2  C   UNL     1      10.889 -10.821  -0.684  0.00  0.00    +0.000 A 
ATOM      3  C   UNL     1      11.853  -9.410  -0.957  0.00  0.00    +0.000 A 
ATOM      4  N   UNL     1      13.128 -10.118  -1.142  0.00  0.00    +0.000 N 
ATOM      5 FE   UNL     1      15.684  -8.397  -1.037  0.00  0.00    +0.000 Fe
ATOM      6  N   UNL     1      16.486 -10.365  -0.974  0.00  0.00    +0.000 N 
ATOM      7  C   UNL     1      17.454 -10.191  -0.170  0.00  0.00    +0.000 A 
ATOM      8  C   UNL     1      17.306  -8.973   0.698  0.00  0.00    +0.000 C 
ATOM      9  C   UNL     1      16.035  -8.361   1.033  0.00  0.00    +0.000 C 
ATOM     10  C   UNL     1      14.435  -8.644   0.413  0.00  0.00    +0.000 C 
ATOM     11  C   UNL     1      14.094  -8.313  -1.801  0.00  0.00    +0.000 C 
ATOM     12  C   UNL     1      14.033  -7.485   1.297  0.00  0.00    +0.000 C 
ATOM     13  O   UNL     1      12.905  -6.997   1.393  0.00  0.00    +0.000 OA
ATOM     14  C   UNL     1      15.271  -6.720   1.253  0.00  0.00    +0.000 C 
ATOM     15  C   UNL     1      15.083  -5.286   1.149  0.00  0.00    +0.000 C 
ATOM     16  C   UNL     1      14.972  -4.918  -0.137  0.00  0.00    +0.000 C 
ATOM     17  C   UNL     1      14.263  -3.379  -0.299  0.00  0.00    +0.000 C 
ATOM     18  C   UNL     1      14.930  -1.705   0.017  0.00  0.00    +0.000 C 
ATOM     19  C   UNL     1      13.699  -4.195  -1.535  0.00  0.00    +0.000 C 
ATOM     20  O   UNL     1      14.519  -3.855  -2.428  0.00  0.00    +0.000 OA
ATOM     21  C   UNL     1      13.422  -5.907  -1.313  0.00  0.00    +0.000 C 
ATOM     22  C   UNL     1      18.296 -11.222  -0.196  0.00  0.00    +0.000 A 
ATOM     23  C   UNL     1      19.730 -10.876   0.063  0.00  0.00    +0.000 C 
ATOM     24  C   UNL     1      17.464 -12.366  -0.509  0.00  0.00    +0.000 A 
ATOM     25  C   UNL     1      16.161 -11.751  -0.957  0.00  0.00    +0.000 A 
ATOM     26  C   UNL     1      14.514 -12.325  -0.956  0.00  0.00    +0.000 C 
ATOM     27  N   UNL     1      14.730  -6.190  -1.136  0.00  0.00    +1.000 N 
ATOM     28  N   UNL     1      16.174  -7.372   0.506  0.00  0.00    +1.000 N 
ATOM     29  C   UNL     1      13.176 -11.577  -1.019  0.00  0.00    +0.000 A 
ATOM     30  C   UNL     1      11.915  -7.524  -1.058  0.00  0.00    +0.000 C 
ATOM     31  C   UNL     1      11.797 -12.134  -0.740  0.00  0.00    +0.000 A 
ENDROOT
BRANCH  10  32
ATOM     32  C   UNL     1      14.226  -9.988   0.936  0.00  0.00    +0.000 C 
BRANCH  32  33
ATOM     33  C   UNL     1      14.909 -10.689   1.995  0.00  0.00    +0.000 C 
ATOM     34  O   UNL     1      15.512 -11.758   1.859  0.00  0.00    +0.000 OA
BRANCH  33  35
ATOM     35  O   UNL     1      14.669 -10.142   3.157  0.00  0.00    +0.000 OA
ATOM     36  H   UNL     1      14.130  -9.332   3.101  0.00  0.00    +0.000 HD
ENDBRANCH  33  35
ENDBRANCH  32  33
ENDBRANCH  10  32
BRANCH  17  37
ATOM     37  C   UNL     1      12.883  -2.913   0.233  0.00  0.00    +0.000 C 
BRANCH  37  38
ATOM     38  C   UNL     1      12.239  -1.908  -0.803  0.00  0.00    +0.000 C 
ATOM     39  O   UNL     1      12.196  -2.203  -1.987  0.00  0.00    +0.000 OA
BRANCH  38  40
ATOM     40  O   UNL     1      11.822  -0.654  -0.500  0.00  0.00    +0.000 OA
ATOM     41  H   UNL     1      11.867  -0.220   0.357  0.00  0.00    +0.000 HD
ENDBRANCH  38  40
ENDBRANCH  37  38
ENDBRANCH  17  37
BRANCH  24  42
ATOM     42  C   UNL     1      18.044 -13.791  -0.213  0.00  0.00    +0.000 C 
BRANCH  42  43
ATOM     43  C   UNL     1      17.126 -15.012  -0.395  0.00  0.00    +0.000 C 
BRANCH  43  44
ATOM     44  C   UNL     1      17.865 -16.339  -0.232  0.00  0.00    +0.000 C 
ATOM     45  O   UNL     1      17.495 -17.140   0.613  0.00  0.00    +0.000 OA
BRANCH  44  46
ATOM     46  O   UNL     1      18.909 -16.675  -1.024  0.00  0.00    +0.000 OA
ATOM     47  H   UNL     1      19.251 -16.095  -1.717  0.00  0.00    +0.000 HD
ENDBRANCH  44  46
ENDBRANCH  43  44
ENDBRANCH  42  43
ENDBRANCH  24  42
BRANCH  31  48
ATOM     48  C   UNL     1      11.472 -13.891  -0.412  0.00  0.00    +0.000 C 
BRANCH  48  49
ATOM     49  C   UNL     1      10.543 -15.067  -1.146  0.00  0.00    +0.000 C 
BRANCH  49  50
ATOM     50  C   UNL     1      10.756 -15.467  -2.603  0.00  0.00    +0.000 C 
ATOM     51  O   UNL     1      10.021 -16.303  -3.121  0.00  0.00    +0.000 OA
BRANCH  50  52
ATOM     52  O   UNL     1      11.753 -14.954  -3.337  0.00  0.00    +0.000 OA
ATOM     53  H   UNL     1      12.386 -14.345  -2.948  0.00  0.00    +0.000 HD
ENDBRANCH  50  52
ENDBRANCH  49  50
ENDBRANCH  48  49
ENDBRANCH  31  48
TORSDOF 14
