REMARK  Name = 
REMARK  6 active torsions:
REMARK  status: ('A' for Active; 'I' for Inactive)
REMARK    1  A    between atoms: O_1  and  P_2
REMARK    2  A    between atoms: P_2  and  O_3
REMARK    3  A    between atoms: P_2  and  C_5
REMARK    4  A    between atoms: C_5  and  C_6
REMARK    5  A    between atoms: C_6  and  C_7
REMARK    6  A    between atoms: C_7  and  C_9
REMARK                            x       y       z     vdW  Elec       q    Type
REMARK                         _______ _______ _______ _____ _____    ______ ____
ROOT
ATOM      1  P   UNL     1       2.795  -0.056  -0.061  0.00  0.00    +0.328 P 
ATOM      2  O   UNL     1       2.816   1.464  -0.221  0.00  0.00    -0.259 OA
ENDROOT
BRANCH   1   3
ATOM      3  O   UNL     1       1.065  -0.055  -0.072  0.00  0.00    -0.324 OA
ATOM      4  H   UNL     1       0.726  -0.969  -0.098  0.00  0.00    +0.220 HD
ENDBRANCH   1   3
BRANCH   1   5
ATOM      5  O   UNL     1       2.734  -0.626  -1.590  0.00  0.00    -0.324 OA
ATOM      6  H   UNL     1       2.455   0.114  -2.169  0.00  0.00    +0.220 HD
ENDBRANCH   1   5
BRANCH   1   7
ATOM      7  C   UNL     1       4.625  -0.058  -0.049  0.00  0.00    +0.132 C 
BRANCH   7   8
ATOM      8  C   UNL     1       5.279  -1.428  -0.169  0.00  0.00    +0.050 C 
BRANCH   8   9
ATOM      9  C   UNL     1       6.792  -1.418  -0.156  0.00  0.00    -0.015 C 
ATOM     10  C   UNL     1       7.602  -0.352  -0.043  0.00  0.00    +0.015 C 
BRANCH   9  11
ATOM     11  C   UNL     1       7.457  -2.744  -0.298  0.00  0.00    +0.253 C 
ATOM     12  O   UNL     1       6.822  -3.788  -0.371  0.00  0.00    -0.296 OA
ENDBRANCH   9  11
ENDBRANCH   8   9
ENDBRANCH   7   8
ENDBRANCH   1   7
TORSDOF 6
