REMARK  Name = 
REMARK  14 active torsions:
REMARK  status: ('A' for Active; 'I' for Inactive)
REMARK    1  A    between atoms: N_8  and  C_9
REMARK    2  A    between atoms: C_12  and  C_14
REMARK    3  A    between atoms: C_14  and  O_15
REMARK    4  A    between atoms: O_15  and  P_16
REMARK    5  A    between atoms: P_16  and  O_17
REMARK    6  A    between atoms: P_16  and  O_19
REMARK    7  A    between atoms: O_19  and  P_20
REMARK    8  A    between atoms: P_20  and  O_21
REMARK    9  A    between atoms: P_20  and  C_23
REMARK   10  A    between atoms: C_23  and  P_24
REMARK   11  A    between atoms: P_24  and  O_25
REMARK   12  A    between atoms: P_24  and  O_26
REMARK   13  A    between atoms: C_28  and  O_30
REMARK   14  A    between atoms: C_31  and  O_33
REMARK                            x       y       z     vdW  Elec       q    Type
REMARK                         _______ _______ _______ _____ _____    ______ ____
ROOT
ATOM      1  C   UNL     1       5.159  -3.781  -0.048  0.00  0.00    +0.253 C 
ATOM      2  C   UNL     1       4.990  -4.154   1.428  0.00  0.00    +0.195 C 
ATOM      3  C   UNL     1       5.146  -5.681   1.459  0.00  0.00    +0.178 C 
ATOM      4  C   UNL     1       5.412  -6.111   0.006  0.00  0.00    +0.178 C 
ATOM      5  O   UNL     1       5.909  -4.907  -0.628  0.00  0.00    -0.346 OA
ENDROOT
BRANCH   1  17
ATOM      6  N   UNL     1       1.445  -0.225   1.539  0.00  0.00    -0.329 N 
ATOM      7  H   UNL     1       0.865   0.569   1.304  0.00  0.00    +0.145 HD
ATOM      8  H   UNL     1       2.276   0.024   2.064  0.00  0.00    +0.145 HD
ATOM      9  C   UNL     1       1.684  -1.139   0.562  0.00  0.00    +0.195 A 
ATOM     10  N   UNL     1       0.677  -1.284  -0.369  0.00  0.00    -0.293 N 
ATOM     11  H   UNL     1      -0.185  -0.777  -0.269  0.00  0.00    +0.172 HD
ATOM     12  C   UNL     1       0.726  -2.150  -1.444  0.00  0.00    +0.280 A 
ATOM     13  O   UNL     1      -0.204  -2.246  -2.242  0.00  0.00    -0.265 OA
ATOM     14  C   UNL     1       1.965  -2.894  -1.492  0.00  0.00    +0.172 A 
ATOM     15  N   UNL     1       2.397  -3.811  -2.410  0.00  0.00    -0.229 NA
ATOM     16  C   UNL     1       3.587  -4.163  -1.976  0.00  0.00    +0.203 A 
ATOM     17  N   UNL     1       3.919  -3.562  -0.785  0.00  0.00    -0.285 N 
ATOM     18  C   UNL     1       2.899  -2.684  -0.499  0.00  0.00    +0.171 A 
ATOM     19  N   UNL     1       2.807  -1.811   0.539  0.00  0.00    -0.196 NA
ENDBRANCH   1  17
BRANCH   2  20
ATOM     20  O   UNL     1       6.030  -3.553   2.233  0.00  0.00    -0.385 OA
ATOM     21  H   UNL     1       6.893  -3.740   1.826  0.00  0.00    +0.210 HD
ENDBRANCH   2  20
BRANCH   3  22
ATOM     22  O   UNL     1       3.957  -6.283   1.960  0.00  0.00    -0.386 OA
ATOM     23  H   UNL     1       4.086  -7.246   2.003  0.00  0.00    +0.210 HD
ENDBRANCH   3  22
BRANCH   4  24
ATOM     24  C   UNL     1       6.395  -7.320  -0.068  0.00  0.00    +0.206 C 
BRANCH  24  25
ATOM     25  O   UNL     1       6.368  -8.095  -1.286  0.00  0.00    -0.284 OA
BRANCH  25  26
ATOM     26  P   UNL     1       7.422  -9.342  -1.373  0.00  0.00    +0.482 P 
ATOM     27  O   UNL     1       7.565 -10.108  -0.099  0.00  0.00    -0.227 OA
BRANCH  26  28
ATOM     28  O   UNL     1       8.773  -8.575  -1.755  0.00  0.00    -0.302 OA
ATOM     29  H   UNL     1       9.393  -8.541  -1.005  0.00  0.00    +0.222 HD
ENDBRANCH  26  28
BRANCH  26  30
ATOM     30  O   UNL     1       7.072 -10.235  -2.655  0.00  0.00    -0.208 OA
BRANCH  30  31
ATOM     31  P   UNL     1       7.712 -11.767  -3.140  0.00  0.00    +0.350 P 
ATOM     32  O   UNL     1       9.055 -11.136  -3.515  0.00  0.00    -0.258 OA
BRANCH  31  33
ATOM     33  O   UNL     1       6.810 -11.675  -4.521  0.00  0.00    -0.323 OA
ATOM     34  H   UNL     1       6.972 -10.791  -4.920  0.00  0.00    +0.220 HD
ENDBRANCH  31  33
BRANCH  31  35
ATOM     35  C   UNL     1       8.389 -13.388  -3.653  0.00  0.00    +0.254 C 
BRANCH  35  36
ATOM     36  P   UNL     1       7.170 -14.693  -3.817  0.00  0.00    +0.339 P 
ATOM     37  O   UNL     1       6.420 -14.922  -2.550  0.00  0.00    -0.258 OA
BRANCH  36  38
ATOM     38  O   UNL     1       8.017 -15.935  -4.373  0.00  0.00    -0.324 OA
ATOM     39  H   UNL     1       8.913 -15.765  -4.712  0.00  0.00    +0.220 HD
ENDBRANCH  36  38
BRANCH  36  40
ATOM     40  O   UNL     1       6.309 -14.264  -5.098  0.00  0.00    -0.324 OA
ATOM     41  H   UNL     1       6.345 -13.306  -5.321  0.00  0.00    +0.220 HD
ENDBRANCH  36  40
ENDBRANCH  35  36
ENDBRANCH  31  35
ENDBRANCH  30  31
ENDBRANCH  26  30
ENDBRANCH  25  26
ENDBRANCH  24  25
ENDBRANCH   4  24
TORSDOF 14
