REMARK  Name = 
REMARK  6 active torsions:
REMARK  status: ('A' for Active; 'I' for Inactive)
REMARK    1  A    between atoms: N_1  and  CA_2
REMARK    2  A    between atoms: CA_2  and  C_4
REMARK    3  A    between atoms: CA_2  and  C_14
REMARK    4  A    between atoms: C_4  and  N_5
REMARK    5  A    between atoms: C_6  and  C_8
REMARK    6  A    between atoms: C_14  and  O_15
REMARK                            x       y       z     vdW  Elec       q    Type
REMARK                         _______ _______ _______ _____ _____    ______ ____
ROOT
ATOM      1  N   UNL     1       2.437  -2.468   0.284  0.00  0.00    -0.309 N 
ATOM      2  H   UNL     1       1.910  -2.262   1.127  0.00  0.00    +0.149 HD
ATOM      3  C   UNL     1       2.812  -3.764   0.012  0.00  0.00    +0.244 C 
ATOM      4  O   UNL     1       3.637  -4.050  -0.847  0.00  0.00    -0.270 OA
ENDROOT
BRANCH   3   5
ATOM      5  C   UNL     1       2.216  -4.815   0.882  0.00  0.00    +0.037 A 
ATOM      6  C   UNL     1       2.951  -5.984   1.113  0.00  0.00    +0.013 A 
ATOM      7  C   UNL     1       2.435  -6.981   1.942  0.00  0.00    +0.001 A 
ATOM      8  C   UNL     1       1.182  -6.819   2.532  0.00  0.00    +0.000 A 
ATOM      9  C   UNL     1       0.436  -5.667   2.286  0.00  0.00    +0.001 A 
ATOM     10  C   UNL     1       0.948  -4.665   1.459  0.00  0.00    +0.013 A 
ENDBRANCH   3   5
BRANCH   1  11
ATOM     11  C   UNL     1       2.912  -1.333  -0.493  0.00  0.00    +0.134 C 
BRANCH  11  12
ATOM     12  CA  UNL     1       4.225  -0.722   0.026  0.00  0.00    +0.178 C 
BRANCH  12  13
ATOM     13  N   UNL     1       5.371  -1.683   0.091  0.00  0.00    -0.317 NA
ATOM     14  H1  UNL     1       4.998  -2.563   0.475  0.00  0.00    +0.119 HD
ATOM     15  H2  UNL     1       5.573  -1.971  -0.875  0.00  0.00    +0.119 HD
ENDBRANCH  12  13
BRANCH  12  16
ATOM     16  C   UNL     1       4.023  -0.124   1.424  0.00  0.00    +0.323 C 
ATOM     17  OXT UNL     1       2.999   0.397   1.837  0.00  0.00    -0.249 OA
BRANCH  16  18
ATOM     18  O   UNL     1       5.159  -0.230   2.165  0.00  0.00    -0.479 OA
ATOM     19  H   UNL     1       5.797  -0.741   1.604  0.00  0.00    +0.295 HD
ENDBRANCH  16  18
ENDBRANCH  12  16
ENDBRANCH  11  12
ENDBRANCH   1  11
TORSDOF 6
