REMARK  Name = 
REMARK  10 active torsions:
REMARK  status: ('A' for Active; 'I' for Inactive)
REMARK    1  A    between atoms: O_1  and  C_2
REMARK    2  A    between atoms: C_2  and  C_4
REMARK    3  A    between atoms: C_2  and  C_10
REMARK    4  A    between atoms: C_4  and  O_5
REMARK    5  A    between atoms: O_5  and  P_6
REMARK    6  A    between atoms: P_6  and  O_7
REMARK    7  A    between atoms: P_6  and  O_8
REMARK    8  A    between atoms: C_10  and  O_12
REMARK    9  A    between atoms: C_10  and  C_13
REMARK   10  A    between atoms: C_13  and  O_14
REMARK                            x       y       z     vdW  Elec       q    Type
REMARK                         _______ _______ _______ _____ _____    ______ ____
ROOT
ATOM      1  C   UNL     1       2.472  -0.051  -0.080  0.00  0.00    +0.180 C 
ENDROOT
BRANCH   1   2
ATOM      2  O   UNL     1       1.040  -0.097  -0.140  0.00  0.00    -0.386 OA
ATOM      3  H   UNL     1       0.716   0.253   0.707  0.00  0.00    +0.210 HD
ENDBRANCH   1   2
BRANCH   1   4
ATOM      4  C   UNL     1       3.085  -0.539  -1.405  0.00  0.00    +0.253 C 
BRANCH   4   5
ATOM      5  C   UNL     1       2.808   0.476  -2.505  0.00  0.00    +0.336 C 
ATOM      6  O   UNL     1       3.177   1.644  -2.483  0.00  0.00    -0.248 OA
BRANCH   5   7
ATOM      7  O   UNL     1       2.126  -0.081  -3.541  0.00  0.00    -0.479 OA
ATOM      8  H   UNL     1       1.936  -1.019  -3.287  0.00  0.00    +0.295 HD
ENDBRANCH   5   7
ENDBRANCH   4   5
BRANCH   4   9
ATOM      9  O   UNL     1       2.573  -1.819  -1.834  0.00  0.00    -0.378 OA
ATOM     10  H   UNL     1       2.817  -2.483  -1.168  0.00  0.00    +0.211 HD
ENDBRANCH   4   9
ENDBRANCH   1   4
BRANCH   1  11
ATOM     11  C   UNL     1       2.925  -0.932   1.083  0.00  0.00    +0.206 C 
BRANCH  11  12
ATOM     12  O   UNL     1       2.409  -0.427   2.318  0.00  0.00    -0.284 OA
BRANCH  12  13
ATOM     13  P   UNL     1       2.889  -1.455   3.624  0.00  0.00    +0.472 P 
ATOM     14  O   UNL     1       3.319  -2.376   4.793  0.00  0.00    -0.228 OA
BRANCH  13  15
ATOM     15  O   UNL     1       1.362  -2.025   3.499  0.00  0.00    -0.303 OA
ATOM     16  H   UNL     1       0.786  -1.353   3.909  0.00  0.00    +0.222 HD
ENDBRANCH  13  15
BRANCH  13  17
ATOM     17  O   UNL     1       2.476  -0.190   4.578  0.00  0.00    -0.303 OA
ATOM     18  H   UNL     1       3.207   0.447   4.660  0.00  0.00    +0.222 HD
ENDBRANCH  13  17
ENDBRANCH  12  13
ENDBRANCH  11  12
ENDBRANCH   1  11
TORSDOF 10
