REMARK  Name = 
REMARK  1 active torsions:
REMARK  status: ('A' for Active; 'I' for Inactive)
REMARK    1  A    between atoms: O_1  and  C_2
REMARK                            x       y       z     vdW  Elec       q    Type
REMARK                         _______ _______ _______ _____ _____    ______ ____
ROOT
ATOM      1  C   UNL     1       2.386  -0.149   0.065  0.00  0.00    +0.244 A 
ATOM      2  C   UNL     1       3.079  -1.325   0.065  0.00  0.00    +0.170 A 
ATOM      3  N   UNL     1       2.662  -2.659   0.065  0.00  0.00    -0.147 NA
ATOM      4  N   UNL     1       3.705  -3.391   0.064  0.00  0.00    -0.181 NA
ATOM      5  C   UNL     1       4.958  -2.573   0.064  0.00  0.00    +0.223 C 
ATOM      6  C   UNL     1       4.436  -1.181   0.064  0.00  0.00    +0.098 A 
ATOM      7  N   UNL     1       5.118  -0.024   0.064  0.00  0.00    -0.236 NA
ATOM      8  C   UNL     1       4.321   1.061   0.064  0.00  0.00    +0.225 A 
ATOM      9  N   UNL     1       2.968   1.066   0.065  0.00  0.00    -0.200 NA
ENDROOT
BRANCH   1  10
ATOM     10  O   UNL     1       1.030  -0.107   0.065  0.00  0.00    -0.491 OA
ATOM     11  H   UNL     1       0.873   0.853   0.065  0.00  0.00    +0.294 HD
ENDBRANCH   1  10
TORSDOF 1
