REMARK  Name = 
REMARK  8 active torsions:
REMARK  status: ('A' for Active; 'I' for Inactive)
REMARK    1  A    between atoms: N_10  and  C_11
REMARK    2  A    between atoms: C_14  and  C_16
REMARK    3  A    between atoms: C_16  and  O_17
REMARK    4  A    between atoms: O_17  and  P_18
REMARK    5  A    between atoms: P_18  and  S_19
REMARK    6  A    between atoms: P_18  and  S_20
REMARK    7  A    between atoms: C_22  and  O_24
REMARK    8  A    between atoms: C_25  and  O_27
REMARK                            x       y       z     vdW  Elec       q    Type
REMARK                         _______ _______ _______ _____ _____    ______ ____
ROOT
ATOM      1  C   UNL     1       6.456  -3.068  -0.124  0.00  0.00    +0.253 C 
ATOM      2  C   UNL     1       6.507  -4.488   0.457  0.00  0.00    +0.195 C 
ATOM      3  C   UNL     1       7.849  -4.560   1.191  0.00  0.00    +0.178 C 
ATOM      4  C   UNL     1       8.364  -3.117   1.185  0.00  0.00    +0.178 C 
ATOM      5  O   UNL     1       7.238  -2.290   0.833  0.00  0.00    -0.346 OA
ENDROOT
BRANCH   1  13
ATOM      6  N   UNL     1       8.184  -2.998  -5.942  0.00  0.00    -0.341 N 
ATOM      7  H   UNL     1       8.233  -1.987  -5.890  0.00  0.00    +0.144 HD
ATOM      8  H   UNL     1       7.857  -3.411  -6.806  0.00  0.00    +0.144 HD
ATOM      9  C   UNL     1       7.595  -3.582  -4.827  0.00  0.00    +0.147 A 
ATOM     10  C   UNL     1       7.507  -2.944  -3.578  0.00  0.00    +0.147 A 
ATOM     11  N   UNL     1       7.901  -1.696  -3.147  0.00  0.00    -0.231 NA
ATOM     12  C   UNL     1       7.543  -1.652  -1.883  0.00  0.00    +0.203 A 
ATOM     13  N   UNL     1       6.978  -2.832  -1.457  0.00  0.00    -0.286 N 
ATOM     14  C   UNL     1       6.893  -3.650  -2.553  0.00  0.00    +0.167 A 
ATOM     15  N   UNL     1       6.342  -4.869  -2.641  0.00  0.00    -0.216 NA
ATOM     16  C   UNL     1       6.484  -5.381  -3.882  0.00  0.00    +0.225 A 
ATOM     17  N   UNL     1       7.060  -4.815  -4.962  0.00  0.00    -0.219 NA
ENDBRANCH   1  13
BRANCH   2  18
ATOM     18  O   UNL     1       5.445  -4.654   1.426  0.00  0.00    -0.385 OA
ATOM     19  H   UNL     1       5.418  -3.866   1.997  0.00  0.00    +0.210 HD
ENDBRANCH   2  18
BRANCH   3  20
ATOM     20  O   UNL     1       8.750  -5.417   0.500  0.00  0.00    -0.386 OA
ATOM     21  H   UNL     1       9.551  -5.519   1.047  0.00  0.00    +0.210 HD
ENDBRANCH   3  20
BRANCH   4  22
ATOM     22  C   UNL     1       8.978  -2.663   2.513  0.00  0.00    +0.203 C 
BRANCH  22  23
ATOM     23  O   UNL     1      10.088  -3.490   2.840  0.00  0.00    -0.310 OA
BRANCH  23  24
ATOM     24  P   UNL     1      10.925  -3.078   4.297  0.00  0.00    +0.309 P 
ATOM     25  O   UNL     1      11.674  -2.709   5.601  0.00  0.00    -0.267 OA
BRANCH  24  26
ATOM     26  S   UNL     1      12.484  -2.126   3.110  0.00  0.00    -0.077 S 
ATOM     27  H   UNL     1      12.060  -2.666   1.962  0.00  0.00    +0.112 HD
ENDBRANCH  24  26
BRANCH  24  28
ATOM     28  S   UNL     1      11.534  -5.158   4.492  0.00  0.00    -0.077 S 
ATOM     29  H   UNL     1      10.324  -5.588   4.866  0.00  0.00    +0.112 HD
ENDBRANCH  24  28
ENDBRANCH  23  24
ENDBRANCH  22  23
ENDBRANCH   4  22
TORSDOF 8
