REMARK  Name = 
REMARK  1 active torsions:
REMARK  status: ('A' for Active; 'I' for Inactive)
REMARK    1  A    between atoms: O_1  and  C_2
REMARK                            x       y       z     vdW  Elec       q    Type
REMARK                         _______ _______ _______ _____ _____    ______ ____
ROOT
ATOM      1  C   UNL     1       2.366   0.018  -0.046  0.00  0.00    +0.115 C 
ATOM      2  C   UNL     1       2.835   1.053  -1.069  0.00  0.00    +0.031 C 
ATOM      3  C   UNL     1       2.440   0.672  -2.497  0.00  0.00    +0.002 C 
ATOM      4  C   UNL     1       2.914  -0.733  -2.857  0.00  0.00    +0.000 C 
ATOM      5  C   UNL     1       2.431  -1.769  -1.846  0.00  0.00    +0.002 C 
ATOM      6  C   UNL     1       2.830  -1.391  -0.419  0.00  0.00    +0.031 C 
ENDROOT
BRANCH   1   7
ATOM      7  O   UNL     1       0.942   0.055   0.022  0.00  0.00    -0.392 OA
ATOM      8  H   UNL     1       0.662  -0.611   0.673  0.00  0.00    +0.210 HD
ENDBRANCH   1   7
TORSDOF 1
