REMARK  Name = 
REMARK  9 active torsions:
REMARK  status: ('A' for Active; 'I' for Inactive)
REMARK    1  A    between atoms: O_1  and  C_2
REMARK    2  A    between atoms: C_2  and  C_3
REMARK    3  A    between atoms: C_3  and  O_5
REMARK    4  A    between atoms: C_3  and  C_6
REMARK    5  A    between atoms: C_9  and  O_10
REMARK    6  A    between atoms: C_9  and  C_18
REMARK    7  A    between atoms: C_12  and  O_14
REMARK    8  A    between atoms: C_15  and  O_17
REMARK    9  A    between atoms: C_18  and  O_19
REMARK                            x       y       z     vdW  Elec       q    Type
REMARK                         _______ _______ _______ _____ _____    ______ ____
ROOT
ATOM      1  C   UNL     1       4.550   0.743  -1.270  0.00  0.00    +0.184 C 
ATOM      2  C   UNL     1       5.068  -0.618  -0.765  0.00  0.00    +0.174 C 
ATOM      3  C   UNL     1       4.683  -0.856   0.710  0.00  0.00    +0.151 C 
ATOM      4  C   UNL     1       4.997   0.355   1.574  0.00  0.00    +0.111 C 
ATOM      5  C   UNL     1       4.416   1.626   0.964  0.00  0.00    +0.270 C 
ATOM      6  O   UNL     1       4.896   1.800  -0.348  0.00  0.00    -0.331 OA
ENDROOT
BRANCH   2   7
ATOM      7  O   UNL     1       4.554  -1.679  -1.577  0.00  0.00    -0.387 OA
ATOM      8  H   UNL     1       3.639  -1.865  -1.301  0.00  0.00    +0.210 HD
ENDBRANCH   2   7
BRANCH   3   9
ATOM      9  O   UNL     1       5.405  -1.980   1.223  0.00  0.00    -0.389 OA
ATOM     10  H   UNL     1       4.933  -2.304   2.011  0.00  0.00    +0.210 HD
ENDBRANCH   3   9
BRANCH   5  11
ATOM     11  O   UNL     1       4.881   2.765   1.718  0.00  0.00    -0.356 OA
ATOM     12  H   UNL     1       5.818   2.595   1.919  0.00  0.00    +0.213 HD
ENDBRANCH   5  11
BRANCH   5  13
ATOM     13  C   UNL     1       2.859   1.678   1.127  0.00  0.00    +0.365 C 
ATOM     14  O   UNL     1       2.100   0.736   0.949  0.00  0.00    -0.245 OA
BRANCH  13  15
ATOM     15  O   UNL     1       2.429   2.914   1.502  0.00  0.00    -0.477 OA
ATOM     16  H   UNL     1       3.235   3.477   1.601  0.00  0.00    +0.295 HD
ENDBRANCH  13  15
ENDBRANCH   5  13
BRANCH   1  17
ATOM     17  C   UNL     1       5.148   1.142  -2.643  0.00  0.00    +0.171 C 
BRANCH  17  18
ATOM     18  O   UNL     1       4.483   2.338  -3.104  0.00  0.00    -0.387 OA
ATOM     19  H   UNL     1       4.810   2.463  -4.019  0.00  0.00    +0.210 HD
ENDBRANCH  17  18
BRANCH  17  20
ATOM     20  C   UNL     1       5.029   0.102  -3.760  0.00  0.00    +0.189 C 
BRANCH  20  21
ATOM     21  O   UNL     1       5.562   0.674  -4.963  0.00  0.00    -0.392 OA
ATOM     22  H   UNL     1       5.572  -0.040  -5.626  0.00  0.00    +0.210 HD
ENDBRANCH  20  21
ENDBRANCH  17  20
ENDBRANCH   1  17
TORSDOF 9
