REMARK  Name = 
REMARK  9 active torsions:
REMARK  status: ('A' for Active; 'I' for Inactive)
REMARK    1  A    between atoms: N_1  and  C_2
REMARK    2  A    between atoms: C_2  and  C_4
REMARK    3  A    between atoms: C_2  and  C_12
REMARK    4  A    between atoms: C_4  and  C_5
REMARK    5  A    between atoms: C_5  and  C_6
REMARK    6  A    between atoms: C_6  and  C_7
REMARK    7  A    between atoms: C_7  and  N_8
REMARK    8  A    between atoms: C_9  and  O_10
REMARK    9  A    between atoms: C_12  and  O_13
REMARK                            x       y       z     vdW  Elec       q    Type
REMARK                         _______ _______ _______ _____ _____    ______ ____
ROOT
ATOM      1  C   UNK     1       2.884   0.235   1.382  0.00  0.00    +0.030 C 
ENDROOT
BRANCH   1   2
ATOM      2  C   UNK     1       2.377  -0.028  -0.042  0.00  0.00    +0.161 C 
BRANCH   2   3
ATOM      3  N   UNK     1       0.885  -0.083  -0.106  0.00  0.00    -0.318 NA
ATOM      4  H   UNK     1       0.536  -0.446   0.789  0.00  0.00    +0.119 HD
ATOM      5  H   UNK     1       0.539   0.882  -0.131  0.00  0.00    +0.119 HD
ENDBRANCH   2   3
BRANCH   2   6
ATOM      6  C   UNK     1       2.932  -1.368  -0.564  0.00  0.00    +0.322 C 
ATOM      7  O   UNK     1       4.108  -1.696  -0.559  0.00  0.00    -0.249 OA
BRANCH   6   8
ATOM      8  O   UNK     1       1.938  -2.152  -1.057  0.00  0.00    -0.480 OA
ATOM      9  H   UNK     1       1.109  -1.618  -0.958  0.00  0.00    +0.295 HD
ENDBRANCH   6   8
ENDBRANCH   2   6
ENDBRANCH   1   2
BRANCH   1  10
ATOM     10  C   UNK     1       2.416   1.577   1.952  0.00  0.00    +0.004 C 
BRANCH  10  11
ATOM     11  C   UNK     1       2.933   1.802   3.375  0.00  0.00    +0.019 C 
BRANCH  11  12
ATOM     12  C   UNK     1       2.450   3.143   3.925  0.00  0.00    +0.107 C 
BRANCH  12  13
ATOM     13  N   UNK     1       2.977   3.409   5.247  0.00  0.00    -0.281 N 
ATOM     14  H   UNK     1       3.892   3.827   5.306  0.00  0.00    +0.152 HD
ATOM     15  C   UNK     1       2.312   3.003   6.366  0.00  0.00    +0.398 C 
ATOM     16  O   UNK     1       1.250   2.406   6.383  0.00  0.00    -0.227 OA
BRANCH  15  17
ATOM     17  O   UNK     1       2.972   3.348   7.481  0.00  0.00    -0.466 OA
ATOM     18  H   UNK     1       3.778   3.851   7.289  0.00  0.00    +0.297 HD
ENDBRANCH  15  17
ENDBRANCH  12  13
ENDBRANCH  11  12
ENDBRANCH  10  11
ENDBRANCH   1  10
TORSDOF 9
