REMARK  Name = 
REMARK  19 active torsions:
REMARK  status: ('A' for Active; 'I' for Inactive)
REMARK    1  A    between atoms: C_1  and  C_2
REMARK    2  A    between atoms: C_2  and  N_4
REMARK    3  A    between atoms: C_2  and  C_20
REMARK    4  A    between atoms: N_4  and  C_5
REMARK    5  A    between atoms: C_5  and  C_6
REMARK    6  A    between atoms: C_7  and  O_8
REMARK    7  A    between atoms: C_9  and  C_10
REMARK    8  A    between atoms: C_13  and  C_14
REMARK    9  A    between atoms: C_14  and  O_15
REMARK   10  A    between atoms: O_15  and  P_16
REMARK   11  A    between atoms: P_16  and  O_17
REMARK   12  A    between atoms: P_16  and  O_18
REMARK   13  A    between atoms: C_20  and  C_22
REMARK   14  A    between atoms: C_22  and  C_23
REMARK   15  A    between atoms: C_23  and  C_24
REMARK   16  A    between atoms: C_24  and  C_25
REMARK   17  A    between atoms: C_25  and  C_26
REMARK   18  A    between atoms: C_26  and  C_27
REMARK   19  A    between atoms: C_27  and  O_28
REMARK                            x       y       z     vdW  Elec       q    Type
REMARK                         _______ _______ _______ _____ _____    ______ ____
ROOT
ATOM      1  C   UNL     1       3.041   3.413  -0.212  0.00  0.00    +0.016 A 
ATOM      2  C   UNL     1       3.162   4.632  -0.938  0.00  0.00    +0.005 A 
ATOM      3  C   UNL     1       3.878   5.677  -0.344  0.00  0.00    +0.117 A 
ATOM      4  N   UNL     1       4.474   5.624   0.860  0.00  0.00    -0.256 NA
ATOM      5  C   UNL     1       4.352   4.474   1.559  0.00  0.00    +0.080 A 
ATOM      6  C   UNL     1       5.084   4.453   2.867  0.00  0.00    +0.069 C 
ATOM      7  C   UNL     1       3.635   3.375   1.072  0.00  0.00    +0.142 A 
ENDROOT
BRANCH   7   8
ATOM      8  O   UNL     1       3.538   2.267   1.875  0.00  0.00    -0.505 OA
ATOM      9  H   UNL     1       3.075   1.577   1.353  0.00  0.00    +0.292 HD
ENDBRANCH   7   8
BRANCH   1  10
ATOM     10  C   UNL     1       2.239   2.217  -0.751  0.00  0.00    +0.121 C 
BRANCH  10  11
ATOM     11  N   UNL     1       2.710   0.915  -0.202  0.00  0.00    -0.303 NA
ATOM     12  H   UNL     1       3.685   0.825  -0.507  0.00  0.00    +0.123 HD
BRANCH  11  14
ATOM     13  C   UNL     1       2.103  -0.483  -2.221  0.00  0.00    +0.032 C 
ATOM     14  C   UNL     1       2.004  -0.295  -0.708  0.00  0.00    +0.118 C 
BRANCH  14  15
ATOM     15  C   UNL     1       0.535  -0.366  -0.253  0.00  0.00    +0.150 C 
ATOM     16  O   UNL     1      -0.347   0.275  -0.831  0.00  0.00    -0.296 OA
BRANCH  15  17
ATOM     17  C   UNL     1       0.175  -1.315   0.888  0.00  0.00    +0.076 C 
BRANCH  17  18
ATOM     18  C   UNL     1       0.726  -0.919   2.256  0.00  0.00    +0.008 C 
BRANCH  18  19
ATOM     19  C   UNL     1       0.283   0.455   2.766  0.00  0.00    +0.001 C 
BRANCH  19  20
ATOM     20  C   UNL     1      -1.225   0.658   2.944  0.00  0.00    +0.011 C 
BRANCH  20  21
ATOM     21  C   UNL     1      -1.861  -0.251   3.997  0.00  0.00    +0.120 C 
BRANCH  21  22
ATOM     22  C   UNL     1      -3.332   0.059   4.183  0.00  0.00    +0.305 C 
ATOM     23  O   UNL     1      -3.961   0.907   3.580  0.00  0.00    -0.251 OA
BRANCH  22  24
ATOM     24  O   UNL     1      -3.909  -0.735   5.120  0.00  0.00    -0.481 OA
ATOM     25  H   UNL     1      -3.288  -1.371   5.531  0.00  0.00    +0.295 HD
ENDBRANCH  22  24
ENDBRANCH  21  22
ENDBRANCH  20  21
ENDBRANCH  19  20
ENDBRANCH  18  19
ENDBRANCH  17  18
ENDBRANCH  15  17
ENDBRANCH  14  15
ENDBRANCH  11  14
ENDBRANCH  10  11
ENDBRANCH   1  10
BRANCH   2  26
ATOM     26  C   UNL     1       2.634   4.918  -2.327  0.00  0.00    +0.209 C 
BRANCH  26  27
ATOM     27  O   UNL     1       1.336   4.407  -2.443  0.00  0.00    -0.282 OA
BRANCH  27  28
ATOM     28  P   UNL     1       0.508   4.670  -3.939  0.00  0.00    +0.473 P 
ATOM     29  O   UNL     1      -0.233   4.905  -5.278  0.00  0.00    -0.228 OA
BRANCH  28  30
ATOM     30  O   UNL     1       1.302   3.349  -4.489  0.00  0.00    -0.303 OA
ATOM     31  H   UNL     1       0.639   2.837  -4.994  0.00  0.00    +0.222 HD
ENDBRANCH  28  30
BRANCH  28  32
ATOM     32  O   UNL     1      -0.690   3.826  -3.219  0.00  0.00    -0.303 OA
ATOM     33  H   UNL     1      -0.340   3.379  -2.425  0.00  0.00    +0.222 HD
ENDBRANCH  28  32
ENDBRANCH  27  28
ENDBRANCH  26  27
ENDBRANCH   2  26
TORSDOF 17
