REMARK  Name = 
REMARK  13 active torsions:
REMARK  status: ('A' for Active; 'I' for Inactive)
REMARK    1  A    between atoms: N_10  and  C_11
REMARK    2  A    between atoms: C_14  and  C_16
REMARK    3  A    between atoms: C_16  and  O_17
REMARK    4  A    between atoms: O_17  and  P_18
REMARK    5  A    between atoms: P_18  and  O_19
REMARK    6  A    between atoms: P_18  and  O_21
REMARK    7  A    between atoms: O_21  and  C_22
REMARK    8  A    between atoms: C_24  and  O_26
REMARK    9  A    between atoms: C_27  and  C_29
REMARK   10  A    between atoms: C_29  and  O_30
REMARK   11  A    between atoms: C_32  and  N_34
REMARK   12  A    between atoms: C_42  and  O_44
REMARK   13  A    between atoms: C_45  and  O_47
REMARK                            x       y       z     vdW  Elec       q    Type
REMARK                         _______ _______ _______ _____ _____    ______ ____
ROOT
ATOM      1  P   UNL     1      11.233  -2.152   8.716  0.00  0.00    +0.475 P 
ATOM      2  O   UNL     1      11.338  -2.352  10.224  0.00  0.00    -0.227 OA
ENDROOT
BRANCH   1   3
ATOM      3  O   UNL     1      10.938  -3.640   8.121  0.00  0.00    -0.302 OA
ATOM      4  H   UNL     1      10.917  -4.251   8.886  0.00  0.00    +0.222 HD
ENDBRANCH   1   3
BRANCH   1   5
ATOM      5  O   UNL     1      12.927  -2.461   8.547  0.00  0.00    -0.284 OA
BRANCH   5   6
ATOM      6  C   UNL     1      13.758  -1.390   8.991  0.00  0.00    +0.206 C 
BRANCH   6  10
ATOM      7  C   UNL     1      17.362  -0.891   8.602  0.00  0.00    +0.253 C 
ATOM      8  C   UNL     1      16.966  -1.361   7.194  0.00  0.00    +0.195 C 
ATOM      9  C   UNL     1      15.617  -2.059   7.377  0.00  0.00    +0.178 C 
ATOM     10  C   UNL     1      15.230  -1.761   8.827  0.00  0.00    +0.178 C 
ATOM     11  O   UNL     1      16.077  -0.677   9.255  0.00  0.00    -0.346 OA
BRANCH   7  19
ATOM     12  N   UNL     1      21.318  -4.723  11.153  0.00  0.00    -0.341 N 
ATOM     13  H   UNL     1      21.159  -4.261  12.042  0.00  0.00    +0.144 HD
ATOM     14  H   UNL     1      22.255  -5.042  10.947  0.00  0.00    +0.144 HD
ATOM     15  C   UNL     1      20.745  -4.059  10.076  0.00  0.00    +0.147 A 
ATOM     16  C   UNL     1      19.686  -3.143  10.206  0.00  0.00    +0.147 A 
ATOM     17  N   UNL     1      19.004  -2.662  11.303  0.00  0.00    -0.231 NA
ATOM     18  C   UNL     1      18.124  -1.821  10.806  0.00  0.00    +0.203 A 
ATOM     19  N   UNL     1      18.175  -1.760   9.432  0.00  0.00    -0.286 N 
ATOM     20  C   UNL     1      19.214  -2.561   9.039  0.00  0.00    +0.167 A 
ATOM     21  N   UNL     1      19.687  -2.756   7.798  0.00  0.00    -0.216 NA
ATOM     22  C   UNL     1      20.697  -3.648   7.795  0.00  0.00    +0.225 A 
ATOM     23  N   UNL     1      21.248  -4.294   8.844  0.00  0.00    -0.219 NA
ENDBRANCH   7  19
BRANCH   8  24
ATOM     24  O   UNL     1      16.771  -0.211   6.337  0.00  0.00    -0.385 OA
ATOM     25  H   UNL     1      16.178   0.414   6.789  0.00  0.00    +0.210 HD
ENDBRANCH   8  24
BRANCH   9  26
ATOM     26  O   UNL     1      15.728  -3.459   7.156  0.00  0.00    -0.386 OA
ATOM     27  H   UNL     1      14.839  -3.846   7.266  0.00  0.00    +0.210 HD
ENDBRANCH   9  26
ENDBRANCH   6  10
ENDBRANCH   5   6
ENDBRANCH   1   5
BRANCH   1  28
ATOM     28  O   UNL     1       9.539  -1.843   8.884  0.00  0.00    -0.276 OA
BRANCH  28  29
ATOM     29  C   UNL     1       8.866  -1.864   7.603  0.00  0.00    +0.211 C 
ATOM     30  C   UNL     1       7.388  -1.444   7.705  0.00  0.00    +0.255 C 
ATOM     31  O   UNL     1       7.292  -0.057   7.315  0.00  0.00    -0.346 OA
ATOM     32  C   UNL     1       8.610   0.428   6.995  0.00  0.00    +0.177 C 
ATOM     33  C   UNL     1       9.452  -0.805   6.674  0.00  0.00    +0.179 C 
BRANCH  30  34
ATOM     34  N   UNL     1       6.503  -2.265   6.860  0.00  0.00    -0.271 N 
ATOM     35  C   UNL     1       6.060  -3.473   7.395  0.00  0.00    +0.331 A 
ATOM     36  O   UNL     1       6.386  -3.889   8.502  0.00  0.00    -0.246 OA
ATOM     37  N   UNL     1       5.243  -4.220   6.587  0.00  0.00    -0.275 N 
ATOM     38  H   UNL     1       4.906  -5.092   6.964  0.00  0.00    +0.173 HD
ATOM     39  C   UNL     1       4.902  -3.931   5.297  0.00  0.00    +0.254 A 
ATOM     40  O   UNL     1       4.203  -4.664   4.607  0.00  0.00    -0.268 OA
ATOM     41  C   UNL     1       5.452  -2.678   4.763  0.00  0.00    +0.088 A 
ATOM     42  C   UNL     1       6.209  -1.914   5.557  0.00  0.00    +0.098 A 
ENDBRANCH  30  34
BRANCH  33  43
ATOM     43  O   UNL     1       9.293  -1.176   5.304  0.00  0.00    -0.386 OA
ATOM     44  H   UNL     1       9.736  -2.032   5.153  0.00  0.00    +0.210 HD
ENDBRANCH  33  43
BRANCH  32  45
ATOM     45  C   UNL     1       9.179   1.212   8.192  0.00  0.00    +0.190 C 
BRANCH  45  46
ATOM     46  O   UNL     1       8.454   2.409   8.455  0.00  0.00    -0.392 OA
ATOM     47  H   UNL     1       8.171   2.799   7.612  0.00  0.00    +0.210 HD
ENDBRANCH  45  46
ENDBRANCH  32  45
ENDBRANCH  28  29
ENDBRANCH   1  28
TORSDOF 13
