REMARK  Name = 
REMARK  8 active torsions:
REMARK  status: ('A' for Active; 'I' for Inactive)
REMARK    1  A    between atoms: C_1  and  O_2
REMARK    2  A    between atoms: O_2  and  C_3
REMARK    3  A    between atoms: C_5  and  C_6
REMARK    4  A    between atoms: C_6  and  C_7
REMARK    5  A    between atoms: C_17  and  O_18
REMARK    6  A    between atoms: O_18  and  C_19
REMARK    7  A    between atoms: C_20  and  O_21
REMARK    8  A    between atoms: O_21  and  C_22
REMARK                            x       y       z     vdW  Elec       q    Type
REMARK                         _______ _______ _______ _____ _____    ______ ____
ROOT
ATOM      1  C   UNL     1       5.293  -0.660   3.832  0.00  0.00    +0.080 C 
ENDROOT
BRANCH   1   2
ATOM      2  C   UNL     1       4.805  -0.003   5.101  0.00  0.00    +0.060 A 
ATOM      3  C   UNL     1       5.713   0.386   6.085  0.00  0.00    +0.133 A 
ATOM      4  N   UNL     1       7.077   0.400   5.849  0.00  0.00    -0.343 N 
ATOM      5  H   UNL     1       7.475  -0.442   5.449  0.00  0.00    +0.144 HD
ATOM      6  H   UNL     1       7.582   0.689   6.684  0.00  0.00    +0.144 HD
ATOM      7  N   UNL     1       5.331   0.871   7.278  0.00  0.00    -0.157 NA
ATOM      8  C   UNL     1       4.015   1.002   7.490  0.00  0.00    +0.371 A 
ATOM      9  N   UNL     1       3.600   1.375   8.747  0.00  0.00    -0.288 N 
ATOM     10  H   UNL     1       4.403   1.605   9.332  0.00  0.00    +0.149 HD
ATOM     11  H   UNL     1       2.828   2.019   8.850  0.00  0.00    +0.149 HD
ATOM     12  N   UNL     1       3.100   0.734   6.565  0.00  0.00    -0.181 N 
ATOM     13  H   UNL     1       2.125   0.864   6.809  0.00  0.00    +0.456 HD
ATOM     14  C   UNL     1       3.462   0.234   5.378  0.00  0.00    +0.317 A 
ENDBRANCH   1   2
BRANCH   1  19
ATOM     15  C   UNL     1       2.819  -0.674   0.926  0.00  0.00    +0.165 A 
ATOM     16  C   UNL     1       2.373  -2.010   0.918  0.00  0.00    +0.204 A 
ATOM     17  C   UNL     1       2.805  -2.871   1.944  0.00  0.00    +0.165 A 
ATOM     18  C   UNL     1       3.705  -2.417   2.921  0.00  0.00    +0.053 A 
ATOM     19  C   UNL     1       4.241  -1.128   2.855  0.00  0.00    -0.036 A 
ATOM     20  C   UNL     1       3.786  -0.263   1.856  0.00  0.00    +0.053 A 
BRANCH  15  22
ATOM     21  C   UNL     1       2.129   1.543   0.498  0.00  0.00    +0.277 C 
ATOM     22  O   UNL     1       2.294   0.210   0.018  0.00  0.00    -0.491 OA
ENDBRANCH  15  22
BRANCH  16  23
ATOM     23  O   UNL     1       1.452  -2.503   0.027  0.00  0.00    -0.488 OA
ATOM     24  C   UNL     1       1.595  -2.070  -1.327  0.00  0.00    +0.277 C 
ENDBRANCH  16  23
BRANCH  17  25
ATOM     25  O   UNL     1       2.381  -4.161   2.147  0.00  0.00    -0.491 OA
ATOM     26  C   UNL     1       2.355  -4.978   0.981  0.00  0.00    +0.277 C 
ENDBRANCH  17  25
ENDBRANCH   1  19
TORSDOF 5
