REMARK  Name = 
REMARK  7 active torsions:
REMARK  status: ('A' for Active; 'I' for Inactive)
REMARK    1  A    between atoms: C_1  and  C_2
REMARK    2  A    between atoms: N_7  and  C_8
REMARK    3  A    between atoms: C_11  and  C_13
REMARK    4  A    between atoms: C_13  and  O_14
REMARK    5  A    between atoms: C_15  and  O_17
REMARK    6  A    between atoms: C_18  and  O_20
REMARK    7  A    between atoms: C_21  and  O_23
REMARK                            x       y       z     vdW  Elec       q    Type
REMARK                         _______ _______ _______ _____ _____    ______ ____
ROOT
ATOM      1  C   UNL     1       6.759   1.062  -2.371  0.00  0.00    +0.238 C 
ATOM      2  C   UNL     1       7.398   2.470  -2.502  0.00  0.00    +0.192 C 
ATOM      3  C   UNL     1       7.067   3.110  -3.859  0.00  0.00    +0.178 C 
ATOM      4  C   UNL     1       7.370   2.152  -5.019  0.00  0.00    +0.177 C 
ATOM      5  C   UNL     1       6.817   0.724  -4.792  0.00  0.00    +0.177 C 
ATOM      6  O   UNL     1       7.045   0.202  -3.479  0.00  0.00    -0.348 OA
ENDROOT
BRANCH   1  12
ATOM      7  C   UNL     1       3.124   2.965   0.978  0.00  0.00    +0.109 C 
ATOM      8  C   UNL     1       2.564   2.076  -0.099  0.00  0.00    +0.217 C 
ATOM      9  N   UNL     1       3.430   1.481  -0.982  0.00  0.00    -0.240 N 
ATOM     10  H   UNL     1       2.967   0.976  -1.719  0.00  0.00    +0.159 HD
ATOM     11  C   UNL     1       4.800   1.609  -1.039  0.00  0.00    +0.308 C 
ATOM     12  N   UNL     1       5.329   1.027  -2.169  0.00  0.00    -0.271 N 
ATOM     13  H   UNL     1       4.914   0.143  -2.420  0.00  0.00    +0.153 HD
ATOM     14  O   UNL     1       5.487   2.175  -0.199  0.00  0.00    -0.252 OA
ATOM     15  O   UNL     1       1.355   1.882  -0.223  0.00  0.00    -0.276 OA
ENDBRANCH   1  12
BRANCH   2  16
ATOM     16  O   UNL     1       8.818   2.338  -2.305  0.00  0.00    -0.385 OA
ATOM     17  H   UNL     1       9.244   3.136  -2.664  0.00  0.00    +0.210 HD
ENDBRANCH   2  16
BRANCH   3  18
ATOM     18  O   UNL     1       5.728   3.614  -3.863  0.00  0.00    -0.386 OA
ATOM     19  H   UNL     1       5.154   3.047  -4.401  0.00  0.00    +0.210 HD
ENDBRANCH   3  18
BRANCH   4  20
ATOM     20  O   UNL     1       8.802   2.115  -5.169  0.00  0.00    -0.386 OA
ATOM     21  H   UNL     1       9.041   1.362  -5.736  0.00  0.00    +0.210 HD
ENDBRANCH   4  20
BRANCH   5  22
ATOM     22  C   UNL     1       5.350   0.527  -5.206  0.00  0.00    +0.190 C 
BRANCH  22  23
ATOM     23  O   UNL     1       5.111   0.966  -6.534  0.00  0.00    -0.392 OA
ATOM     24  H   UNL     1       5.186   0.193  -7.122  0.00  0.00    +0.210 HD
ENDBRANCH  22  23
ENDBRANCH   5  22
TORSDOF 6
