REMARK  Name = 
REMARK  7 active torsions:
REMARK  status: ('A' for Active; 'I' for Inactive)
REMARK    1  A    between atoms: O_1  and  C_2
REMARK    2  A    between atoms: C_2  and  C_4
REMARK    3  A    between atoms: C_2  and  C_10
REMARK    4  A    between atoms: C_4  and  C_5
REMARK    5  A    between atoms: C_5  and  C_7
REMARK    6  A    between atoms: C_10  and  O_12
REMARK    7  A    between atoms: C_10  and  C_13
REMARK                            x       y       z     vdW  Elec       q    Type
REMARK                         _______ _______ _______ _____ _____    ______ ____
ROOT
ATOM      1  C   UNL     1       2.550   0.107  -0.075  0.00  0.00    +0.156 C 
ENDROOT
BRANCH   1   2
ATOM      2  O   UNL     1       1.108   0.008   0.123  0.00  0.00    -0.388 OA
ATOM      3  H   UNL     1       0.830  -0.681  -0.521  0.00  0.00    +0.210 HD
ENDBRANCH   1   2
BRANCH   1   4
ATOM      4  C   UNL     1       3.037   1.179   0.910  0.00  0.00    +0.189 C 
BRANCH   4   5
ATOM      5  C   UNL     1       4.582   1.328   0.959  0.00  0.00    +0.073 C 
ATOM      6  O   UNL     1       5.003   2.496   1.223  0.00  0.00    -0.547 OA
ATOM      7  O   UNL     1       5.258   0.287   0.711  0.00  0.00    -0.547 OA
ENDBRANCH   4   5
BRANCH   4   8
ATOM      8  O   UNL     1       2.509   0.831   2.231  0.00  0.00    -0.383 OA
ATOM      9  H   UNL     1       1.643   0.433   2.014  0.00  0.00    +0.210 HD
ENDBRANCH   4   8
ENDBRANCH   1   4
BRANCH   1  10
ATOM     10  C   UNL     1       2.850   0.435  -1.543  0.00  0.00    +0.115 C 
BRANCH  10  11
ATOM     11  C   UNL     1       2.246  -0.597  -2.474  0.00  0.00    +0.181 C 
ATOM     12  O   UNL     1       1.517  -1.518  -2.085  0.00  0.00    -0.291 OA
BRANCH  11  13
ATOM     13  C   UNL     1       2.454  -0.447  -3.987  0.00  0.00    +0.107 C 
ATOM     14  O   UNL     1       1.947  -1.336  -4.750  0.00  0.00    -0.542 OA
ATOM     15  O   UNL     1       3.102   0.579  -4.362  0.00  0.00    -0.542 OA
ENDBRANCH  11  13
ENDBRANCH  10  11
ENDBRANCH   1  10
TORSDOF 7
