REMARK  Name = 
REMARK  16 active torsions:
REMARK  status: ('A' for Active; 'I' for Inactive)
REMARK    1  A    between atoms: O_1  and  C_2
REMARK    2  A    between atoms: C_2  and  C_3
REMARK    3  A    between atoms: C_3  and  O_5
REMARK    4  A    between atoms: C_3  and  C_6
REMARK    5  A    between atoms: C_6  and  O_8
REMARK    6  A    between atoms: C_6  and  C_9
REMARK    7  A    between atoms: C_9  and  O_11
REMARK    8  A    between atoms: C_9  and  C_12
REMARK    9  A    between atoms: C_12  and  N_13
REMARK   10  A    between atoms: N_16  and  C_17
REMARK   11  A    between atoms: C_17  and  C_18
REMARK   12  A    between atoms: C_18  and  C_19
REMARK   13  A    between atoms: C_19  and  O_20
REMARK   14  A    between atoms: O_20  and  P_21
REMARK   15  A    between atoms: P_21  and  O_22
REMARK   16  A    between atoms: P_21  and  O_23
REMARK                            x       y       z     vdW  Elec       q    Type
REMARK                         _______ _______ _______ _____ _____    ______ ____
ROOT
ATOM      1  N   UNL     1       6.908   3.338   2.573  0.00  0.00    -0.275 N 
ATOM      2  C   UNL     1       6.633   4.672   2.467  0.00  0.00    +0.149 A 
ATOM      3  N   UNL     1       5.993   5.300   1.459  0.00  0.00    -0.292 N 
ATOM      4  H   UNL     1       5.769   4.781   0.616  0.00  0.00    +0.172 HD
ATOM      5  C   UNL     1       5.764   6.647   1.472  0.00  0.00    +0.328 A 
ATOM      6  N   UNL     1       6.193   7.311   2.598  0.00  0.00    -0.273 N 
ATOM      7  H   UNL     1       6.047   8.308   2.614  0.00  0.00    +0.173 HD
ATOM      8  C   UNL     1       6.919   6.766   3.635  0.00  0.00    +0.280 A 
ATOM      9  O   UNL     1       7.366   7.455   4.543  0.00  0.00    -0.265 OA
ATOM     10  O   UNL     1       5.224   7.234   0.544  0.00  0.00    -0.247 OA
ATOM     11  C   UNL     1       7.108   5.309   3.538  0.00  0.00    +0.152 A 
ATOM     12  N   UNL     1       7.702   4.399   4.378  0.00  0.00    -0.286 N 
ATOM     13  C   UNL     1       7.592   3.115   3.793  0.00  0.00    +0.331 A 
ATOM     14  O   UNL     1       7.981   2.052   4.244  0.00  0.00    -0.246 OA
ENDROOT
BRANCH  12  15
ATOM     15  C   UNL     1       8.295   4.645   5.662  0.00  0.00    +0.129 C 
BRANCH  15  16
ATOM     16  C   UNL     1       7.265   5.100   6.691  0.00  0.00    +0.050 C 
BRANCH  16  17
ATOM     17  C   UNL     1       7.907   5.275   8.045  0.00  0.00    +0.174 C 
BRANCH  17  18
ATOM     18  O   UNL     1       9.038   6.135   7.935  0.00  0.00    -0.287 OA
BRANCH  18  19
ATOM     19  P   UNL     1       9.758   6.362   9.491  0.00  0.00    +0.472 P 
ATOM     20  O   UNL     1      10.402   6.565  10.884  0.00  0.00    -0.228 OA
BRANCH  19  21
ATOM     21  O   UNL     1      10.720   5.099   9.078  0.00  0.00    -0.303 OA
ATOM     22  H   UNL     1      10.462   4.271   9.511  0.00  0.00    +0.222 HD
ENDBRANCH  19  21
BRANCH  19  23
ATOM     23  O   UNL     1      10.656   7.515   8.756  0.00  0.00    -0.303 OA
ATOM     24  H   UNL     1      10.160   8.336   8.615  0.00  0.00    +0.222 HD
ENDBRANCH  19  23
ENDBRANCH  18  19
ENDBRANCH  17  18
ENDBRANCH  16  17
ENDBRANCH  15  16
ENDBRANCH  12  15
BRANCH   1  25
ATOM     25  C   UNL     1       6.445   2.281   1.704  0.00  0.00    +0.162 C 
BRANCH  25  26
ATOM     26  C   UNL     1       7.148   2.248   0.340  0.00  0.00    +0.165 C 
BRANCH  26  27
ATOM     27  O   UNL     1       6.914   3.494  -0.361  0.00  0.00    -0.387 OA
ATOM     28  H   UNL     1       7.589   3.537  -1.064  0.00  0.00    +0.210 HD
ENDBRANCH  26  27
BRANCH  26  29
ATOM     29  C   UNL     1       6.632   1.131  -0.592  0.00  0.00    +0.175 C 
BRANCH  29  30
ATOM     30  O   UNL     1       7.451   1.141  -1.775  0.00  0.00    -0.387 OA
ATOM     31  H   UNL     1       7.083   1.824  -2.365  0.00  0.00    +0.210 HD
ENDBRANCH  29  30
BRANCH  29  32
ATOM     32  C   UNL     1       6.590  -0.291  -0.017  0.00  0.00    +0.171 C 
BRANCH  32  33
ATOM     33  O   UNL     1       5.650  -0.375   1.062  0.00  0.00    -0.387 OA
ATOM     34  H   UNL     1       5.862  -1.220   1.512  0.00  0.00    +0.210 HD
ENDBRANCH  32  33
BRANCH  32  35
ATOM     35  C   UNL     1       7.950  -0.816   0.450  0.00  0.00    +0.189 C 
BRANCH  35  36
ATOM     36  O   UNL     1       7.745  -2.123   0.999  0.00  0.00    -0.392 OA
ATOM     37  H   UNL     1       8.623  -2.461   1.252  0.00  0.00    +0.210 HD
ENDBRANCH  35  36
ENDBRANCH  32  35
ENDBRANCH  29  32
ENDBRANCH  26  29
ENDBRANCH  25  26
ENDBRANCH   1  25
TORSDOF 16
