REMARK  Name = 
REMARK  14 active torsions:
REMARK  status: ('A' for Active; 'I' for Inactive)
REMARK    1  A    between atoms: C_1  and  N_2
REMARK    2  A    between atoms: C_3  and  C_5
REMARK    3  A    between atoms: C_9  and  C_10
REMARK    4  A    between atoms: C_10  and  N_11
REMARK    5  A    between atoms: C_12  and  C_14
REMARK    6  A    between atoms: C_14  and  O_15
REMARK    7  A    between atoms: O_15  and  C_16
REMARK    8  A    between atoms: C_22  and  O_24
REMARK    9  A    between atoms: C_25  and  O_27
REMARK   10  A    between atoms: C_28  and  C_30
REMARK   11  A    between atoms: C_30  and  O_31
REMARK   12  A    between atoms: O_31  and  C_32
REMARK   13  A    between atoms: N_38  and  C_39
REMARK   14  A    between atoms: C_39  and  C_40
REMARK                            x       y       z     vdW  Elec       q    Type
REMARK                         _______ _______ _______ _____ _____    ______ ____
ROOT
ATOM      1  N   UNL     1       6.639  -3.072  -1.874  0.00  0.00    -0.153 NA
ATOM      2  S   UNL     1       7.262  -4.679  -1.936  0.00  0.00    +0.101 S 
ATOM      3  O   UNL     1       7.588  -5.174  -0.626  0.00  0.00    -0.141 OA
ATOM      4  O   UNL     1       8.243  -4.718  -2.998  0.00  0.00    -0.141 OA
ATOM      5  N   UNL     1       5.872  -5.494  -2.362  0.00  0.00    -0.153 NA
ATOM      6  C   UNL     1       5.716  -5.824  -3.813  0.00  0.00    +0.150 C 
ATOM      7  C   UNL     1       5.891  -4.587  -4.731  0.00  0.00    +0.167 C 
ATOM      8  C   UNL     1       5.289  -3.289  -4.157  0.00  0.00    +0.167 C 
ATOM      9  C   UNL     1       6.256  -2.426  -3.252  0.00  0.00    +0.150 C 
ENDROOT
BRANCH   7  10
ATOM     10  O   UNL     1       5.335  -4.839  -6.034  0.00  0.00    -0.387 OA
ATOM     11  H   UNL     1       4.838  -4.030  -6.276  0.00  0.00    +0.210 HD
ENDBRANCH   7  10
BRANCH   8  12
ATOM     12  O   UNL     1       4.823  -2.562  -5.323  0.00  0.00    -0.387 OA
ATOM     13  H   UNL     1       5.490  -1.892  -5.567  0.00  0.00    +0.210 HD
ENDBRANCH   8  12
BRANCH   1  14
ATOM     14  C   UNL     1       7.548  -2.159  -1.067  0.00  0.00    +0.146 C 
BRANCH  14  17
ATOM     15  C   UNL     1       7.336  -3.522   2.501  0.00  0.00    +0.037 A 
ATOM     16  C   UNL     1       6.974  -2.926   1.283  0.00  0.00    +0.018 A 
ATOM     17  C   UNL     1       7.949  -2.637   0.313  0.00  0.00    -0.031 A 
ATOM     18  C   UNL     1       9.298  -2.884   0.613  0.00  0.00    +0.005 A 
ATOM     19  C   UNL     1       9.661  -3.453   1.835  0.00  0.00    +0.001 A 
ATOM     20  C   UNL     1       8.684  -3.778   2.776  0.00  0.00    +0.013 A 
BRANCH  15  24
ATOM     21  C   UNL     1       5.550  -5.287   5.341  0.00  0.00    +0.128 C 
ATOM     22  N   UNL     1       6.492  -4.926   4.311  0.00  0.00    -0.314 N 
ATOM     23  H   UNL     1       7.289  -5.527   4.152  0.00  0.00    +0.149 HD
ATOM     24  C   UNL     1       6.263  -3.849   3.479  0.00  0.00    +0.244 C 
ATOM     25  O   UNL     1       5.237  -3.179   3.505  0.00  0.00    -0.270 OA
ENDBRANCH  15  24
ENDBRANCH  14  17
ENDBRANCH   1  14
BRANCH   5  26
ATOM     26  C   UNL     1       4.726  -5.308  -1.419  0.00  0.00    +0.146 C 
BRANCH  26  27
ATOM     27  C   UNL     1       3.827  -6.502  -1.193  0.00  0.00    -0.032 A 
ATOM     28  C   UNL     1       2.471  -6.446  -1.558  0.00  0.00    +0.005 A 
ATOM     29  C   UNL     1       1.676  -7.591  -1.506  0.00  0.00    +0.000 A 
ATOM     30  C   UNL     1       2.216  -8.792  -1.054  0.00  0.00    +0.000 A 
ATOM     31  C   UNL     1       3.541  -8.842  -0.621  0.00  0.00    +0.000 A 
ATOM     32  C   UNL     1       4.343  -7.700  -0.677  0.00  0.00    +0.005 A 
ENDBRANCH  26  27
ENDBRANCH   5  26
BRANCH   6  33
ATOM     33  C   UNL     1       4.484  -6.692  -4.115  0.00  0.00    +0.252 C 
BRANCH  33  34
ATOM     34  O   UNL     1       4.549  -7.320  -5.399  0.00  0.00    -0.490 OA
BRANCH  34  35
ATOM     35  C   UNL     1       3.390  -7.965  -5.740  0.00  0.00    +0.121 A 
ATOM     36  C   UNL     1       2.648  -8.760  -4.864  0.00  0.00    +0.045 A 
ATOM     37  C   UNL     1       1.485  -9.393  -5.303  0.00  0.00    +0.004 A 
ATOM     38  C   UNL     1       1.074  -9.251  -6.626  0.00  0.00    +0.000 A 
ATOM     39  C   UNL     1       1.828  -8.477  -7.510  0.00  0.00    +0.004 A 
ATOM     40  C   UNL     1       2.986  -7.838  -7.066  0.00  0.00    +0.045 A 
ENDBRANCH  34  35
ENDBRANCH  33  34
ENDBRANCH   6  33
BRANCH   9  41
ATOM     41  C   UNL     1       5.563  -1.035  -3.007  0.00  0.00    +0.252 C 
BRANCH  41  42
ATOM     42  O   UNL     1       5.283  -0.312  -4.221  0.00  0.00    -0.490 OA
BRANCH  42  43
ATOM     43  C   UNL     1       4.671   0.909  -4.044  0.00  0.00    +0.121 A 
ATOM     44  C   UNL     1       3.831   1.235  -2.976  0.00  0.00    +0.045 A 
ATOM     45  C   UNL     1       3.315   2.529  -2.845  0.00  0.00    +0.004 A 
ATOM     46  C   UNL     1       3.619   3.503  -3.793  0.00  0.00    +0.000 A 
ATOM     47  C   UNL     1       4.402   3.169  -4.895  0.00  0.00    +0.004 A 
ATOM     48  C   UNL     1       4.914   1.872  -5.028  0.00  0.00    +0.045 A 
ENDBRANCH  42  43
ENDBRANCH  41  42
ENDBRANCH   9  41
TORSDOF 13
