REMARK  Name = 
REMARK  29 active torsions:
REMARK  status: ('A' for Active; 'I' for Inactive)
REMARK    1  A    between atoms: C_2  and  C_4
REMARK    2  A    between atoms: C_4  and  C_6
REMARK    3  A    between atoms: C_4  and  N_8
REMARK    4  A    between atoms: C_6  and  S_7
REMARK    5  A    between atoms: C_9  and  C_11
REMARK    6  A    between atoms: C_11  and  C_12
REMARK    7  A    between atoms: C_12  and  C_13
REMARK    8  A    between atoms: C_13  and  C_14
REMARK    9  A    between atoms: C_14  and  C_15
REMARK   10  A    between atoms: C_15  and  N_16
REMARK   11  A    between atoms: C_17  and  C_19
REMARK   12  A    between atoms: C_19  and  C_21
REMARK   13  A    between atoms: C_19  and  N_35
REMARK   14  A    between atoms: C_21  and  C_22
REMARK   15  A    between atoms: C_25  and  C_28
REMARK   16  A    between atoms: C_28  and  P_31
REMARK   17  A    between atoms: P_31  and  O_32
REMARK   18  A    between atoms: P_31  and  O_33
REMARK   19  A    between atoms: C_36  and  C_38
REMARK   20  A    between atoms: C_38  and  C_40
REMARK   21  A    between atoms: C_38  and  N_44
REMARK   22  A    between atoms: C_40  and  C_41
REMARK   23  A    between atoms: C_41  and  O_42
REMARK   24  A    between atoms: C_45  and  C_47
REMARK   25  A    between atoms: C_47  and  C_48
REMARK   26  A    between atoms: C_51  and  C_54
REMARK   27  A    between atoms: C_54  and  P_57
REMARK   28  A    between atoms: P_57  and  O_58
REMARK   29  A    between atoms: P_57  and  O_59
REMARK                            x       y       z     vdW  Elec       q    Type
REMARK                         _______ _______ _______ _____ _____    ______ ____
ROOT
ATOM      1  C   UNL     1      14.543  -4.996   4.185  0.00  0.00    +0.163 C 
ENDROOT
BRANCH   1   4
ATOM      2  N   UNL     1      12.521  -3.952   3.106  0.00  0.00    -0.314 N 
ATOM      3  H   UNL     1      11.978  -4.444   3.800  0.00  0.00    +0.149 HD
ATOM      4  C   UNL     1      13.898  -3.960   3.200  0.00  0.00    +0.234 C 
ATOM      5  O   UNL     1      14.612  -3.195   2.548  0.00  0.00    -0.274 OA
BRANCH   2   6
ATOM      6  C   UNL     1      11.791  -3.058   2.203  0.00  0.00    +0.104 C 
BRANCH   6   7
ATOM      7  C   UNL     1      10.887  -3.835   1.234  0.00  0.00    +0.019 C 
BRANCH   7   8
ATOM      8  C   UNL     1      10.061  -2.923   0.302  0.00  0.00    +0.002 C 
BRANCH   8   9
ATOM      9  C   UNL     1       9.199  -3.742  -0.652  0.00  0.00    +0.009 C 
BRANCH   9  10
ATOM     10  C   UNL     1       8.367  -2.892  -1.606  0.00  0.00    +0.096 C 
BRANCH  10  13
ATOM     11  N   UNL     1       8.156  -4.528  -3.396  0.00  0.00    -0.303 N 
ATOM     12  H   UNL     1       9.166  -4.491  -3.436  0.00  0.00    +0.149 HD
ATOM     13  C   UNL     1       7.478  -3.740  -2.498  0.00  0.00    +0.214 C 
ATOM     14  O   UNL     1       6.252  -3.730  -2.413  0.00  0.00    -0.276 OA
BRANCH  11  15
ATOM     15  C   UNL     1       7.474  -5.402  -4.358  0.00  0.00    +0.168 C 
BRANCH  15  19
ATOM     16  N   UNL     1       9.692  -6.086  -5.221  0.00  0.00    -0.328 N 
ATOM     17  H   UNL     1       9.996  -6.398  -4.283  0.00  0.00    +0.145 HD
ATOM     18  H   UNL     1      10.304  -6.324  -5.974  0.00  0.00    +0.145 HD
ATOM     19  C   UNL     1       8.437  -5.648  -5.534  0.00  0.00    +0.232 C 
ATOM     20  O   UNL     1       8.117  -5.486  -6.712  0.00  0.00    -0.274 OA
ENDBRANCH  15  19
BRANCH  15  21
ATOM     21  C   UNL     1       7.023  -6.710  -3.695  0.00  0.00    +0.097 C 
BRANCH  21  22
ATOM     22  S   UNL     1       6.119  -7.853  -4.789  0.00  0.00    -0.176 S 
ATOM     23  H   UNL     1       5.124  -7.008  -5.114  0.00  0.00    +0.102 HD
ENDBRANCH  21  22
ENDBRANCH  15  21
ENDBRANCH  11  15
ENDBRANCH  10  13
ENDBRANCH   9  10
ENDBRANCH   8   9
ENDBRANCH   7   8
ENDBRANCH   6   7
ENDBRANCH   2   6
ENDBRANCH   1   4
BRANCH   1  24
ATOM     24  N   UNL     1      16.006  -4.804   4.169  0.00  0.00    -0.302 N 
ATOM     25  H   UNL     1      16.345  -4.151   3.468  0.00  0.00    +0.150 HD
ATOM     26  C   UNL     1      16.895  -5.600   4.862  0.00  0.00    +0.234 C 
ATOM     27  O   UNL     1      16.542  -6.450   5.675  0.00  0.00    -0.274 OA
BRANCH  26  28
ATOM     28  C   UNL     1      18.381  -5.368   4.525  0.00  0.00    +0.169 C 
BRANCH  28  29
ATOM     29  N   UNL     1      18.954  -6.623   4.041  0.00  0.00    -0.303 N 
ATOM     30  H   UNL     1      19.063  -7.383   4.705  0.00  0.00    +0.149 HD
ATOM     31  C   UNL     1      19.033  -6.906   2.693  0.00  0.00    +0.218 C 
ATOM     32  O   UNL     1      18.625  -6.126   1.835  0.00  0.00    -0.275 OA
BRANCH  31  33
ATOM     33  C   UNL     1      19.732  -8.219   2.347  0.00  0.00    +0.130 C 
BRANCH  33  34
ATOM     34  C   UNL     1      21.206  -8.017   2.080  0.00  0.00    -0.039 A 
ATOM     35  C   UNL     1      21.655  -7.618   0.817  0.00  0.00    +0.004 A 
ATOM     36  C   UNL     1      22.997  -7.292   0.602  0.00  0.00    +0.010 A 
ATOM     37  C   UNL     1      23.926  -7.348   1.653  0.00  0.00    +0.033 A 
ATOM     38  C   UNL     1      23.490  -7.801   2.906  0.00  0.00    +0.010 A 
ATOM     39  C   UNL     1      22.144  -8.131   3.119  0.00  0.00    +0.004 A 
BRANCH  37  40
ATOM     40  C   UNL     1      25.309  -6.754   1.484  0.00  0.00    +0.371 C 
ATOM     41  F   UNL     1      25.800  -6.778   0.208  0.00  0.00    -0.187 F 
ATOM     42  F   UNL     1      26.276  -7.314   2.266  0.00  0.00    -0.187 F 
BRANCH  40  43
ATOM     43  P   UNL     1      25.415  -4.998   1.989  0.00  0.00    +0.401 P 
ATOM     44  O   UNL     1      25.505  -3.513   2.417  0.00  0.00    -0.252 OA
BRANCH  43  45
ATOM     45  O   UNL     1      27.008  -4.987   1.480  0.00  0.00    -0.320 OA
ATOM     46  H   UNL     1      27.464  -5.853   1.526  0.00  0.00    +0.220 HD
ENDBRANCH  43  45
BRANCH  43  47
ATOM     47  O   UNL     1      24.787  -4.617   0.491  0.00  0.00    -0.320 OA
ATOM     48  H   UNL     1      25.415  -4.871  -0.216  0.00  0.00    +0.220 HD
ENDBRANCH  43  47
ENDBRANCH  40  43
ENDBRANCH  37  40
ENDBRANCH  33  34
ENDBRANCH  31  33
ENDBRANCH  28  29
BRANCH  28  49
ATOM     49  C   UNL     1      19.080  -4.876   5.787  0.00  0.00    +0.152 C 
BRANCH  49  50
ATOM     50  C   UNL     1      20.568  -4.748   5.615  0.00  0.00    +0.307 C 
ATOM     51  O   UNL     1      21.372  -5.415   6.252  0.00  0.00    -0.251 OA
BRANCH  50  52
ATOM     52  O   UNL     1      20.960  -3.819   4.721  0.00  0.00    -0.481 OA
ATOM     53  H   UNL     1      20.259  -3.333   4.252  0.00  0.00    +0.295 HD
ENDBRANCH  50  52
ENDBRANCH  49  50
ENDBRANCH  28  49
ENDBRANCH  26  28
ENDBRANCH   1  24
BRANCH   1  54
ATOM     54  C   UNL     1      14.125  -6.448   3.867  0.00  0.00    +0.067 C 
BRANCH  54  55
ATOM     55  C   UNL     1      14.416  -6.999   2.488  0.00  0.00    -0.045 A 
ATOM     56  C   UNL     1      13.865  -8.243   2.151  0.00  0.00    +0.004 A 
ATOM     57  C   UNL     1      13.850  -8.667   0.827  0.00  0.00    +0.010 A 
ATOM     58  C   UNL     1      14.393  -7.848  -0.169  0.00  0.00    +0.033 A 
ATOM     59  C   UNL     1      15.099  -6.704   0.185  0.00  0.00    +0.010 A 
ATOM     60  C   UNL     1      15.124  -6.295   1.509  0.00  0.00    +0.004 A 
BRANCH  58  61
ATOM     61  C   UNL     1      14.106  -8.108  -1.604  0.00  0.00    +0.371 C 
ATOM     62  F   UNL     1      13.935  -9.439  -1.891  0.00  0.00    -0.187 F 
ATOM     63  F   UNL     1      15.055  -7.672  -2.486  0.00  0.00    -0.187 F 
BRANCH  61  64
ATOM     64  P   UNL     1      12.531  -7.449  -2.263  0.00  0.00    +0.401 P 
ATOM     65  O   UNL     1      11.199  -6.891  -2.820  0.00  0.00    -0.252 OA
BRANCH  64  66
ATOM     66  O   UNL     1      12.844  -8.219  -3.711  0.00  0.00    -0.320 OA
ATOM     67  H   UNL     1      13.194  -9.129  -3.603  0.00  0.00    +0.220 HD
ENDBRANCH  64  66
BRANCH  64  68
ATOM     68  O   UNL     1      13.353  -6.056  -2.657  0.00  0.00    -0.320 OA
ATOM     69  H   UNL     1      14.087  -6.251  -3.279  0.00  0.00    +0.220 HD
ENDBRANCH  64  68
ENDBRANCH  61  64
ENDBRANCH  58  61
ENDBRANCH  54  55
ENDBRANCH   1  54
TORSDOF 29
