REMARK  Name = 
REMARK  8 active torsions:
REMARK  status: ('A' for Active; 'I' for Inactive)
REMARK    1  A    between atoms: C_2  and  C_3
REMARK    2  A    between atoms: C_2  and  O_4
REMARK    3  A    between atoms: C_2  and  C_5
REMARK    4  A    between atoms: C_5  and  C_7
REMARK    5  A    between atoms: C_5  and  N_17
REMARK    6  A    between atoms: C_7  and  C_8
REMARK    7  A    between atoms: C_8  and  C_9
REMARK    8  A    between atoms: C_20  and  C_22
REMARK                            x       y       z     vdW  Elec       q    Type
REMARK                         _______ _______ _______ _____ _____    ______ ____
ROOT
ATOM      1  C   UNL     1       2.596   1.379  -0.392  0.00  0.00    +0.117 C 
ENDROOT
BRANCH   1   2
ATOM      2  N   UNL     1       4.059   1.347  -0.495  0.00  0.00    -0.331 N 
ATOM      3  C   UNL     1       4.786   1.638  -1.618  0.00  0.00    +0.120 A 
ATOM      4  C   UNL     1       6.113   1.476  -1.259  0.00  0.00    +0.143 A 
ATOM      5  N   UNL     1       6.193   1.112   0.080  0.00  0.00    -0.231 NA
ATOM      6  C   UNL     1       4.949   1.050   0.502  0.00  0.00    +0.200 A 
BRANCH   4   7
ATOM      7  C   UNL     1       7.277   1.643  -2.123  0.00  0.00    +0.261 C 
ATOM      8  O   UNL     1       7.217   1.978  -3.301  0.00  0.00    -0.269 OA
ATOM      9  N   UNL     1       8.464   1.381  -1.503  0.00  0.00    -0.324 N 
ATOM     10  H   UNL     1       9.321   1.433  -2.033  0.00  0.00    +0.145 HD
ATOM     11  H   UNL     1       8.460   1.077  -0.540  0.00  0.00    +0.145 HD
ENDBRANCH   4   7
ENDBRANCH   1   2
BRANCH   1  12
ATOM     12  C   UNL     1       2.031  -0.026  -0.043  0.00  0.00    +0.134 C 
ATOM     13  C   UNL     1       0.514  -0.111  -0.204  0.00  0.00    +0.040 C 
BRANCH  12  14
ATOM     14  O   UNL     1       2.338  -0.369   1.311  0.00  0.00    -0.390 OA
ATOM     15  H   UNL     1       2.009  -1.273   1.469  0.00  0.00    +0.210 HD
ENDBRANCH  12  14
ENDBRANCH   1  12
BRANCH   1  16
ATOM     16  C   UNL     1       2.101   2.476   0.575  0.00  0.00    +0.032 C 
BRANCH  16  17
ATOM     17  C   UNL     1       2.613   3.876   0.224  0.00  0.00    +0.039 C 
BRANCH  17  18
ATOM     18  C   UNL     1       2.051   4.923   1.163  0.00  0.00    -0.028 A 
ATOM     19  C   UNL     1       0.883   5.664   0.890  0.00  0.00    +0.062 A 
ATOM     20 CL   UNL     1      -0.027   5.345  -0.554  0.00  0.00    -0.082 Cl
ATOM     21  C   UNL     1       0.453   6.649   1.796  0.00  0.00    +0.060 A 
ATOM     22 CL   UNL     1      -0.949   7.625   1.517  0.00  0.00    -0.082 Cl
ATOM     23  C   UNL     1       1.164   6.880   2.977  0.00  0.00    +0.021 A 
ATOM     24  C   UNL     1       2.293   6.121   3.272  0.00  0.00    +0.002 A 
ATOM     25  C   UNL     1       2.731   5.150   2.374  0.00  0.00    +0.005 A 
ENDBRANCH  17  18
ENDBRANCH  16  17
ENDBRANCH   1  16
TORSDOF 7
