REMARK  Name = 
REMARK  5 active torsions:
REMARK  status: ('A' for Active; 'I' for Inactive)
REMARK    1  A    between atoms: N_1  and  S_2
REMARK    2  A    between atoms: S_2  and  C_5
REMARK    3  A    between atoms: C_8  and  C_11
REMARK    4  A    between atoms: N_13  and  C_14
REMARK    5  A    between atoms: C_14  and  C_15
REMARK                            x       y       z     vdW  Elec       q    Type
REMARK                         _______ _______ _______ _____ _____    ______ ____
ROOT
ATOM      1  C   UNL     1       3.882   2.575  -5.358  0.00  0.00    +0.244 C 
ATOM      2  N   UNL     1       4.035   1.767  -6.468  0.00  0.00    -0.307 N 
ATOM      3  H   UNL     1       4.192   2.286  -7.327  0.00  0.00    +0.149 HD
ATOM      4  O   UNL     1       3.803   3.796  -5.495  0.00  0.00    -0.270 OA
ENDROOT
BRANCH   1   8
ATOM      5  C   UNL     1       3.186   0.700  -1.584  0.00  0.00    +0.105 A 
ATOM      6  C   UNL     1       4.198   0.212  -2.408  0.00  0.00    +0.029 A 
ATOM      7  C   UNL     1       4.507   0.883  -3.587  0.00  0.00    +0.015 A 
ATOM      8  C   UNL     1       3.735   1.979  -4.002  0.00  0.00    +0.037 A 
ATOM      9  C   UNL     1       2.770   2.507  -3.132  0.00  0.00    +0.015 A 
ATOM     10  C   UNL     1       2.499   1.873  -1.913  0.00  0.00    +0.029 A 
BRANCH   5  11
ATOM     11  S   UNL     1       2.745  -0.219  -0.140  0.00  0.00    +0.056 S 
ATOM     12  O   UNL     1       3.394  -1.510  -0.185  0.00  0.00    -0.153 OA
ATOM     13  O   UNL     1       2.817   0.654   1.007  0.00  0.00    -0.153 OA
BRANCH  11  14
ATOM     14  N   UNL     1       1.118  -0.541  -0.402  0.00  0.00    -0.204 NA
ATOM     15  H   UNL     1       0.993  -1.524  -0.650  0.00  0.00    +0.144 HD
ATOM     16  H   UNL     1       0.579  -0.254   0.416  0.00  0.00    +0.144 HD
ENDBRANCH  11  14
ENDBRANCH   5  11
ENDBRANCH   1   8
BRANCH   2  17
ATOM     17  C   UNL     1       4.160   0.325  -6.509  0.00  0.00    +0.145 C 
BRANCH  17  18
ATOM     18  C   UNL     1       3.677  -0.340  -7.754  0.00  0.00    +0.040 A 
ATOM     19  C   UNL     1       2.703  -1.340  -7.676  0.00  0.00    +0.131 A 
ATOM     20  F   UNL     1       2.143  -1.641  -6.492  0.00  0.00    -0.205 F 
ATOM     21  C   UNL     1       2.329  -2.084  -8.790  0.00  0.00    +0.039 A 
ATOM     22  C   UNL     1       2.931  -1.825 -10.021  0.00  0.00    +0.006 A 
ATOM     23  C   UNL     1       3.896  -0.824 -10.123  0.00  0.00    +0.039 A 
ATOM     24  C   UNL     1       4.262  -0.092  -8.992  0.00  0.00    +0.131 A 
ATOM     25  F   UNL     1       5.217   0.843  -9.108  0.00  0.00    -0.205 F 
ENDBRANCH  17  18
ENDBRANCH   2  17
TORSDOF 5
