REMARK  Name = 
REMARK  15 active torsions:
REMARK  status: ('A' for Active; 'I' for Inactive)
REMARK    1  A    between atoms: N_6  and  C_9
REMARK    2  A    between atoms: C_12  and  C_14
REMARK    3  A    between atoms: C_14  and  O_15
REMARK    4  A    between atoms: O_15  and  P_16
REMARK    5  A    between atoms: P_16  and  O_17
REMARK    6  A    between atoms: P_16  and  O_19
REMARK    7  A    between atoms: O_19  and  P_20
REMARK    8  A    between atoms: P_20  and  O_21
REMARK    9  A    between atoms: P_20  and  O_23
REMARK   10  A    between atoms: O_23  and  C_24
REMARK   11  A    between atoms: C_28  and  O_30
REMARK   12  A    between atoms: C_31  and  O_33
REMARK   13  A    between atoms: C_34  and  O_36
REMARK   14  A    between atoms: C_37  and  O_39
REMARK   15  A    between atoms: C_40  and  O_42
REMARK                            x       y       z     vdW  Elec       q    Type
REMARK                         _______ _______ _______ _____ _____    ______ ____
ROOT
ATOM      1  P   UNL     1       8.817   2.163   4.982  0.00  0.00    +0.483 P 
ATOM      2  O   UNL     1       8.587   3.612   4.747  0.00  0.00    -0.227 OA
ENDROOT
BRANCH   1   3
ATOM      3  O   UNL     1       7.867   1.162   4.158  0.00  0.00    -0.302 OA
ATOM      4  H   UNL     1       6.963   1.552   4.113  0.00  0.00    +0.222 HD
ENDBRANCH   1   3
BRANCH   1   5
ATOM      5  O   UNL     1      10.289   1.628   4.607  0.00  0.00    -0.284 OA
BRANCH   5   6
ATOM      6  C   UNL     1      10.972   2.301   3.555  0.00  0.00    +0.206 C 
BRANCH   6  10
ATOM      7  C   UNL     1       8.349   1.691   1.115  0.00  0.00    +0.255 C 
ATOM      8  C   UNL     1       8.960   0.277   1.217  0.00  0.00    +0.195 C 
ATOM      9  C   UNL     1      10.320   0.482   1.882  0.00  0.00    +0.178 C 
ATOM     10  C   UNL     1      10.400   1.979   2.172  0.00  0.00    +0.178 C 
ATOM     11  O   UNL     1       9.082   2.511   2.041  0.00  0.00    -0.346 OA
BRANCH   7  18
ATOM     12  N   UNL     1       8.259   4.429  -3.678  0.00  0.00    -0.343 N 
ATOM     13  H   UNL     1       9.126   4.538  -4.187  0.00  0.00    +0.144 HD
ATOM     14  H   UNL     1       7.725   5.289  -3.592  0.00  0.00    +0.144 HD
ATOM     15  C   UNL     1       8.294   3.723  -2.508  0.00  0.00    +0.123 A 
ATOM     16  C   UNL     1       9.313   2.676  -2.326  0.00  0.00    +0.061 A 
ATOM     17  C   UNL     1       9.309   2.059  -1.148  0.00  0.00    +0.096 A 
ATOM     18  N   UNL     1       8.369   2.352  -0.189  0.00  0.00    -0.270 N 
ATOM     19  C   UNL     1       7.408   3.353  -0.403  0.00  0.00    +0.352 A 
ATOM     20  O   UNL     1       6.558   3.622   0.446  0.00  0.00    -0.244 OA
ATOM     21  N   UNL     1       7.425   4.031  -1.601  0.00  0.00    -0.178 NA
ENDBRANCH   7  18
BRANCH   8  22
ATOM     22  O   UNL     1       8.155  -0.581   2.049  0.00  0.00    -0.385 OA
ATOM     23  H   UNL     1       8.030  -0.123   2.907  0.00  0.00    +0.210 HD
ENDBRANCH   8  22
BRANCH   9  24
ATOM     24  O   UNL     1      11.383   0.102   1.004  0.00  0.00    -0.386 OA
ATOM     25  H   UNL     1      12.207   0.114   1.524  0.00  0.00    +0.210 HD
ENDBRANCH   9  24
ENDBRANCH   6  10
ENDBRANCH   5   6
ENDBRANCH   1   5
BRANCH   1  26
ATOM     26  O   UNL     1       8.614   1.684   6.485  0.00  0.00    -0.186 OA
BRANCH  26  27
ATOM     27  P   UNL     1       7.322   2.182   7.262  0.00  0.00    +0.486 P 
ATOM     28  O   UNL     1       6.102   2.404   6.434  0.00  0.00    -0.227 OA
BRANCH  27  29
ATOM     29  O   UNL     1       7.854   3.454   8.073  0.00  0.00    -0.302 OA
ATOM     30  H   UNL     1       8.582   3.256   8.686  0.00  0.00    +0.222 HD
ENDBRANCH  27  29
BRANCH  27  31
ATOM     31  O   UNL     1       7.179   1.121   8.449  0.00  0.00    -0.254 OA
BRANCH  31  32
ATOM     32  C   UNL     1       6.183   0.125   8.295  0.00  0.00    +0.293 C 
ATOM     33  C   UNL     1       5.987  -0.555   9.663  0.00  0.00    +0.202 C 
ATOM     34  C   UNL     1       7.258  -1.358  10.019  0.00  0.00    +0.178 C 
ATOM     35  C   UNL     1       7.623  -2.337   8.898  0.00  0.00    +0.171 C 
ATOM     36  C   UNL     1       7.671  -1.620   7.541  0.00  0.00    +0.197 C 
ATOM     37  O   UNL     1       6.526  -0.813   7.271  0.00  0.00    -0.346 OA
BRANCH  33  38
ATOM     38  O   UNL     1       4.802  -1.354   9.641  0.00  0.00    -0.384 OA
ATOM     39  H   UNL     1       4.922  -2.103  10.252  0.00  0.00    +0.210 HD
ENDBRANCH  33  38
BRANCH  34  40
ATOM     40  O   UNL     1       8.374  -0.488  10.283  0.00  0.00    -0.386 OA
ATOM     41  H   UNL     1       8.428   0.158   9.563  0.00  0.00    +0.210 HD
ENDBRANCH  34  40
BRANCH  35  42
ATOM     42  O   UNL     1       6.675  -3.408   8.901  0.00  0.00    -0.387 OA
ATOM     43  H   UNL     1       6.716  -3.859   8.040  0.00  0.00    +0.210 HD
ENDBRANCH  35  42
ENDBRANCH  31  32
ENDBRANCH  27  31
ENDBRANCH  26  27
ENDBRANCH   1  26
TORSDOF 15
