REMARK  Name = 
REMARK  5 active torsions:
REMARK  status: ('A' for Active; 'I' for Inactive)
REMARK    1  A    between atoms: C_1  and  C_2
REMARK    2  A    between atoms: C_5  and  N_6
REMARK    3  A    between atoms: C_7  and  C_9
REMARK    4  A    between atoms: C_16  and  N_17
REMARK    5  A    between atoms: C_22  and  C_24
REMARK                            x       y       z     vdW  Elec       q    Type
REMARK                         _______ _______ _______ _____ _____    ______ ____
ROOT
ATOM      1  C   UNL     1       1.246   0.510  -0.136  0.00  0.00    +0.045 C 
ATOM      2  C   UNL     1       2.721   0.224  -0.212  0.00  0.00    -0.029 A 
ATOM      3  C   UNL     1       3.259  -1.080  -0.318  0.00  0.00    +0.038 A 
ATOM      4  C   UNL     1       4.665  -1.202  -0.381  0.00  0.00    +0.047 A 
ATOM      5  C   UNL     1       5.521  -0.091  -0.344  0.00  0.00    +0.035 A 
ATOM      6  C   UNL     1       4.957   1.177  -0.255  0.00  0.00    +0.024 A 
ATOM      7  C   UNL     1       3.580   1.332  -0.184  0.00  0.00    +0.007 A 
ENDROOT
BRANCH   3   8
ATOM      8  N   UNL     1       2.402  -2.199  -0.361  0.00  0.00    -0.283 N 
ATOM      9  H   UNL     1       1.411  -2.025  -0.299  0.00  0.00    +0.155 HD
ATOM     10  C   UNL     1       2.614  -3.571  -0.512  0.00  0.00    +0.220 A 
ATOM     11  N   UNL     1       3.846  -4.073  -0.654  0.00  0.00    -0.214 NA
ATOM     12  C   UNL     1       4.017  -5.406  -0.797  0.00  0.00    +0.077 A 
ATOM     13  C   UNL     1       2.942  -6.262  -0.822  0.00  0.00    +0.048 A 
ATOM     14  C   UNL     1       1.709  -5.673  -0.673  0.00  0.00    +0.116 A 
ATOM     15  N   UNL     1       1.521  -4.346  -0.514  0.00  0.00    -0.223 NA
BRANCH  12  16
ATOM     16  C   UNL     1       5.429  -5.826  -0.869  0.00  0.00    +0.019 A 
ATOM     17  C   UNL     1       6.414  -4.935  -1.311  0.00  0.00    +0.120 A 
ATOM     18  N   UNL     1       7.752  -5.166  -1.306  0.00  0.00    -0.263 NA
ATOM     19  C   UNL     1       8.145  -6.370  -0.850  0.00  0.00    +0.111 A 
ATOM     20  C   UNL     1       7.265  -7.353  -0.428  0.00  0.00    +0.020 A 
ATOM     21  C   UNL     1       5.895  -7.076  -0.441  0.00  0.00    +0.013 A 
ENDBRANCH  12  16
ENDBRANCH   3   8
BRANCH   5  22
ATOM     22  N   UNL     1       6.924  -0.300  -0.435  0.00  0.00    -0.281 N 
ATOM     23  H   UNL     1       7.215  -1.231  -0.695  0.00  0.00    +0.155 HD
ATOM     24  C   UNL     1       7.880   0.675  -0.209  0.00  0.00    +0.250 C 
ATOM     25  O   UNL     1       7.677   1.796   0.241  0.00  0.00    -0.270 OA
BRANCH  24  26
ATOM     26  C   UNL     1       9.286   0.351  -0.533  0.00  0.00    +0.055 A 
ATOM     27  C   UNL     1      10.125   1.419  -0.846  0.00  0.00    +0.123 A 
ATOM     28  N   UNL     1      11.444   1.293  -1.129  0.00  0.00    -0.263 NA
ATOM     29  C   UNL     1      11.950   0.047  -1.080  0.00  0.00    +0.111 A 
ATOM     30  C   UNL     1      11.198  -1.079  -0.776  0.00  0.00    +0.020 A 
ATOM     31  C   UNL     1       9.840  -0.927  -0.501  0.00  0.00    +0.016 A 
ENDBRANCH  24  26
ENDBRANCH   5  22
TORSDOF 4
