REMARK  Name = 
REMARK  8 active torsions:
REMARK  status: ('A' for Active; 'I' for Inactive)
REMARK    1  A    between atoms: C_2  and  N_3
REMARK    2  A    between atoms: C_2  and  C_4
REMARK    3  A    between atoms: C_2  and  C_10
REMARK    4  A    between atoms: C_4  and  S_5
REMARK    5  A    between atoms: S_5  and  S_6
REMARK    6  A    between atoms: S_6  and  C_7
REMARK    7  A    between atoms: C_7  and  C_8
REMARK    8  A    between atoms: C_8  and  C_9
REMARK                            x       y       z     vdW  Elec       q    Type
REMARK                         _______ _______ _______ _____ _____    ______ ____
ROOT
ATOM      1  C   UNK     1       1.982  -1.860   1.654  0.00  0.00    +0.125 C 
ENDROOT
BRANCH   1   2
ATOM      2  N   UNK     1       2.484  -2.817   0.637  0.00  0.00    -0.321 NA
ATOM      3  H   UNK     1       2.080  -3.735   0.841  0.00  0.00    +0.119 HD
ATOM      4  H   UNK     1       2.058  -2.568  -0.261  0.00  0.00    +0.119 HD
ENDBRANCH   1   2
BRANCH   1   5
ATOM      5  C   UNK     1       0.458  -1.844   1.626  0.00  0.00    +0.242 C 
ATOM      6  O   UNK     1      -0.208  -2.232   0.669  0.00  0.00    -0.299 OA
ENDBRANCH   1   5
BRANCH   1   7
ATOM      7  C   UNK     1       2.522  -0.455   1.365  0.00  0.00    +0.107 C 
BRANCH   7   8
ATOM      8  S   UNK     1       2.146   0.816   2.634  0.00  0.00    -0.091 S 
BRANCH   8   9
ATOM      9  S   UNK     1       2.840  -0.025   4.378  0.00  0.00    -0.093 S 
BRANCH   9  10
ATOM     10  C   UNK     1       4.638   0.011   4.104  0.00  0.00    +0.081 C 
BRANCH  10  11
ATOM     11  C   UNK     1       5.373  -0.589   5.297  0.00  0.00    +0.008 C 
ATOM     12  C   UNK     1       6.869  -0.634   5.026  0.00  0.00    +0.004 C 
ENDBRANCH  10  11
ENDBRANCH   9  10
ENDBRANCH   8   9
ENDBRANCH   7   8
ENDBRANCH   1   7
TORSDOF 7
