REMARK  Name = 
REMARK  7 active torsions:
REMARK  status: ('A' for Active; 'I' for Inactive)
REMARK    1  A    between atoms: C_2  and  N_25
REMARK    2  A    between atoms: N_4  and  C_5
REMARK    3  A    between atoms: C_9  and  O_10
REMARK    4  A    between atoms: O_10  and  C_11
REMARK    5  A    between atoms: C_19  and  S_21
REMARK    6  A    between atoms: S_21  and  N_22
REMARK    7  A    between atoms: N_25  and  C_26
REMARK                            x       y       z     vdW  Elec       q    Type
REMARK                         _______ _______ _______ _____ _____    ______ ____
ROOT
ATOM      1  C   UNL     1       2.099  -0.049   0.170  0.00  0.00    +0.105 C 
ATOM      2  C   UNL     1       2.632  -1.305  -0.486  0.00  0.00    +0.007 A 
ATOM      3  C   UNL     1       2.418  -2.667  -0.073  0.00  0.00    +0.043 A 
ATOM      4  C   UNL     1       2.987  -3.583  -0.941  0.00  0.00    +0.144 A 
ATOM      5  S   UNL     1       3.844  -2.806  -2.202  0.00  0.00    -0.048 S 
ATOM      6  C   UNL     1       3.405  -1.279  -1.625  0.00  0.00    +0.152 A 
ATOM      7  S   UNL     1       3.856   0.138  -2.561  0.00  0.00    +0.081 S 
ATOM      8  O   UNL     1       5.263   0.012  -2.877  0.00  0.00    -0.149 OA
ATOM      9  O   UNL     1       2.820   0.216  -3.567  0.00  0.00    -0.149 OA
ATOM     10  N   UNL     1       3.638   1.419  -1.440  0.00  0.00    -0.201 N 
ATOM     11  C   UNL     1       2.442   1.313  -0.531  0.00  0.00    +0.155 C 
ENDROOT
BRANCH  10  12
ATOM     12  C   UNL     1       3.754   2.708  -2.103  0.00  0.00    +0.055 A 
ATOM     13  C   UNL     1       2.659   3.269  -2.791  0.00  0.00    +0.070 A 
ATOM     14  C   UNL     1       2.769   4.509  -3.418  0.00  0.00    +0.122 A 
ATOM     15  C   UNL     1       4.004   5.154  -3.417  0.00  0.00    +0.046 A 
ATOM     16  C   UNL     1       5.116   4.569  -2.802  0.00  0.00    +0.005 A 
ATOM     17  C   UNL     1       4.989   3.343  -2.146  0.00  0.00    +0.025 A 
BRANCH  14  18
ATOM     18  O   UNL     1       1.756   5.172  -4.052  0.00  0.00    -0.495 OA
ATOM     19  C   UNL     1       0.470   4.559  -4.039  0.00  0.00    +0.277 C 
ENDBRANCH  14  18
ENDBRANCH  10  12
BRANCH   1  20
ATOM     20  N   UNL     1       0.635  -0.242   0.260  0.00  0.00    -0.311 NA
ATOM     21  H   UNL     1       0.237  -0.285  -0.680  0.00  0.00    +0.122 HD
ATOM     22  C   UNL     1      -0.049   0.800   1.020  0.00  0.00    +0.101 C 
ENDBRANCH   1  20
BRANCH   4  23
ATOM     23  S   UNL     1       2.945  -5.358  -1.029  0.00  0.00    +0.062 S 
ATOM     24  O   UNL     1       1.970  -5.756  -0.044  0.00  0.00    -0.153 OA
ATOM     25  O   UNL     1       4.323  -5.789  -1.007  0.00  0.00    -0.153 OA
BRANCH  23  26
ATOM     26  N   UNL     1       2.308  -5.737  -2.538  0.00  0.00    -0.203 NA
ATOM     27  H   UNL     1       1.329  -5.468  -2.617  0.00  0.00    +0.144 HD
ATOM     28  H   UNL     1       2.907  -5.416  -3.298  0.00  0.00    +0.144 HD
ENDBRANCH  23  26
ENDBRANCH   4  23
TORSDOF 5
