REMARK  Name = 
REMARK  11 active torsions:
REMARK  status: ('A' for Active; 'I' for Inactive)
REMARK    1  A    between atoms: C_2  and  C_3
REMARK    2  A    between atoms: C_2  and  N_7
REMARK    3  A    between atoms: C_2  and  C_18
REMARK    4  A    between atoms: C_3  and  C_4
REMARK    5  A    between atoms: C_4  and  C_5
REMARK    6  A    between atoms: C_4  and  C_6
REMARK    7  A    between atoms: C_8  and  O_10
REMARK    8  A    between atoms: O_10  and  C_11
REMARK    9  A    between atoms: C_11  and  C_12
REMARK   10  A    between atoms: N_20  and  C_21
REMARK   11  A    between atoms: N_25  and  C_27
REMARK                            x       y       z     vdW  Elec       q    Type
REMARK                         _______ _______ _______ _____ _____    ______ ____
ROOT
ATOM      1  C   UNL     1       5.205   0.794  -2.651  0.00  0.00    +0.162 C 
ENDROOT
BRANCH   1   2
ATOM      2  C   UNL     1       4.503  -0.137  -3.659  0.00  0.00    +0.234 C 
ATOM      3  N   UNL     1       3.491   0.475  -4.377  0.00  0.00    -0.309 N 
ATOM      4  H   UNL     1       3.296   1.456  -4.193  0.00  0.00    +0.149 HD
ATOM      5  O   UNL     1       4.773  -1.328  -3.782  0.00  0.00    -0.274 OA
BRANCH   3   6
ATOM      6  C   UNL     1       2.797  -0.227  -5.451  0.00  0.00    +0.092 C 
ATOM      7  C   UNL     1       1.902  -1.387  -4.974  0.00  0.00    +0.138 C 
ATOM      8  N   UNL     1       0.523  -0.817  -4.847  0.00  0.00    -0.268 N 
ATOM      9  C   UNL     1       0.530   0.563  -5.387  0.00  0.00    +0.118 C 
ATOM     10  C   UNL     1       1.819   0.677  -6.188  0.00  0.00    +0.043 C 
BRANCH   8  11
ATOM     11  C   UNL     1      -0.578  -1.562  -4.690  0.00  0.00    +0.169 C 
ATOM     12  N   UNL     1      -1.533  -2.208  -4.580  0.00  0.00    -0.174 NA
ENDBRANCH   8  11
ENDBRANCH   3   6
ENDBRANCH   1   2
BRANCH   1  13
ATOM     13  N   UNL     1       4.375   0.881  -1.456  0.00  0.00    -0.270 N 
ATOM     14  H   UNL     1       4.411   0.157  -0.749  0.00  0.00    +0.153 HD
ATOM     15  C   UNL     1       3.437   1.855  -1.303  0.00  0.00    +0.401 C 
ATOM     16  O   UNL     1       3.166   2.682  -2.162  0.00  0.00    -0.226 OA
BRANCH  15  17
ATOM     17  O   UNL     1       2.916   1.798  -0.058  0.00  0.00    -0.446 OA
BRANCH  17  18
ATOM     18  C   UNL     1       2.285   3.005   0.392  0.00  0.00    +0.269 C 
BRANCH  18  19
ATOM     19  C   UNL     1       0.807   2.827   0.626  0.00  0.00    -0.010 A 
ATOM     20  C   UNL     1      -0.051   2.498  -0.431  0.00  0.00    +0.007 A 
ATOM     21  C   UNL     1      -1.429   2.402  -0.222  0.00  0.00    +0.000 A 
ATOM     22  C   UNL     1      -1.962   2.636   1.045  0.00  0.00    +0.000 A 
ATOM     23  C   UNL     1      -1.120   2.967   2.103  0.00  0.00    +0.000 A 
ATOM     24  C   UNL     1       0.257   3.064   1.896  0.00  0.00    +0.007 A 
ENDBRANCH  18  19
ENDBRANCH  17  18
ENDBRANCH  15  17
ENDBRANCH   1  13
BRANCH   1  25
ATOM     25  C   UNL     1       6.625   0.332  -2.286  0.00  0.00    +0.035 C 
BRANCH  25  26
ATOM     26  C   UNL     1       7.607   0.261  -3.476  0.00  0.00    -0.015 C 
ATOM     27  C   UNL     1       8.975  -0.240  -3.002  0.00  0.00    +0.007 C 
ATOM     28  C   UNL     1       7.774   1.606  -4.185  0.00  0.00    +0.007 C 
ENDBRANCH  25  26
ENDBRANCH   1  25
TORSDOF 9
