REMARK  Name = 
REMARK  7 active torsions:
REMARK  status: ('A' for Active; 'I' for Inactive)
REMARK    1  A    between atoms: C_1  and  O_2
REMARK    2  A    between atoms: O_2  and  C_3
REMARK    3  A    between atoms: C_6  and  C_8
REMARK    4  A    between atoms: C_8  and  O_9
REMARK    5  A    between atoms: C_10  and  S_12
REMARK    6  A    between atoms: C_13  and  O_15
REMARK    7  A    between atoms: C_16  and  O_18
REMARK                            x       y       z     vdW  Elec       q    Type
REMARK                         _______ _______ _______ _____ _____    ______ ____
ROOT
ATOM      1  C   UNL     1       2.786  -0.418   1.146  0.00  0.00    +0.281 C 
ATOM      2  C   UNL     1       4.297  -0.099   1.234  0.00  0.00    +0.200 C 
ATOM      3  C   UNL     1       5.103  -1.002   0.286  0.00  0.00    +0.163 C 
ATOM      4  C   UNL     1       4.730  -2.485   0.429  0.00  0.00    +0.105 C 
ATOM      5  C   UNL     1       3.208  -2.699   0.366  0.00  0.00    +0.162 C 
ATOM      6  O   UNL     1       2.478  -1.813   1.231  0.00  0.00    -0.342 OA
ENDROOT
BRANCH   1   8
ATOM      7  C   UNL     1       0.853   0.302  -0.004  0.00  0.00    +0.197 C 
ATOM      8  O   UNL     1       2.268   0.150  -0.061  0.00  0.00    -0.352 OA
ENDBRANCH   1   8
BRANCH   2   9
ATOM      9  O   UNL     1       4.764  -0.170   2.587  0.00  0.00    -0.384 OA
ATOM     10  H   UNL     1       5.305  -0.978   2.696  0.00  0.00    +0.210 HD
ENDBRANCH   2   9
BRANCH   3  11
ATOM     11  O   UNL     1       4.933  -0.610  -1.086  0.00  0.00    -0.388 OA
ATOM     12  H   UNL     1       4.155  -0.021  -1.152  0.00  0.00    +0.210 HD
ENDBRANCH   3  11
BRANCH   4  13
ATOM     13  S   UNL     1       5.410  -3.173   2.005  0.00  0.00    -0.170 S 
ATOM     14  H   UNL     1       4.737  -4.334   1.985  0.00  0.00    +0.102 HD
ENDBRANCH   4  13
BRANCH   5  15
ATOM     15  C   UNL     1       2.675  -2.689  -1.083  0.00  0.00    +0.188 C 
BRANCH  15  16
ATOM     16  O   UNL     1       1.337  -3.190  -1.120  0.00  0.00    -0.392 OA
ATOM     17  H   UNL     1       0.840  -2.701  -0.440  0.00  0.00    +0.210 HD
ENDBRANCH  15  16
ENDBRANCH   5  15
TORSDOF 6
