REMARK  Name = 
REMARK  10 active torsions:
REMARK  status: ('A' for Active; 'I' for Inactive)
REMARK    1  A    between atoms: C_1  and  C_2
REMARK    2  A    between atoms: C_2  and  C_3
REMARK    3  A    between atoms: C_3  and  N_4
REMARK    4  A    between atoms: N_4  and  C_5
REMARK    5  A    between atoms: C_6  and  C_8
REMARK    6  A    between atoms: C_11  and  C_25
REMARK    7  A    between atoms: C_13  and  N_15
REMARK    8  A    between atoms: C_19  and  N_21
REMARK    9  A    between atoms: C_22  and  C_23
REMARK   10  A    between atoms: C_25  and  O_26
REMARK                            x       y       z     vdW  Elec       q    Type
REMARK                         _______ _______ _______ _____ _____    ______ ____
ROOT
ATOM      1  C   UNL     1       6.670   0.197   2.768  0.00  0.00    +0.283 C 
ATOM      2  C   UNL     1       6.939  -1.269   2.307  0.00  0.00    +0.163 C 
ATOM      3  C   UNL     1       7.988  -2.028   3.162  0.00  0.00    +0.196 C 
ATOM      4  C   UNL     1       8.426  -1.333   4.394  0.00  0.00    +0.068 C 
ATOM      5  C   UNL     1       7.921  -0.169   4.806  0.00  0.00    +0.205 C 
ATOM      6  O   UNL     1       6.974   0.551   4.124  0.00  0.00    -0.471 OA
ENDROOT
BRANCH   3   7
ATOM      7  N   UNL     1       9.201  -2.306   2.406  0.00  0.00    -0.268 N 
ATOM      8  H   UNL     1       9.742  -1.479   2.169  0.00  0.00    +0.259 HD
ATOM      9  C   UNL     1       9.347  -3.313   1.519  0.00  0.00    +0.377 C 
ATOM     10  N   UNL     1       8.527  -4.253   1.238  0.00  0.00    -0.130 NA
ATOM     11  H   UNL     1       7.683  -4.170   1.797  0.00  0.00    +0.306 HD
ATOM     12  N   UNL     1      10.548  -3.273   0.914  0.00  0.00    -0.289 N 
ATOM     13  H   UNL     1      10.718  -4.155   0.439  0.00  0.00    +0.255 HD
ATOM     14  H   UNL     1      11.310  -3.049   1.540  0.00  0.00    +0.255 HD
ENDBRANCH   3   7
BRANCH   2  15
ATOM     15  N   UNL     1       5.683  -2.049   2.155  0.00  0.00    -0.305 N 
ATOM     16  H   UNL     1       5.502  -2.465   1.247  0.00  0.00    +0.149 HD
ATOM     17  C   UNL     1       4.845  -2.340   3.201  0.00  0.00    +0.210 C 
ATOM     18  O   UNL     1       5.062  -1.965   4.347  0.00  0.00    -0.276 OA
ATOM     19  C   UNL     1       3.648  -3.173   2.829  0.00  0.00    +0.109 C 
ENDBRANCH   2  15
BRANCH   1  21
ATOM     20  N   UNL     1       6.950   2.558   1.896  0.00  0.00    -0.301 N 
ATOM     21  C   UNL     1       7.352   1.218   1.820  0.00  0.00    +0.258 C 
ATOM     22  O   UNL     1       8.214   0.856   1.015  0.00  0.00    -0.271 OA
ATOM     23  C   UNL     1       5.890   3.042   2.771  0.00  0.00    +0.132 C 
BRANCH  20  24
ATOM     24  C   UNL     1       7.492   3.510   0.919  0.00  0.00    +0.107 C 
BRANCH  24  26
ATOM     25  C   UNL     1       7.263   4.559  -1.362  0.00  0.00    +0.005 C 
ATOM     26  C   UNL     1       6.666   3.573  -0.368  0.00  0.00    +0.016 C 
ENDBRANCH  24  26
ENDBRANCH  20  24
ENDBRANCH   1  21
BRANCH   5  27
ATOM     27  C   UNL     1       8.395   0.368   6.120  0.00  0.00    +0.372 C 
ATOM     28  O   UNL     1       9.208  -0.166   6.857  0.00  0.00    -0.242 OA
BRANCH  27  29
ATOM     29  O   UNL     1       7.818   1.565   6.384  0.00  0.00    -0.475 OA
ATOM     30  H   UNL     1       7.182   1.788   5.676  0.00  0.00    +0.296 HD
ENDBRANCH  27  29
ENDBRANCH   5  27
TORSDOF 7
