REMARK  Name = 
REMARK  9 active torsions:
REMARK  status: ('A' for Active; 'I' for Inactive)
REMARK    1  A    between atoms: O_1  and  C_2
REMARK    2  A    between atoms: C_2  and  C_4
REMARK    3  A    between atoms: C_2  and  C_13
REMARK    4  A    between atoms: C_4  and  O_6
REMARK    5  A    between atoms: C_4  and  C_7
REMARK    6  A    between atoms: C_7  and  O_9
REMARK    7  A    between atoms: C_7  and  C_10
REMARK    8  A    between atoms: C_13  and  O_15
REMARK    9  A    between atoms: C_13  and  C_16
REMARK                            x       y       z     vdW  Elec       q    Type
REMARK                         _______ _______ _______ _____ _____    ______ ____
ROOT
ATOM      1  C   UNL     1       2.549   0.227  -0.034  0.00  0.00    +0.180 C 
ENDROOT
BRANCH   1   2
ATOM      2  O   UNL     1       2.967  -1.155   0.200  0.00  0.00    -0.386 OA
ATOM      3  H   UNL     1       3.823  -1.211  -0.275  0.00  0.00    +0.210 HD
ENDBRANCH   1   2
BRANCH   1   4
ATOM      4  C   UNL     1       3.087   1.030   1.166  0.00  0.00    +0.191 C 
BRANCH   4   5
ATOM      5  C   UNL     1       2.512   2.466   1.317  0.00  0.00    +0.073 C 
ATOM      6  O   UNL     1       3.184   3.264   2.037  0.00  0.00    -0.547 OA
ATOM      7  O   UNL     1       1.375   2.656   0.795  0.00  0.00    -0.547 OA
ENDBRANCH   4   5
BRANCH   4   8
ATOM      8  O   UNL     1       4.546   0.999   1.175  0.00  0.00    -0.383 OA
ATOM      9  H   UNL     1       4.761   0.074   1.385  0.00  0.00    +0.210 HD
ENDBRANCH   4   8
ENDBRANCH   1   4
BRANCH   1  10
ATOM     10  C   UNL     1       3.117   0.648  -1.426  0.00  0.00    +0.180 C 
BRANCH  10  11
ATOM     11  O   UNL     1       4.552   0.451  -1.346  0.00  0.00    -0.386 OA
ATOM     12  H   UNL     1       4.845   1.093  -0.663  0.00  0.00    +0.210 HD
ENDBRANCH  10  11
BRANCH  10  13
ATOM     13  C   UNL     1       2.580  -0.244  -2.569  0.00  0.00    +0.191 C 
BRANCH  13  14
ATOM     14  C   UNL     1       3.088   0.200  -3.976  0.00  0.00    +0.073 C 
ATOM     15  O   UNL     1       3.544  -0.747  -4.696  0.00  0.00    -0.547 OA
ATOM     16  O   UNL     1       2.972   1.423  -4.280  0.00  0.00    -0.547 OA
ENDBRANCH  13  14
BRANCH  13  17
ATOM     17  O   UNL     1       1.129  -0.310  -2.567  0.00  0.00    -0.383 OA
ATOM     18  H   UNL     1       0.894  -0.895  -1.831  0.00  0.00    +0.210 HD
ENDBRANCH  13  17
ENDBRANCH  10  13
ENDBRANCH   1  10
TORSDOF 9
