REMARK  Name = 
REMARK  8 active torsions:
REMARK  status: ('A' for Active; 'I' for Inactive)
REMARK    1  A    between atoms: C_2  and  C_4
REMARK    2  A    between atoms: C_5  and  N_20
REMARK    3  A    between atoms: C_7  and  N_17
REMARK    4  A    between atoms: C_8  and  N_10
REMARK    5  A    between atoms: N_10  and  C_11
REMARK    6  A    between atoms: N_10  and  C_14
REMARK    7  A    between atoms: C_11  and  C_12
REMARK    8  A    between atoms: C_14  and  C_15
REMARK                            x       y       z     vdW  Elec       q    Type
REMARK                         _______ _______ _______ _____ _____    ______ ____
ROOT
ATOM      1  C   UNL     1       3.260   1.460   0.043  0.00  0.00    +0.116 A 
ATOM      2  C   UNL     1       4.653   1.521   0.302  0.00  0.00    +0.049 A 
ATOM      3  C   UNL     1       5.344   2.697   0.696  0.00  0.00    +0.109 A 
ATOM      4  C   UNL     1       4.493   3.807   0.915  0.00  0.00    +0.300 A 
ATOM      5  C   UNL     1       3.127   3.818   0.565  0.00  0.00    +0.171 A 
ATOM      6  C   UNL     1       2.534   2.643   0.097  0.00  0.00    +0.292 A 
ENDROOT
BRANCH   1  10
ATOM      7  N   UNL     1       1.606  -0.124  -0.879  0.00  0.00    -0.325 N 
ATOM      8  H   UNL     1       1.214   0.550  -1.531  0.00  0.00    +0.145 HD
ATOM      9  H   UNL     1       1.258  -1.074  -0.936  0.00  0.00    +0.145 HD
ATOM     10  C   UNL     1       2.685   0.092  -0.080  0.00  0.00    +0.248 C 
ATOM     11  O   UNL     1       3.185  -0.834   0.546  0.00  0.00    -0.270 OA
ENDBRANCH   1  10
BRANCH   4  12
ATOM     12  N   UNL     1       4.920   4.948   1.708  0.00  0.00    +0.082 N 
ATOM     13  O   UNL     1       5.384   4.730   2.831  0.00  0.00    +0.042 OA
ATOM     14  O   UNL     1       4.746   6.071   1.210  0.00  0.00    -0.576 OA
ENDBRANCH   4  12
BRANCH   6  15
ATOM     15  N   UNL     1       1.142   2.708  -0.277  0.00  0.00    +0.081 N 
ATOM     16  O   UNL     1       0.340   3.128   0.564  0.00  0.00    +0.041 OA
ATOM     17  O   UNL     1       0.861   2.396  -1.447  0.00  0.00    -0.576 OA
ENDBRANCH   6  15
BRANCH   3  18
ATOM     18  N   UNL     1       6.742   2.689   0.871  0.00  0.00    -0.322 N 
BRANCH  18  19
ATOM     19  C   UNL     1       7.449   1.375   0.876  0.00  0.00    +0.121 C 
BRANCH  19  20
ATOM     20  C   UNL     1       8.808   1.390   1.580  0.00  0.00    +0.127 C 
ATOM     21 CL   UNL     1       9.498  -0.252   1.647  0.00  0.00    -0.124 Cl
ENDBRANCH  19  20
ENDBRANCH  18  19
BRANCH  18  22
ATOM     22  C   UNL     1       7.558   3.890   0.519  0.00  0.00    +0.121 C 
BRANCH  22  23
ATOM     23  C   UNL     1       8.043   3.961  -0.932  0.00  0.00    +0.127 C 
ATOM     24 CL   UNL     1       6.712   4.274  -2.071  0.00  0.00    -0.124 Cl
ENDBRANCH  22  23
ENDBRANCH  18  22
ENDBRANCH   3  18
TORSDOF 8
