REMARK  Name = 
REMARK  39 active torsions:
REMARK  status: ('A' for Active; 'I' for Inactive)
REMARK    1  A    between atoms: C_1  and  C_2
REMARK    2  A    between atoms: C_2  and  C_3
REMARK    3  A    between atoms: C_3  and  C_4
REMARK    4  A    between atoms: C_4  and  C_5
REMARK    5  A    between atoms: C_5  and  C_6
REMARK    6  A    between atoms: C_6  and  C_7
REMARK    7  A    between atoms: C_7  and  C_8
REMARK    8  A    between atoms: C_8  and  C_9
REMARK    9  A    between atoms: C_9  and  C_10
REMARK   10  A    between atoms: C_10  and  C_11
REMARK   11  A    between atoms: C_11  and  C_12
REMARK   12  A    between atoms: C_12  and  S_14
REMARK   13  A    between atoms: S_14  and  C_15
REMARK   14  A    between atoms: C_15  and  C_16
REMARK   15  A    between atoms: C_16  and  N_17
REMARK   16  A    between atoms: C_18  and  C_20
REMARK   17  A    between atoms: C_20  and  C_21
REMARK   18  A    between atoms: C_21  and  N_22
REMARK   19  A    between atoms: C_23  and  C_25
REMARK   20  A    between atoms: C_25  and  O_27
REMARK   21  A    between atoms: C_25  and  C_28
REMARK   22  A    between atoms: C_28  and  C_29
REMARK   23  A    between atoms: C_28  and  C_30
REMARK   24  A    between atoms: C_28  and  C_31
REMARK   25  A    between atoms: C_31  and  O_32
REMARK   26  A    between atoms: O_32  and  P_33
REMARK   27  A    between atoms: P_33  and  O_34
REMARK   28  A    between atoms: P_33  and  O_36
REMARK   29  A    between atoms: O_36  and  P_37
REMARK   30  A    between atoms: P_37  and  O_38
REMARK   31  A    between atoms: P_37  and  O_40
REMARK   32  A    between atoms: O_40  and  C_41
REMARK   33  A    between atoms: C_41  and  C_42
REMARK   34  A    between atoms: C_45  and  N_57
REMARK   35  A    between atoms: C_47  and  O_49
REMARK   36  A    between atoms: C_50  and  O_52
REMARK   37  A    between atoms: O_52  and  P_53
REMARK   38  A    between atoms: P_53  and  O_54
REMARK   39  A    between atoms: P_53  and  O_55
REMARK                            x       y       z     vdW  Elec       q    Type
REMARK                         _______ _______ _______ _____ _____    ______ ____
ROOT
ATOM      1  P   UNL     1      40.396  16.024   5.301  0.00  0.00    +0.483 P 
ATOM      2  O   UNL     1      40.227  16.848   4.024  0.00  0.00    -0.227 OA
ENDROOT
BRANCH   1   3
ATOM      3  O   UNL     1      39.058  16.885   5.978  0.00  0.00    -0.302 OA
ATOM      4  H   UNL     1      38.573  17.218   5.196  0.00  0.00    +0.222 HD
ENDBRANCH   1   3
BRANCH   1   5
ATOM      5  O   UNL     1      41.735  15.162   4.624  0.00  0.00    -0.186 OA
BRANCH   5   6
ATOM      6  P   UNL     1      43.197  16.032   4.934  0.00  0.00    +0.483 P 
ATOM      7  O   UNL     1      43.969  14.714   4.979  0.00  0.00    -0.227 OA
BRANCH   6   8
ATOM      8  O   UNL     1      42.674  16.134   6.488  0.00  0.00    -0.302 OA
ATOM      9  H   UNL     1      42.955  15.294   6.916  0.00  0.00    +0.222 HD
ENDBRANCH   6   8
BRANCH   6  10
ATOM     10  O   UNL     1      44.660  16.903   5.243  0.00  0.00    -0.284 OA
BRANCH  10  11
ATOM     11  C   UNL     1      45.036  16.836   6.645  0.00  0.00    +0.206 C 
BRANCH  11  12
ATOM     12  C   UNL     1      46.318  17.514   7.070  0.00  0.00    +0.179 C 
ATOM     13  C   UNL     1      47.523  17.009   6.313  0.00  0.00    +0.194 C 
ATOM     14  C   UNL     1      48.048  18.230   5.591  0.00  0.00    +0.196 C 
ATOM     15  C   UNL     1      46.913  19.252   5.682  0.00  0.00    +0.253 C 
ATOM     16  O   UNL     1      46.167  18.919   6.855  0.00  0.00    -0.346 OA
BRANCH  15  17
ATOM     17  N   UNL     1      47.368  20.618   5.829  0.00  0.00    -0.286 N 
ATOM     18  C   UNL     1      48.274  21.231   5.006  0.00  0.00    +0.167 A 
ATOM     19  N   UNL     1      48.926  20.692   3.963  0.00  0.00    -0.216 NA
ATOM     20  C   UNL     1      49.783  21.593   3.434  0.00  0.00    +0.225 A 
ATOM     21  N   UNL     1      49.991  22.874   3.798  0.00  0.00    -0.219 NA
ATOM     22  C   UNL     1      49.301  23.362   4.849  0.00  0.00    +0.147 A 
ATOM     23  N   UNL     1      49.555  24.671   5.243  0.00  0.00    -0.341 N 
ATOM     24  H   UNL     1      49.373  24.818   6.232  0.00  0.00    +0.144 HD
ATOM     25  H   UNL     1      50.465  24.978   4.894  0.00  0.00    +0.144 HD
ATOM     26  C   UNL     1      48.407  22.512   5.515  0.00  0.00    +0.147 A 
ATOM     27  N   UNL     1      47.621  22.674   6.636  0.00  0.00    -0.231 NA
ATOM     28  C   UNL     1      47.015  21.519   6.794  0.00  0.00    +0.203 A 
ENDBRANCH  15  17
BRANCH  14  29
ATOM     29  O   UNL     1      48.403  17.846   4.265  0.00  0.00    -0.385 OA
ATOM     30  H   UNL     1      48.708  18.667   3.822  0.00  0.00    +0.210 HD
ENDBRANCH  14  29
BRANCH  13  31
ATOM     31  O   UNL     1      48.466  16.524   7.261  0.00  0.00    -0.278 OA
BRANCH  31  32
ATOM     32  P   UNL     1      49.900  16.028   6.756  0.00  0.00    +0.473 P 
ATOM     33  O   UNL     1      50.895  17.097   6.468  0.00  0.00    -0.228 OA
BRANCH  32  34
ATOM     34  O   UNL     1      49.579  15.041   5.552  0.00  0.00    -0.303 OA
ATOM     35  H   UNL     1      49.443  15.516   4.709  0.00  0.00    +0.222 HD
ENDBRANCH  32  34
BRANCH  32  36
ATOM     36  O   UNL     1      50.325  15.051   7.944  0.00  0.00    -0.303 OA
ATOM     37  H   UNL     1      50.542  15.554   8.747  0.00  0.00    +0.222 HD
ENDBRANCH  32  36
ENDBRANCH  31  32
ENDBRANCH  13  31
ENDBRANCH  11  12
ENDBRANCH  10  11
ENDBRANCH   6  10
ENDBRANCH   5   6
ENDBRANCH   1   5
BRANCH   1  38
ATOM     38  O   UNL     1      39.448  14.665   5.224  0.00  0.00    -0.286 OA
BRANCH  38  39
ATOM     39  C   UNL     1      38.633  14.419   4.077  0.00  0.00    +0.181 C 
BRANCH  39  40
ATOM     40  C   UNL     1      37.835  13.072   4.164  0.00  0.00    +0.024 C 
ATOM     41  C   UNL     1      38.770  11.868   4.365  0.00  0.00    +0.016 C 
ATOM     42  C   UNL     1      36.919  13.090   5.411  0.00  0.00    +0.016 C 
BRANCH  40  43
ATOM     43  C   UNL     1      36.940  12.857   2.895  0.00  0.00    +0.208 C 
BRANCH  43  46
ATOM     44  N   UNL     1      37.812  11.900   0.793  0.00  0.00    -0.313 N 
ATOM     45  H   UNL     1      37.543  11.024   1.233  0.00  0.00    +0.149 HD
ATOM     46  C   UNL     1      37.661  13.049   1.538  0.00  0.00    +0.242 C 
ATOM     47  O   UNL     1      38.066  14.144   1.167  0.00  0.00    -0.273 OA
BRANCH  44  48
ATOM     48  C   UNL     1      38.455  11.847  -0.517  0.00  0.00    +0.113 C 
BRANCH  48  49
ATOM     49  C   UNL     1      39.835  12.481  -0.612  0.00  0.00    +0.114 C 
BRANCH  49  52
ATOM     50  N   UNL     1      40.755  12.327   1.610  0.00  0.00    -0.314 N 
ATOM     51  H   UNL     1      40.363  13.265   1.685  0.00  0.00    +0.149 HD
ATOM     52  C   UNL     1      40.798  11.808   0.339  0.00  0.00    +0.215 C 
ATOM     53  O   UNL     1      41.500  10.860   0.007  0.00  0.00    -0.276 OA
BRANCH  50  54
ATOM     54  C   UNL     1      41.730  11.976   2.626  0.00  0.00    +0.115 C 
BRANCH  54  55
ATOM     55  C   UNL     1      43.085  12.635   2.420  0.00  0.00    +0.096 C 
BRANCH  55  56
ATOM     56  S   UNL     1      42.840  14.306   1.736  0.00  0.00    -0.087 S 
BRANCH  56  57
ATOM     57  C   UNL     1      44.390  14.990   2.100  0.00  0.00    +0.189 C 
ATOM     58  O   UNL     1      45.366  14.297   2.390  0.00  0.00    -0.285 OA
BRANCH  57  59
ATOM     59  C   UNL     1      44.373  16.483   2.056  0.00  0.00    +0.086 C 
BRANCH  59  60
ATOM     60  C   UNL     1      45.793  16.966   2.098  0.00  0.00    +0.008 C 
BRANCH  60  61
ATOM     61  C   UNL     1      45.823  18.456   1.880  0.00  0.00    +0.000 C 
BRANCH  61  62
ATOM     62  C   UNL     1      47.155  18.762   1.250  0.00  0.00    +0.000 C 
BRANCH  62  63
ATOM     63  C   UNL     1      47.289  20.234   0.978  0.00  0.00    +0.000 C 
BRANCH  63  64
ATOM     64  C   UNL     1      48.659  20.449   0.374  0.00  0.00    +0.000 C 
BRANCH  64  65
ATOM     65  C   UNL     1      48.865  21.918   0.090  0.00  0.00    -0.000 C 
BRANCH  65  66
ATOM     66  C   UNL     1      50.285  22.157  -0.389  0.00  0.00    -0.000 C 
BRANCH  66  67
ATOM     67  C   UNL     1      50.465  23.627  -0.723  0.00  0.00    -0.000 C 
BRANCH  67  69
ATOM     68  C   UNL     1      52.015  25.347  -1.652  0.00  0.00    +0.004 C 
ATOM     69  C   UNL     1      51.859  23.888  -1.272  0.00  0.00    -0.003 C 
ENDBRANCH  67  69
ENDBRANCH  66  67
ENDBRANCH  65  66
ENDBRANCH  64  65
ENDBRANCH  63  64
ENDBRANCH  62  63
ENDBRANCH  61  62
ENDBRANCH  60  61
ENDBRANCH  59  60
ENDBRANCH  57  59
ENDBRANCH  56  57
ENDBRANCH  55  56
ENDBRANCH  54  55
ENDBRANCH  50  54
ENDBRANCH  49  52
ENDBRANCH  48  49
ENDBRANCH  44  48
ENDBRANCH  43  46
BRANCH  43  70
ATOM     70  O   UNL     1      36.313  11.566   2.936  0.00  0.00    -0.382 OA
ATOM     71  H   UNL     1      35.654  11.554   2.219  0.00  0.00    +0.210 HD
ENDBRANCH  43  70
ENDBRANCH  40  43
ENDBRANCH  39  40
ENDBRANCH  38  39
ENDBRANCH   1  38
TORSDOF 36
