REMARK  Name = 
REMARK  6 active torsions:
REMARK  status: ('A' for Active; 'I' for Inactive)
REMARK    1  A    between atoms: C_2  and  C_7
REMARK    2  A    between atoms: C_7  and  C_9
REMARK    3  A    between atoms: C_12  and  C_14
REMARK    4  A    between atoms: C_14  and  C_15
REMARK    5  A    between atoms: C_14  and  C_16
REMARK    6  A    between atoms: C_14  and  C_17
REMARK                            x       y       z     vdW  Elec       q    Type
REMARK                         _______ _______ _______ _____ _____    ______ ____
ROOT
ATOM      1  C   UNL     1       4.080   0.198  -1.997  0.00  0.00    +0.286 A 
ATOM      2  O   UNL     1       4.748  -0.992  -2.145  0.00  0.00    -0.417 OA
ATOM      3  C   UNL     1       6.023  -0.567  -2.422  0.00  0.00    +0.223 A 
ATOM      4  N   UNL     1       6.126   0.747  -2.427  0.00  0.00    -0.111 NA
ATOM      5  N   UNL     1       4.870   1.243  -2.152  0.00  0.00    -0.104 NA
ENDROOT
BRANCH   3   6
ATOM      6  C   UNL     1       7.072  -1.615  -2.666  0.00  0.00    +0.040 C 
ATOM      7  C   UNL     1       6.651  -2.517  -3.837  0.00  0.00    +0.020 C 
ATOM      8  C   UNL     1       7.262  -2.469  -1.402  0.00  0.00    +0.020 C 
ATOM      9  C   UNL     1       8.415  -0.947  -3.017  0.00  0.00    +0.020 C 
ENDBRANCH   3   6
BRANCH   1  10
ATOM     10  C   UNL     1       2.671   0.209  -1.666  0.00  0.00    +0.236 C 
ATOM     11  O   UNL     1       2.023  -0.818  -1.450  0.00  0.00    -0.285 OA
BRANCH  10  12
ATOM     12  C   UNL     1       2.021   1.609  -1.589  0.00  0.00    +0.130 C 
ATOM     13  N   UNL     1       1.510   2.000  -2.923  0.00  0.00    -0.307 NA
ATOM     14  H   UNL     1       1.748   2.978  -3.098  0.00  0.00    +0.123 HD
ATOM     15  C   UNL     1       0.047   1.866  -2.914  0.00  0.00    +0.081 C 
ATOM     16  C   UNL     1      -0.350   1.291  -1.569  0.00  0.00    +0.017 C 
ATOM     17  C   UNL     1       0.811   1.647  -0.664  0.00  0.00    +0.028 C 
ENDBRANCH  10  12
ENDBRANCH   1  10
TORSDOF 3
