REMARK  Name = 
REMARK  19 active torsions:
REMARK  status: ('A' for Active; 'I' for Inactive)
REMARK    1  A    between atoms: N_1  and  C_2
REMARK    2  A    between atoms: C_2  and  C_3
REMARK    3  A    between atoms: C_3  and  C_4
REMARK    4  A    between atoms: C_4  and  N_5
REMARK    5  A    between atoms: N_8  and  C_9
REMARK    6  A    between atoms: C_9  and  C_10
REMARK    7  A    between atoms: C_10  and  C_11
REMARK    8  A    between atoms: C_11  and  N_12
REMARK    9  A    between atoms: C_13  and  C_15
REMARK   10  A    between atoms: C_17  and  N_18
REMARK   11  A    between atoms: C_19  and  C_21
REMARK   12  A    between atoms: C_21  and  C_22
REMARK   13  A    between atoms: C_28  and  O_29
REMARK   14  A    between atoms: O_29  and  C_30
REMARK   15  A    between atoms: C_33  and  C_35
REMARK   16  A    between atoms: C_35  and  O_36
REMARK   17  A    between atoms: C_37  and  O_39
REMARK   18  A    between atoms: C_40  and  O_42
REMARK   19  A    between atoms: C_43  and  O_45
REMARK                            x       y       z     vdW  Elec       q    Type
REMARK                         _______ _______ _______ _____ _____    ______ ____
ROOT
ATOM      1  C   UNL     1       6.175  17.366   3.944  0.00  0.00    +0.042 A 
ATOM      2  C   UNL     1       6.903  16.301   4.491  0.00  0.00    +0.059 A 
ATOM      3  C   UNL     1       7.734  15.528   3.684  0.00  0.00    +0.126 A 
ATOM      4  C   UNL     1       7.844  15.828   2.326  0.00  0.00    +0.069 A 
ATOM      5  C   UNL     1       7.152  16.908   1.779  0.00  0.00    +0.038 A 
ATOM      6  C   UNL     1       6.309  17.676   2.583  0.00  0.00    +0.036 A 
ENDROOT
BRANCH   5   7
ATOM      7  N   UNL     1       7.314  17.145   0.402  0.00  0.00    -0.285 N 
ATOM      8  H   UNL     1       7.702  16.387  -0.150  0.00  0.00    +0.155 HD
ATOM      9  C   UNL     1       7.433  18.408  -0.158  0.00  0.00    +0.222 C 
ATOM     10  O   UNL     1       7.410  19.464   0.470  0.00  0.00    -0.275 OA
BRANCH   9  11
ATOM     11  C   UNL     1       7.627  18.372  -1.666  0.00  0.00    +0.138 C 
BRANCH  11  12
ATOM     12  C   UNL     1       9.046  18.017  -2.012  0.00  0.00    -0.001 A 
ATOM     13  S   UNL     1       9.505  16.377  -2.226  0.00  0.00    -0.101 S 
ATOM     14  C   UNL     1      11.114  16.805  -2.585  0.00  0.00    +0.045 A 
ATOM     15  C   UNL     1      11.309  18.170  -2.551  0.00  0.00    +0.008 A 
ATOM     16  C   UNL     1      10.114  18.868  -2.228  0.00  0.00    +0.011 A 
ENDBRANCH  11  12
ENDBRANCH   9  11
ENDBRANCH   5   7
BRANCH   1  19
ATOM     17  N   UNL     1       4.852  19.356   4.447  0.00  0.00    -0.311 N 
ATOM     18  H   UNL     1       5.364  19.823   3.710  0.00  0.00    +0.149 HD
ATOM     19  C   UNL     1       5.225  18.087   4.838  0.00  0.00    +0.244 C 
ATOM     20  O   UNL     1       4.823  17.552   5.865  0.00  0.00    -0.270 OA
BRANCH  17  21
ATOM     21  C   UNL     1       3.944  20.146   5.251  0.00  0.00    +0.106 C 
BRANCH  21  22
ATOM     22  C   UNL     1       4.699  20.950   6.305  0.00  0.00    +0.034 C 
BRANCH  22  23
ATOM     23  C   UNL     1       3.756  21.726   7.231  0.00  0.00    +0.086 C 
BRANCH  23  27
ATOM     24  N   UNL     1       3.127  21.287  10.930  0.00  0.00    -0.300 NA
ATOM     25  C   UNL     1       2.450  22.282  10.062  0.00  0.00    +0.100 C 
ATOM     26  C   UNL     1       1.852  21.708   8.750  0.00  0.00    +0.100 C 
ATOM     27  N   UNL     1       2.782  20.885   7.946  0.00  0.00    -0.300 NA
ATOM     28  C   UNL     1       3.428  19.892   8.835  0.00  0.00    +0.100 C 
ATOM     29  C   UNL     1       4.075  20.519  10.091  0.00  0.00    +0.100 C 
BRANCH  24  30
ATOM     30  C   UNL     1       2.130  20.425  11.595  0.00  0.00    +0.086 C 
BRANCH  30  31
ATOM     31  C   UNL     1       2.741  19.402  12.562  0.00  0.00    +0.030 C 
BRANCH  31  32
ATOM     32  C   UNL     1       1.650  18.537  13.189  0.00  0.00    +0.079 C 
BRANCH  32  33
ATOM     33  N   UNL     1       2.243  17.538  14.070  0.00  0.00    -0.330 NA
ATOM     34  H   UNL     1       2.773  18.001  14.808  0.00  0.00    +0.118 HD
ATOM     35  H   UNL     1       1.506  17.006  14.529  0.00  0.00    +0.118 HD
ENDBRANCH  32  33
ENDBRANCH  31  32
ENDBRANCH  30  31
ENDBRANCH  24  30
ENDBRANCH  23  27
ENDBRANCH  22  23
ENDBRANCH  21  22
ENDBRANCH  17  21
ENDBRANCH   1  19
BRANCH   3  36
ATOM     36  O   UNL     1       8.397  14.516   4.324  0.00  0.00    -0.461 OA
BRANCH  36  37
ATOM     37  C   UNL     1       8.841  13.434   3.497  0.00  0.00    +0.339 C 
ATOM     38  C   UNL     1       9.652  12.438   4.353  0.00  0.00    +0.214 C 
ATOM     39  C   UNL     1      10.019  11.221   3.486  0.00  0.00    +0.180 C 
ATOM     40  C   UNL     1       8.787  10.630   2.790  0.00  0.00    +0.177 C 
ATOM     41  C   UNL     1       8.069  11.732   2.010  0.00  0.00    +0.179 C 
ATOM     42  O   UNL     1       7.711  12.797   2.891  0.00  0.00    -0.331 OA
BRANCH  40  43
ATOM     43  O   UNL     1       9.205   9.550   1.948  0.00  0.00    -0.386 OA
ATOM     44  H   UNL     1       9.654   9.911   1.163  0.00  0.00    +0.210 HD
ENDBRANCH  40  43
BRANCH  38  45
ATOM     45  O   UNL     1      10.833  13.088   4.858  0.00  0.00    -0.383 OA
ATOM     46  H   UNL     1      11.614  12.722   4.410  0.00  0.00    +0.210 HD
ENDBRANCH  38  45
BRANCH  39  47
ATOM     47  O   UNL     1      10.664  10.214   4.273  0.00  0.00    -0.386 OA
ATOM     48  H   UNL     1      10.563   9.371   3.787  0.00  0.00    +0.210 HD
ENDBRANCH  39  47
BRANCH  41  49
ATOM     49  C   UNL     1       6.783  11.229   1.352  0.00  0.00    +0.190 C 
BRANCH  49  50
ATOM     50  O   UNL     1       6.183  12.302   0.621  0.00  0.00    -0.392 OA
ATOM     51  H   UNL     1       5.971  12.984   1.288  0.00  0.00    +0.210 HD
ENDBRANCH  49  50
ENDBRANCH  41  49
ENDBRANCH  36  37
ENDBRANCH   3  36
TORSDOF 19
