REMARK  Name = 
REMARK  1 active torsions:
REMARK  status: ('A' for Active; 'I' for Inactive)
REMARK    1  A    between atoms: N_1  and  C_2
REMARK                            x       y       z     vdW  Elec       q    Type
REMARK                         _______ _______ _______ _____ _____    ______ ____
ROOT
ATOM      1  C   UNL     1       2.392   0.015   0.014  0.00  0.00    +0.147 C 
ATOM      2  C   UNL     1       3.076  -1.205   0.621  0.00  0.00    +0.236 C 
ATOM      3  O   UNL     1       2.772  -2.376   0.461  0.00  0.00    -0.274 OA
ATOM      4  N   UNL     1       4.149  -0.775   1.338  0.00  0.00    -0.255 N 
ATOM      5  H   UNL     1       4.818  -1.401   1.754  0.00  0.00    +0.158 HD
ATOM      6  C   UNL     1       4.237   0.575   1.409  0.00  0.00    +0.221 C 
ATOM      7  O   UNL     1       5.146   1.200   1.929  0.00  0.00    -0.275 OA
ATOM      8  C   UNL     1       3.012   1.177   0.788  0.00  0.00    +0.124 C 
ENDROOT
BRANCH   1   9
ATOM      9  N   UNL     1       2.666   0.090  -1.430  0.00  0.00    -0.320 NA
ATOM     10  H   UNL     1       2.296   0.961  -1.813  0.00  0.00    +0.119 HD
ATOM     11  H   UNL     1       3.668   0.096  -1.609  0.00  0.00    +0.119 HD
ENDBRANCH   1   9
TORSDOF 1
