REMARK  Name = 
REMARK  8 active torsions:
REMARK  status: ('A' for Active; 'I' for Inactive)
REMARK    1  A    between atoms: O_1  and  C_2
REMARK    2  A    between atoms: C_2  and  C_3
REMARK    3  A    between atoms: C_3  and  O_5
REMARK    4  A    between atoms: C_3  and  C_10
REMARK    5  A    between atoms: O_5  and  P_6
REMARK    6  A    between atoms: P_6  and  O_7
REMARK    7  A    between atoms: P_6  and  O_8
REMARK    8  A    between atoms: C_10  and  O_11
REMARK                            x       y       z     vdW  Elec       q    Type
REMARK                         _______ _______ _______ _____ _____    ______ ____
ROOT
ATOM      1  C   UNL     1       3.253  -1.251  -0.076  0.00  0.00    +0.263 C 
ENDROOT
BRANCH   1   2
ATOM      2  C   UNL     1       4.769  -1.458  -0.186  0.00  0.00    +0.337 C 
ATOM      3  O   UNL     1       5.310  -2.257  -0.936  0.00  0.00    -0.248 OA
BRANCH   2   4
ATOM      4  O   UNL     1       5.468  -0.732   0.716  0.00  0.00    -0.479 OA
ATOM      5  H   UNL     1       4.894  -0.096   1.212  0.00  0.00    +0.295 HD
ENDBRANCH   2   4
ENDBRANCH   1   2
BRANCH   1   6
ATOM      6  C   UNL     1       2.903   0.234  -0.229  0.00  0.00    +0.199 C 
BRANCH   6   7
ATOM      7  O   UNL     1       3.496   0.989   0.834  0.00  0.00    -0.392 OA
ATOM      8  H   UNL     1       3.261   1.925   0.671  0.00  0.00    +0.210 HD
ENDBRANCH   6   7
ENDBRANCH   1   6
BRANCH   1   9
ATOM      9  O   UNL     1       2.481  -2.089  -0.914  0.00  0.00    -0.270 OA
BRANCH   9  10
ATOM     10  P   UNL     1       2.368  -1.801  -2.475  0.00  0.00    +0.473 P 
ATOM     11  O   UNL     1       3.591  -1.448  -3.239  0.00  0.00    -0.227 OA
BRANCH  10  12
ATOM     12  O   UNL     1       1.329  -0.585  -2.553  0.00  0.00    -0.303 OA
ATOM     13  H   UNL     1       1.628   0.021  -3.260  0.00  0.00    +0.222 HD
ENDBRANCH  10  12
BRANCH  10  14
ATOM     14  O   UNL     1       1.474  -2.986  -3.048  0.00  0.00    -0.303 OA
ATOM     15  H   UNL     1       0.646  -3.091  -2.546  0.00  0.00    +0.222 HD
ENDBRANCH  10  14
ENDBRANCH   9  10
ENDBRANCH   1   9
TORSDOF 8
