REMARK  Name = 
REMARK  5 active torsions:
REMARK  status: ('A' for Active; 'I' for Inactive)
REMARK    1  A    between atoms: N_1  and  CA_2
REMARK    2  A    between atoms: CA_2  and  C_4
REMARK    3  A    between atoms: CA_2  and  C_6
REMARK    4  A    between atoms: C_4  and  O_5
REMARK    5  A    between atoms: C_6  and  O_7
REMARK                            x       y       z     vdW  Elec       q    Type
REMARK                         _______ _______ _______ _____ _____    ______ ____
ROOT
ATOM      1  CA  UNL     1       2.557   0.067   0.162  0.00  0.00    +0.186 C 
ENDROOT
BRANCH   1   2
ATOM      2  N   UNL     1       2.937  -0.930  -0.893  0.00  0.00    -0.317 NA
ATOM      3  H1  UNL     1       2.508  -0.635  -1.777  0.00  0.00    +0.119 HD
ATOM      4  H2  UNL     1       3.945  -0.839  -1.066  0.00  0.00    +0.119 HD
ENDBRANCH   1   2
BRANCH   1   5
ATOM      5  C   UNL     1       3.089  -0.456   1.509  0.00  0.00    +0.324 C 
ATOM      6  O   UNL     1       3.231   0.186   2.537  0.00  0.00    -0.249 OA
BRANCH   5   7
ATOM      7  O   UNL     1       3.338  -1.795   1.441  0.00  0.00    -0.479 OA
ATOM      8  H   UNL     1       3.126  -2.069   0.514  0.00  0.00    +0.295 HD
ENDBRANCH   5   7
ENDBRANCH   1   5
BRANCH   1   9
ATOM      9  C   UNL     1       3.089   1.469  -0.170  0.00  0.00    +0.185 C 
BRANCH   9  10
ATOM     10  O   UNL     1       2.530   2.497   0.638  0.00  0.00    -0.393 OA
ATOM     11  H   UNL     1       1.563   2.405   0.659  0.00  0.00    +0.209 HD
ENDBRANCH   9  10
ENDBRANCH   1   9
TORSDOF 5
