REMARK  Name = 
REMARK  19 active torsions:
REMARK  status: ('A' for Active; 'I' for Inactive)
REMARK    1  A    between atoms: N_1  and  C_2
REMARK    2  A    between atoms: C_5  and  N_7
REMARK    3  A    between atoms: C_8  and  C_10
REMARK    4  A    between atoms: C_10  and  C_11
REMARK    5  A    between atoms: C_11  and  C_12
REMARK    6  A    between atoms: C_12  and  C_13
REMARK    7  A    between atoms: C_13  and  C_15
REMARK    8  A    between atoms: C_13  and  C_34
REMARK    9  A    between atoms: C_18  and  C_21
REMARK   10  A    between atoms: N_23  and  CA_24
REMARK   11  A    between atoms: CA_24  and  CB_26
REMARK   12  A    between atoms: CA_24  and  C_31
REMARK   13  A    between atoms: CB_26  and  CG_27
REMARK   14  A    between atoms: CG_27  and  CD_28
REMARK   15  A    between atoms: CD_28  and  OE1_29
REMARK   16  A    between atoms: C_31  and  O_32
REMARK   17  A    between atoms: C_34  and  O_35
REMARK   18  A    between atoms: C_34  and  O_36
REMARK   19  A    between atoms: C_34  and  C_37
REMARK                            x       y       z     vdW  Elec       q    Type
REMARK                         _______ _______ _______ _____ _____    ______ ____
ROOT
ATOM      1  C   UNK A   0       5.719  -5.415  -6.748  0.00  0.00    +0.112 C 
ENDROOT
BRANCH   1   2
ATOM      2  C   UNK A   0       6.299  -6.265  -5.607  0.00  0.00    -0.037 A 
ATOM      3  C   UNK A   0       6.966  -7.468  -5.910  0.00  0.00    +0.005 A 
ATOM      4  C   UNK A   0       7.614  -8.213  -4.914  0.00  0.00    +0.013 A 
ATOM      5  C   UNK A   0       7.616  -7.762  -3.591  0.00  0.00    +0.037 A 
ATOM      6  C   UNK A   0       6.905  -6.606  -3.268  0.00  0.00    +0.013 A 
ATOM      7  C   UNK A   0       6.250  -5.868  -4.262  0.00  0.00    +0.005 A 
BRANCH   5   8
ATOM      8  C   UNK A   0       8.392  -8.445  -2.511  0.00  0.00    +0.245 C 
ATOM      9  N   GLU A   1       9.545  -9.094  -2.913  0.00  0.00    -0.298 N 
ATOM     10  H   GLU A   1       9.857  -9.000  -3.875  0.00  0.00    +0.150 HD
ATOM     11  O   UNK A   0       8.056  -8.346  -1.341  0.00  0.00    -0.270 OA
BRANCH   9  12
ATOM     12  CA  GLU A   1      10.546  -9.577  -1.950  0.00  0.00    +0.182 C 
BRANCH  12  13
ATOM     13  C   GLU A   1      11.167 -10.840  -2.564  0.00  0.00    +0.325 C 
ATOM     14  OXT GLU A   1      12.364 -11.076  -2.632  0.00  0.00    -0.249 OA
BRANCH  13  15
ATOM     15  O   GLU A   1      10.225 -11.705  -3.019  0.00  0.00    -0.479 OA
ATOM     16  H   GLU A   1       9.320 -11.385  -2.820  0.00  0.00    +0.295 HD
ENDBRANCH  13  15
ENDBRANCH  12  13
BRANCH  12  17
ATOM     17  CB  GLU A   1      11.619  -8.528  -1.623  0.00  0.00    +0.045 C 
BRANCH  17  18
ATOM     18  CG  GLU A   1      11.059  -7.290  -0.929  0.00  0.00    +0.123 C 
BRANCH  18  19
ATOM     19  CD  GLU A   1      12.138  -6.273  -0.674  0.00  0.00    +0.305 C 
ATOM     20  OE2 GLU A   1      12.476  -5.431  -1.498  0.00  0.00    -0.251 OA
BRANCH  19  21
ATOM     21  OE1 GLU A   1      12.717  -6.383   0.538  0.00  0.00    -0.481 OA
ATOM     22  HE1 GLU A   1      12.361  -7.100   1.101  0.00  0.00    +0.295 HD
ENDBRANCH  19  21
ENDBRANCH  18  19
ENDBRANCH  17  18
ENDBRANCH  12  17
ENDBRANCH   9  12
ENDBRANCH   5   8
ENDBRANCH   1   2
BRANCH   1  23
ATOM     23  C   UNK A   0       4.315  -5.875  -7.247  0.00  0.00    +0.343 C 
BRANCH  23  24
ATOM     24  C   UNK A   0       3.169  -5.703  -6.180  0.00  0.00    +0.468 C 
ATOM     25  F   UNK A   0       2.598  -6.913  -5.935  0.00  0.00    -0.164 F 
ATOM     26  F   UNK A   0       2.183  -4.885  -6.615  0.00  0.00    -0.164 F 
ATOM     27  F   UNK A   0       3.593  -5.212  -4.999  0.00  0.00    -0.164 F 
ENDBRANCH  23  24
BRANCH  23  28
ATOM     28  O   UNK A   0       4.450  -7.241  -7.687  0.00  0.00    -0.499 OA
ATOM     29  H   UNK A   0       3.688  -7.731  -7.318  0.00  0.00    +0.288 HD
ENDBRANCH  23  28
BRANCH  23  30
ATOM     30  O   UNK A   0       3.980  -5.149  -8.445  0.00  0.00    -0.499 OA
ATOM     31  H   UNK A   0       4.781  -5.084  -8.989  0.00  0.00    +0.288 HD
ENDBRANCH  23  30
ENDBRANCH   1  23
BRANCH   1  32
ATOM     32  C   UNK A   0       5.802  -3.878  -6.514  0.00  0.00    +0.016 C 
BRANCH  32  33
ATOM     33  C   UNK A   0       7.260  -3.443  -6.336  0.00  0.00    +0.002 C 
BRANCH  33  34
ATOM     34  C   UNK A   0       7.441  -1.948  -6.066  0.00  0.00    +0.015 C 
BRANCH  34  40
ATOM     35  C   UNK A   0      11.733  -2.477  -5.611  0.00  0.00    +0.212 C 
ATOM     36  N   UNK A   0      10.885  -2.397  -4.487  0.00  0.00    -0.287 N 
ATOM     37  H   UNK A   0      11.187  -2.708  -3.567  0.00  0.00    +0.151 HD
ATOM     38  C   UNK A   0       9.487  -2.174  -4.582  0.00  0.00    +0.221 C 
ATOM     39  O   UNK A   0       8.816  -2.416  -3.591  0.00  0.00    -0.275 OA
ATOM     40  C   UNK A   0       8.925  -1.566  -5.847  0.00  0.00    +0.106 C 
ATOM     41  C   UNK A   0       9.818  -1.943  -7.020  0.00  0.00    +0.133 C 
ATOM     42  N   UNK A   0      11.205  -1.769  -6.724  0.00  0.00    -0.270 NA
ATOM     43  H   UNK A   0      11.826  -1.345  -7.399  0.00  0.00    +0.126 HD
BRANCH  41  44
ATOM     44  N   UNK A   0       9.569  -1.117  -8.169  0.00  0.00    -0.315 NA
ATOM     45  H   UNK A   0       9.746  -0.127  -8.005  0.00  0.00    +0.120 HD
ATOM     46  H   UNK A   0      10.068  -1.411  -9.003  0.00  0.00    +0.120 HD
ENDBRANCH  41  44
BRANCH  35  47
ATOM     47  N   UNK A   0      13.009  -1.933  -5.309  0.00  0.00    -0.300 NA
ATOM     48  H   UNK A   0      13.865  -2.422  -5.560  0.00  0.00    +0.121 HD
ATOM     49  H   UNK A   0      13.137  -1.182  -4.635  0.00  0.00    +0.121 HD
ENDBRANCH  35  47
ENDBRANCH  34  40
ENDBRANCH  33  34
ENDBRANCH  32  33
ENDBRANCH   1  32
TORSDOF 19
