REMARK  Name = 
REMARK  8 active torsions:
REMARK  status: ('A' for Active; 'I' for Inactive)
REMARK    1  A    between atoms: O_1  and  N_2
REMARK    2  A    between atoms: C_3  and  C_5
REMARK    3  A    between atoms: C_5  and  O_7
REMARK    4  A    between atoms: C_5  and  C_8
REMARK    5  A    between atoms: C_8  and  O_10
REMARK    6  A    between atoms: C_8  and  C_11
REMARK    7  A    between atoms: C_11  and  O_13
REMARK    8  A    between atoms: C_11  and  C_14
REMARK                            x       y       z     vdW  Elec       q    Type
REMARK                         _______ _______ _______ _____ _____    ______ ____
ROOT
ATOM      1  C   UNL     1       4.628   0.500   1.158  0.00  0.00    +0.233 C 
ENDROOT
BRANCH   1   4
ATOM      2  N   UNL     1       2.666  -0.222  -0.013  0.00  0.00    -0.195 N 
ATOM      3  H   UNL     1       3.228  -1.065  -0.141  0.00  0.00    +0.182 HD
ATOM      4  C   UNL     1       3.109   0.616   0.999  0.00  0.00    +0.267 C 
ATOM      5  O   UNL     1       2.392   1.357   1.667  0.00  0.00    -0.271 OA
BRANCH   2   6
ATOM      6  O   UNL     1       1.262  -0.306  -0.173  0.00  0.00    -0.295 OA
ATOM      7  H   UNL     1       1.086  -1.255  -0.046  0.00  0.00    +0.241 HD
ENDBRANCH   2   6
ENDBRANCH   1   4
BRANCH   1   8
ATOM      8  O   UNL     1       4.971  -0.904   1.118  0.00  0.00    -0.380 OA
ATOM      9  H   UNL     1       5.866  -0.933   1.536  0.00  0.00    +0.211 HD
ENDBRANCH   1   8
BRANCH   1  10
ATOM     10  C   UNL     1       5.126   1.191   2.450  0.00  0.00    +0.186 C 
BRANCH  10  11
ATOM     11  O   UNL     1       4.659   0.470   3.620  0.00  0.00    -0.386 OA
ATOM     12  H   UNL     1       3.712   0.698   3.695  0.00  0.00    +0.210 HD
ENDBRANCH  10  11
BRANCH  10  13
ATOM     13  C   UNL     1       6.655   1.220   2.520  0.00  0.00    +0.191 C 
BRANCH  13  14
ATOM     14  C   UNL     1       7.256   2.145   1.422  0.00  0.00    +0.073 C 
ATOM     15  O   UNL     1       8.484   1.981   1.172  0.00  0.00    -0.547 OA
ATOM     16  O   UNL     1       6.450   2.982   0.916  0.00  0.00    -0.547 OA
ENDBRANCH  13  14
BRANCH  13  17
ATOM     17  O   UNL     1       7.150  -0.150   2.435  0.00  0.00    -0.383 OA
ATOM     18  H   UNL     1       7.308  -0.406   3.360  0.00  0.00    +0.210 HD
ENDBRANCH  13  17
ENDBRANCH  10  13
ENDBRANCH   1  10
TORSDOF 8
