REMARK  Name = 
REMARK  5 active torsions:
REMARK  status: ('A' for Active; 'I' for Inactive)
REMARK    1  A    between atoms: C3*_2  and  O3*_3
REMARK    2  A    between atoms: C1*_5  and  N_12
REMARK    3  A    between atoms: C4*_8  and  C5*_10
REMARK    4  A    between atoms: C5*_10  and  O5*_11
REMARK    5  A    between atoms: C_14  and  C_15
REMARK                            x       y       z     vdW  Elec       q    Type
REMARK                         _______ _______ _______ _____ _____    ______ ____
ROOT
ATOM      1  N   UNL     1       5.094   0.857   0.122  0.00  0.00    -0.273 N 
ATOM      2  C   UNL     1       5.780  -0.210  -0.442  0.00  0.00    +0.331 A 
ATOM      3  O   UNL     1       5.663  -1.376  -0.076  0.00  0.00    -0.246 OA
ATOM      4  N   UNL     1       6.624   0.111  -1.473  0.00  0.00    -0.274 N 
ATOM      5  H   UNL     1       7.137  -0.653  -1.890  0.00  0.00    +0.173 HD
ATOM      6  C   UNL     1       6.766   1.339  -2.066  0.00  0.00    +0.262 A 
ATOM      7  O   UNL     1       7.514   1.492  -3.027  0.00  0.00    -0.267 OA
ATOM      8  C   UNL     1       5.949   2.443  -1.487  0.00  0.00    +0.069 A 
ATOM      9  C   UNL     1       5.169   2.118  -0.445  0.00  0.00    +0.107 A 
ENDROOT
BRANCH   8  10
ATOM     10  C   UNL     1       5.991   3.791  -1.983  0.00  0.00    +0.027 A 
ATOM     11  S   UNL     1       4.621   4.858  -1.851  0.00  0.00    -0.081 S 
ATOM     12  C   UNL     1       5.448   6.146  -2.554  0.00  0.00    +0.055 A 
ATOM     13 BR   UNL     1       4.683   7.838  -2.794  0.00  0.00    -0.043 Br
ATOM     14  C   UNL     1       6.722   5.826  -2.935  0.00  0.00    +0.023 A 
ATOM     15  C   UNL     1       7.031   4.468  -2.611  0.00  0.00    +0.017 A 
ENDBRANCH   8  10
BRANCH   1  19
ATOM     16  C3* UNL     1       5.258   1.183   3.206  0.00  0.00    +0.150 C 
ATOM     17  C4* UNL     1       4.196   2.231   2.896  0.00  0.00    +0.175 C 
ATOM     18  O4* UNL     1       3.544   1.822   1.667  0.00  0.00    -0.348 OA
ATOM     19  C1* UNL     1       4.143   0.584   1.214  0.00  0.00    +0.226 C 
ATOM     20  C2* UNL     1       4.739  -0.031   2.474  0.00  0.00    +0.088 C 
BRANCH  16  21
ATOM     21  O3* UNL     1       5.419   0.950   4.594  0.00  0.00    -0.389 OA
ATOM     22  H3* UNL     1       4.559   0.696   4.975  0.00  0.00    +0.210 HD
ENDBRANCH  16  21
BRANCH  17  23
ATOM     23  C5* UNL     1       4.807   3.627   2.738  0.00  0.00    +0.190 C 
BRANCH  23  24
ATOM     24  O5* UNL     1       3.800   4.575   2.381  0.00  0.00    -0.392 OA
ATOM     25  H5* UNL     1       3.300   4.189   1.638  0.00  0.00    +0.210 HD
ENDBRANCH  23  24
ENDBRANCH  17  23
ENDBRANCH   1  19
TORSDOF 5
