REMARK  Name = 
REMARK  8 active torsions:
REMARK  status: ('A' for Active; 'I' for Inactive)
REMARK    1  A    between atoms: N_1  and  C_2
REMARK    2  A    between atoms: C_2  and  C_3
REMARK    3  A    between atoms: C_3  and  C_4
REMARK    4  A    between atoms: C_4  and  C_5
REMARK    5  A    between atoms: C_5  and  N_6
REMARK    6  A    between atoms: C_7  and  C_9
REMARK    7  A    between atoms: C_12  and  S_15
REMARK    8  A    between atoms: S_15  and  N_16
REMARK                            x       y       z     vdW  Elec       q    Type
REMARK                         _______ _______ _______ _____ _____    ______ ____
ROOT
ATOM      1  C   UNL     1       8.733   1.824   3.650  0.00  0.00    +0.037 A 
ATOM      2  C   UNL     1       9.466   1.560   4.815  0.00  0.00    +0.015 A 
ATOM      3  C   UNL     1      10.843   1.339   4.737  0.00  0.00    +0.029 A 
ATOM      4  C   UNL     1      11.483   1.409   3.494  0.00  0.00    +0.105 A 
ATOM      5  C   UNL     1      10.764   1.719   2.335  0.00  0.00    +0.029 A 
ATOM      6  C   UNL     1       9.389   1.938   2.416  0.00  0.00    +0.015 A 
ENDROOT
BRANCH   1   9
ATOM      7  N   UNL     1       6.562   1.386   2.684  0.00  0.00    -0.311 N 
ATOM      8  H   UNL     1       7.069   0.925   1.940  0.00  0.00    +0.149 HD
ATOM      9  C   UNL     1       7.253   1.931   3.746  0.00  0.00    +0.244 C 
ATOM     10  O   UNL     1       6.726   2.428   4.732  0.00  0.00    -0.270 OA
BRANCH   7  11
ATOM     11  C   UNL     1       5.118   1.392   2.609  0.00  0.00    +0.104 C 
BRANCH  11  12
ATOM     12  C   UNL     1       4.577   2.679   1.993  0.00  0.00    +0.020 C 
BRANCH  12  13
ATOM     13  C   UNL     1       5.046   2.879   0.548  0.00  0.00    +0.016 C 
BRANCH  13  14
ATOM     14  C   UNL     1       4.456   4.154  -0.050  0.00  0.00    +0.078 C 
BRANCH  14  15
ATOM     15  N   UNL     1       4.922   4.328  -1.420  0.00  0.00    -0.330 NA
ATOM     16  H   UNL     1       4.593   3.554  -1.997  0.00  0.00    +0.118 HD
ATOM     17  H   UNL     1       4.503   5.171  -1.813  0.00  0.00    +0.118 HD
ENDBRANCH  14  15
ENDBRANCH  13  14
ENDBRANCH  12  13
ENDBRANCH  11  12
ENDBRANCH   7  11
ENDBRANCH   1   9
BRANCH   4  18
ATOM     18  S   UNL     1      13.200   1.003   3.358  0.00  0.00    +0.056 S 
ATOM     19  O   UNL     1      13.462   0.517   2.024  0.00  0.00    -0.153 OA
ATOM     20  O   UNL     1      13.613   0.281   4.539  0.00  0.00    -0.153 OA
BRANCH  18  21
ATOM     21  N   UNL     1      13.925   2.511   3.455  0.00  0.00    -0.204 NA
ATOM     22  H   UNL     1      14.408   2.720   2.582  0.00  0.00    +0.144 HD
ATOM     23  H   UNL     1      14.526   2.552   4.279  0.00  0.00    +0.144 HD
ENDBRANCH  18  21
ENDBRANCH   4  18
TORSDOF 8
