REMARK  Name = 
REMARK  7 active torsions:
REMARK  status: ('A' for Active; 'I' for Inactive)
REMARK    1  A    between atoms: N_1  and  C_2
REMARK    2  A    between atoms: C_2  and  C_4
REMARK    3  A    between atoms: C_2  and  C_10
REMARK    4  A    between atoms: C_4  and  C_5
REMARK    5  A    between atoms: C_5  and  S_6
REMARK    6  A    between atoms: S_6  and  C_7
REMARK    7  A    between atoms: C_10  and  O_11
REMARK                            x       y       z     vdW  Elec       q    Type
REMARK                         _______ _______ _______ _____ _____    ______ ____
ROOT
ATOM      1  C   UNK     1       2.403  -0.098  -0.003  0.00  0.00    +0.161 C 
ENDROOT
BRANCH   1   2
ATOM      2  N   UNK     1       0.909  -0.146  -0.014  0.00  0.00    -0.318 NA
ATOM      3  H   UNK     1       0.573  -0.191   0.954  0.00  0.00    +0.119 HD
ATOM      4  H   UNK     1       0.563   0.753  -0.363  0.00  0.00    +0.119 HD
ENDBRANCH   1   2
BRANCH   1   5
ATOM      5  C   UNK     1       2.932  -1.545  -0.087  0.00  0.00    +0.322 C 
ATOM      6  O   UNK     1       4.103  -1.876   0.001  0.00  0.00    -0.249 OA
BRANCH   5   7
ATOM      7  O   UNK     1       1.919  -2.429  -0.284  0.00  0.00    -0.480 OA
ATOM      8  H   UNK     1       1.097  -1.879  -0.343  0.00  0.00    +0.295 HD
ENDBRANCH   5   7
ENDBRANCH   1   5
BRANCH   1   9
ATOM      9  C   UNK     1       2.962   0.578   1.255  0.00  0.00    +0.041 C 
BRANCH   9  10
ATOM     10  C   UNK     1       2.545   2.042   1.390  0.00  0.00    +0.076 C 
BRANCH  10  11
ATOM     11  S   UNK     1       3.246   2.732   2.919  0.00  0.00    -0.092 S 
BRANCH  11  12
ATOM     12  C   UNK     1       2.549   4.385   2.794  0.00  0.00    +0.400 C 
ATOM     13  F   UNK     1       1.195   4.313   2.726  0.00  0.00    -0.197 F 
ATOM     14  F   UNK     1       2.963   4.979   1.647  0.00  0.00    -0.197 F 
ENDBRANCH  11  12
ENDBRANCH  10  11
ENDBRANCH   9  10
ENDBRANCH   1   9
TORSDOF 7
