REMARK  Name = 
REMARK  5 active torsions:
REMARK  status: ('A' for Active; 'I' for Inactive)
REMARK    1  A    between atoms: C_1  and  C_2
REMARK    2  A    between atoms: C_9  and  C_11
REMARK    3  A    between atoms: C_11  and  O_12
REMARK    4  A    between atoms: C_13  and  O_15
REMARK    5  A    between atoms: C_16  and  O_18
REMARK                            x       y       z     vdW  Elec       q    Type
REMARK                         _______ _______ _______ _____ _____    ______ ____
ROOT
ATOM      1  C   UNL     1       1.333  -0.151  -0.130  0.00  0.00    +0.073 C 
ATOM      2  C   UNL     1       2.808   0.011  -0.016  0.00  0.00    +0.069 C 
ATOM      3  S   UNL     1       3.777  -1.382   0.400  0.00  0.00    -0.077 S 
ATOM      4  C   UNL     1       5.296  -0.460   0.054  0.00  0.00    +0.209 C 
ATOM      5  O   UNL     1       5.794  -0.783  -1.248  0.00  0.00    -0.355 OA
ATOM      6  C   UNL     1       6.791   0.142  -1.719  0.00  0.00    +0.176 C 
ATOM      7  C   UNL     1       6.164   1.530  -1.867  0.00  0.00    +0.176 C 
ATOM      8  C   UNL     1       5.755   1.996  -0.466  0.00  0.00    +0.173 C 
ATOM      9  C   UNL     1       4.828   0.996   0.231  0.00  0.00    +0.176 C 
ATOM     10  N   UNL     1       3.418   1.134  -0.232  0.00  0.00    -0.272 NA
ENDROOT
BRANCH   7  11
ATOM     11  O   UNL     1       7.071   2.474  -2.444  0.00  0.00    -0.387 OA
ATOM     12  H   UNL     1       7.692   2.782  -1.756  0.00  0.00    +0.210 HD
ENDBRANCH   7  11
BRANCH   8  13
ATOM     13  O   UNL     1       5.223   3.323  -0.482  0.00  0.00    -0.387 OA
ATOM     14  H   UNL     1       5.189   3.619  -1.411  0.00  0.00    +0.210 HD
ENDBRANCH   8  13
BRANCH   6  15
ATOM     15  C   UNL     1       7.377  -0.387  -3.030  0.00  0.00    +0.190 C 
BRANCH  15  16
ATOM     16  O   UNL     1       8.151  -1.560  -2.757  0.00  0.00    -0.392 OA
ATOM     17  H   UNL     1       7.625  -2.102  -2.140  0.00  0.00    +0.210 HD
ENDBRANCH  15  16
ENDBRANCH   6  15
TORSDOF 4
