REMARK  Name = 
REMARK  4 active torsions:
REMARK  status: ('A' for Active; 'I' for Inactive)
REMARK    1  A    between atoms: O_1  and  C_2
REMARK    2  A    between atoms: C_2  and  C_3
REMARK    3  A    between atoms: C_3  and  C_4
REMARK    4  A    between atoms: C_4  and  O_5
REMARK                            x       y       z     vdW  Elec       q    Type
REMARK                         _______ _______ _______ _____ _____    ______ ____
ROOT
ATOM      1  C   UNL     1       2.949  -1.058   0.859  0.00  0.00    +0.148 C 
ENDROOT
BRANCH   1   2
ATOM      2  C   UNL     1       4.452  -1.175   0.798  0.00  0.00    +0.307 C 
ATOM      3  O   UNL     1       5.041  -2.245   0.761  0.00  0.00    -0.251 OA
BRANCH   2   4
ATOM      4  O   UNL     1       5.105   0.007   0.873  0.00  0.00    -0.481 OA
ATOM      5  H   UNL     1       4.474   0.768   0.922  0.00  0.00    +0.295 HD
ENDBRANCH   2   4
ENDBRANCH   1   2
BRANCH   1   6
ATOM      6  C   UNL     1       2.417   0.089   0.020  0.00  0.00    +0.167 C 
BRANCH   6   7
ATOM      7  O   UNL     1       2.893   1.322   0.568  0.00  0.00    -0.394 OA
ATOM      8  H   UNL     1       2.378   2.035   0.141  0.00  0.00    +0.209 HD
ENDBRANCH   6   7
ENDBRANCH   1   6
TORSDOF 4
