REMARK  Name = 
REMARK  7 active torsions:
REMARK  status: ('A' for Active; 'I' for Inactive)
REMARK    1  A    between atoms: C_1  and  N_2
REMARK    2  A    between atoms: N_2  and  C_3
REMARK    3  A    between atoms: N_2  and  C_5
REMARK    4  A    between atoms: N_2  and  C_7
REMARK    5  A    between atoms: C_3  and  O_4
REMARK    6  A    between atoms: C_5  and  O_6
REMARK    7  A    between atoms: C_7  and  O_8
REMARK                            x       y       z     vdW  Elec       q    Type
REMARK                         _______ _______ _______ _____ _____    ______ ____
ROOT
ATOM      1  C   UNL     1       0.831   0.130  -0.128  0.00  0.00    +0.200 C 
ATOM      2  N   UNL     1       2.340   0.052  -0.058  0.00  0.00    +0.299 N 
ENDROOT
BRANCH   2   3
ATOM      3  C   UNL     1       2.919   1.361  -0.482  0.00  0.00    +0.308 C 
BRANCH   3   4
ATOM      4  O   UNL     1       2.496   2.426   0.340  0.00  0.00    -0.355 OA
ATOM      5  H   UNL     1       2.583   3.244  -0.182  0.00  0.00    +0.215 HD
ENDBRANCH   3   4
ENDBRANCH   2   3
BRANCH   2   6
ATOM      6  C   UNL     1       2.823  -1.030  -0.968  0.00  0.00    +0.308 C 
BRANCH   6   7
ATOM      7  O   UNL     1       2.459  -0.800  -2.310  0.00  0.00    -0.355 OA
ATOM      8  H   UNL     1       2.456  -1.666  -2.758  0.00  0.00    +0.215 HD
ENDBRANCH   6   7
ENDBRANCH   2   6
BRANCH   2   9
ATOM      9  C   UNL     1       2.753  -0.252   1.344  0.00  0.00    +0.308 C 
BRANCH   9  10
ATOM     10  O   UNL     1       2.233  -1.483   1.794  0.00  0.00    -0.355 OA
ATOM     11  H   UNL     1       2.080  -1.400   2.753  0.00  0.00    +0.215 HD
ENDBRANCH   9  10
ENDBRANCH   2   9
TORSDOF 6
