REMARK  Name = 
REMARK  8 active torsions:
REMARK  status: ('A' for Active; 'I' for Inactive)
REMARK    1  A    between atoms: C_1  and  AS_2
REMARK    2  A    between atoms: AS_2  and  C_3
REMARK    3  A    between atoms: AS_2  and  S_4
REMARK    4  A    between atoms: S_4  and  C_5
REMARK    5  A    between atoms: C_5  and  C_6
REMARK    6  A    between atoms: C_6  and  N_8
REMARK    7  A    between atoms: C_6  and  C_9
REMARK    8  A    between atoms: C_9  and  O_10
REMARK                            x       y       z     vdW  Elec       q    Type
REMARK                         _______ _______ _______ _____ _____    ______ ____
ROOT
ATOM      1  C   UNK     1       5.920  -2.719   2.246  0.00  0.00    +0.000 C 
ENDROOT
BRANCH   1   2
ATOM      2  N   UNK     1       5.408  -4.036   1.859  0.00  0.00    +0.000 NA
ATOM      3  H   UNK     1       5.824  -4.763   2.486  0.00  0.00    +0.000 HD
ATOM      4  H   UNK     1       4.373  -4.074   2.001  0.00  0.00    +0.000 HD
ENDBRANCH   1   2
BRANCH   1   5
ATOM      5  C   UNK     1       7.428  -2.721   2.142  0.00  0.00    +0.000 C 
ATOM      6  O   UNK     1       8.102  -2.502   3.137  0.00  0.00    +0.000 OA
BRANCH   5   7
ATOM      7  O   UNK     1       8.048  -2.974   0.970  0.00  0.00    +0.000 OA
ATOM      8  H   UNK     1       7.556  -3.173   0.162  0.00  0.00    +0.000 HD
ENDBRANCH   5   7
ENDBRANCH   1   5
BRANCH   1   9
ATOM      9  C   UNK     1       5.326  -1.610   1.358  0.00  0.00    +0.000 C 
BRANCH   9  10
ATOM     10  S   UNK     1       3.520  -1.485   1.603  0.00  0.00    +0.000 S 
BRANCH  10  12
ATOM     11  C   UNK     1       1.294   0.263   0.319  0.00  0.00    +0.000 C 
ATOM     12 AS   UNK     1       3.255   0.193   0.100  0.00  0.00    +0.000 As
ATOM     13  C   UNK     1       3.575   1.635   1.407  0.00  0.00    +0.000 C 
ENDBRANCH  10  12
ENDBRANCH   9  10
ENDBRANCH   1   9
TORSDOF 6
