REMARK  Name = 
REMARK  8 active torsions:
REMARK  status: ('A' for Active; 'I' for Inactive)
REMARK    1  A    between atoms: CA_2  and  N_3
REMARK    2  A    between atoms: CA_2  and  C_11
REMARK    3  A    between atoms: CA_2  and  C_14
REMARK    4  A    between atoms: C_4  and  C_6
REMARK    5  A    between atoms: C_6  and  C_7
REMARK    6  A    between atoms: C_7  and  C_8
REMARK    7  A    between atoms: C_8  and  O_9
REMARK    8  A    between atoms: C_11  and  O_12
REMARK                            x       y       z     vdW  Elec       q    Type
REMARK                         _______ _______ _______ _____ _____    ______ ____
ROOT
ATOM      1  CA  UNL     1       2.089   0.160   0.328  0.00  0.00    +0.212 C 
ENDROOT
BRANCH   1   2
ATOM      2  C   UNL     1       2.563  -1.108   1.028  0.00  0.00    -0.017 A 
ATOM      3  C   UNL     1       1.928  -2.330   0.728  0.00  0.00    +0.006 A 
ATOM      4  C   UNL     1       2.311  -3.518   1.358  0.00  0.00    +0.000 A 
ATOM      5  C   UNL     1       3.338  -3.509   2.295  0.00  0.00    +0.000 A 
ATOM      6  C   UNL     1       3.995  -2.319   2.588  0.00  0.00    +0.000 A 
ATOM      7  C   UNL     1       3.620  -1.130   1.953  0.00  0.00    +0.006 A 
ENDBRANCH   1   2
BRANCH   1   8
ATOM      8  N   UNL     1       0.648   0.401   0.496  0.00  0.00    -0.299 N 
ATOM      9  H   UNL     1       0.114   0.564  -0.349  0.00  0.00    +0.150 HD
ATOM     10  C   UNL     1       0.074   0.640   1.709  0.00  0.00    +0.214 C 
ATOM     11  O   UNL     1       0.717   0.696   2.758  0.00  0.00    -0.276 OA
BRANCH  10  12
ATOM     12  C   UNL     1      -1.424   0.778   1.737  0.00  0.00    +0.107 C 
BRANCH  12  13
ATOM     13  C   UNL     1      -2.074  -0.565   2.021  0.00  0.00    +0.129 C 
BRANCH  13  14
ATOM     14  C   UNL     1      -1.861  -1.212   3.375  0.00  0.00    +0.305 C 
ATOM     15  O   UNL     1      -2.456  -2.242   3.675  0.00  0.00    -0.251 OA
BRANCH  14  16
ATOM     16  O   UNL     1      -1.011  -0.635   4.238  0.00  0.00    -0.481 OA
ATOM     17  H   UNL     1      -0.410   0.070   3.913  0.00  0.00    +0.295 HD
ENDBRANCH  14  16
ENDBRANCH  13  14
ENDBRANCH  12  13
ENDBRANCH  10  12
ENDBRANCH   1   8
BRANCH   1  18
ATOM     18  C   UNL     1       2.882   1.450   0.610  0.00  0.00    +0.330 C 
ATOM     19  OXT UNL     1       3.507   2.062  -0.250  0.00  0.00    -0.249 OA
BRANCH  18  20
ATOM     20  O   UNL     1       2.822   1.898   1.889  0.00  0.00    -0.479 OA
ATOM     21  H   UNL     1       2.235   1.340   2.460  0.00  0.00    +0.295 HD
ENDBRANCH  18  20
ENDBRANCH   1  18
TORSDOF 8
