REMARK  Name = 
REMARK  9 active torsions:
REMARK  status: ('A' for Active; 'I' for Inactive)
REMARK    1  A    between atoms: O_1  and  C_2
REMARK    2  A    between atoms: C_2  and  C_3
REMARK    3  A    between atoms: C_6  and  O_8
REMARK    4  A    between atoms: O_8  and  C_9
REMARK    5  A    between atoms: C_11  and  O_13
REMARK    6  A    between atoms: C_16  and  O_18
REMARK    7  A    between atoms: C_19  and  O_21
REMARK    8  A    between atoms: C_22  and  O_24
REMARK    9  A    between atoms: C_25  and  O_27
REMARK                            x       y       z     vdW  Elec       q    Type
REMARK                         _______ _______ _______ _____ _____    ______ ____
ROOT
ATOM      1  O   UNL     1       5.568   2.162   7.140  0.00  0.00    -0.340 OA
ENDROOT
BRANCH   1   2
ATOM      2  C   UNL     1       6.282   2.459   8.377  0.00  0.00    +0.185 C 
ATOM      3  C   UNL     1       5.508   3.392   9.339  0.00  0.00    +0.201 C 
ATOM      4  C   UNL     1       5.912   3.241  10.822  0.00  0.00    +0.279 C 
ATOM      5  O   UNL     1       6.029   1.889  11.223  0.00  0.00    -0.346 OA
ATOM      6  C   UNL     1       7.028   1.216  10.472  0.00  0.00    +0.197 C 
ATOM      7  C   UNL     1       6.613   1.095   9.014  0.00  0.00    +0.172 C 
BRANCH   3   8
ATOM      8  O   UNL     1       5.721   4.772   8.946  0.00  0.00    -0.384 OA
ATOM      9  H   UNL     1       6.666   4.922   8.810  0.00  0.00    +0.210 HD
ENDBRANCH   3   8
BRANCH   4  10
ATOM     10  O   UNL     1       4.908   3.829  11.638  0.00  0.00    -0.365 OA
ATOM     11  H   UNL     1       5.199   3.672  12.548  0.00  0.00    +0.213 HD
ENDBRANCH   4  10
BRANCH   7  12
ATOM     12  O   UNL     1       7.682   0.476   8.281  0.00  0.00    -0.387 OA
ATOM     13  H   UNL     1       7.358   0.366   7.376  0.00  0.00    +0.210 HD
ENDBRANCH   7  12
ENDBRANCH   1   2
BRANCH   1  17
ATOM     14  C   UNL     1       3.393   4.691   5.925  0.00  0.00    +0.178 C 
ATOM     15  C   UNL     1       3.351   3.648   4.814  0.00  0.00    +0.179 C 
ATOM     16  C   UNL     1       4.685   2.908   4.968  0.00  0.00    +0.201 C 
ATOM     17  C   UNL     1       5.181   3.307   6.377  0.00  0.00    +0.282 C 
ATOM     18  O   UNL     1       4.082   4.000   6.976  0.00  0.00    -0.341 OA
BRANCH  15  19
ATOM     19  O   UNL     1       2.277   2.722   5.065  0.00  0.00    -0.386 OA
ATOM     20  H   UNL     1       2.201   2.620   6.032  0.00  0.00    +0.210 HD
ENDBRANCH  15  19
BRANCH  16  21
ATOM     21  O   UNL     1       5.609   3.357   3.966  0.00  0.00    -0.384 OA
ATOM     22  H   UNL     1       6.258   2.646   3.843  0.00  0.00    +0.210 HD
ENDBRANCH  16  21
BRANCH  14  23
ATOM     23  C   UNL     1       4.124   5.984   5.546  0.00  0.00    +0.190 C 
BRANCH  23  24
ATOM     24  O   UNL     1       3.365   6.727   4.603  0.00  0.00    -0.392 OA
ATOM     25  H   UNL     1       3.870   7.535   4.404  0.00  0.00    +0.210 HD
ENDBRANCH  23  24
ENDBRANCH  14  23
ENDBRANCH   1  17
TORSDOF 9
