REMARK  Name = 
REMARK  10 active torsions:
REMARK  status: ('A' for Active; 'I' for Inactive)
REMARK    1  A    between atoms: N_10  and  C_11
REMARK    2  A    between atoms: C_14  and  C_16
REMARK    3  A    between atoms: C_16  and  O_17
REMARK    4  A    between atoms: O_17  and  P_18
REMARK    5  A    between atoms: P_18  and  O_19
REMARK    6  A    between atoms: P_18  and  O_21
REMARK    7  A    between atoms: O_21  and  S_22
REMARK    8  A    between atoms: S_22  and  O_23
REMARK    9  A    between atoms: C_26  and  O_28
REMARK   10  A    between atoms: C_29  and  O_31
REMARK                            x       y       z     vdW  Elec       q    Type
REMARK                         _______ _______ _______ _____ _____    ______ ____
ROOT
ATOM      1  C   UNL     1       3.753  -1.127   6.709  0.00  0.00    +0.253 C 
ATOM      2  C   UNL     1       4.256  -2.149   7.740  0.00  0.00    +0.195 C 
ATOM      3  C   UNL     1       5.067  -3.160   6.925  0.00  0.00    +0.178 C 
ATOM      4  C   UNL     1       5.124  -2.566   5.517  0.00  0.00    +0.178 C 
ATOM      5  O   UNL     1       4.766  -1.175   5.660  0.00  0.00    -0.346 OA
ENDROOT
BRANCH   1  13
ATOM      6  N   UNL     1      -1.999  -2.319   5.159  0.00  0.00    -0.341 N 
ATOM      7  H   UNL     1      -1.913  -1.657   4.396  0.00  0.00    +0.144 HD
ATOM      8  H   UNL     1      -2.887  -2.372   5.641  0.00  0.00    +0.144 HD
ATOM      9  C   UNL     1      -0.932  -2.290   6.043  0.00  0.00    +0.147 A 
ATOM     10  C   UNL     1       0.339  -1.781   5.711  0.00  0.00    +0.147 A 
ATOM     11  N   UNL     1       0.833  -1.200   4.562  0.00  0.00    -0.231 NA
ATOM     12  C   UNL     1       2.086  -0.916   4.846  0.00  0.00    +0.203 A 
ATOM     13  N   UNL     1       2.442  -1.325   6.111  0.00  0.00    -0.286 N 
ATOM     14  C   UNL     1       1.311  -1.824   6.698  0.00  0.00    +0.167 A 
ATOM     15  N   UNL     1       1.155  -2.267   7.957  0.00  0.00    -0.216 NA
ATOM     16  C   UNL     1      -0.098  -2.725   8.160  0.00  0.00    +0.225 A 
ATOM     17  N   UNL     1      -1.136  -2.751   7.296  0.00  0.00    -0.219 NA
ENDBRANCH   1  13
BRANCH   2  18
ATOM     18  O   UNL     1       5.137  -1.494   8.683  0.00  0.00    -0.385 OA
ATOM     19  H   UNL     1       5.825  -1.016   8.187  0.00  0.00    +0.210 HD
ENDBRANCH   2  18
BRANCH   3  20
ATOM     20  O   UNL     1       4.422  -4.428   6.915  0.00  0.00    -0.386 OA
ATOM     21  H   UNL     1       4.996  -5.045   6.426  0.00  0.00    +0.210 HD
ENDBRANCH   3  20
BRANCH   4  22
ATOM     22  C   UNL     1       6.492  -2.723   4.839  0.00  0.00    +0.206 C 
BRANCH  22  23
ATOM     23  O   UNL     1       6.852  -4.099   4.725  0.00  0.00    -0.283 OA
BRANCH  23  24
ATOM     24  P   UNL     1       8.226  -4.439   3.864  0.00  0.00    +0.498 P 
ATOM     25  O   UNL     1       8.350  -5.963   3.836  0.00  0.00    -0.225 OA
BRANCH  24  26
ATOM     26  O   UNL     1       7.277  -4.556   2.422  0.00  0.00    -0.301 OA
ATOM     27  H   UNL     1       7.226  -5.524   2.271  0.00  0.00    +0.222 HD
ENDBRANCH  24  26
BRANCH  24  28
ATOM     28  O   UNL     1       9.175  -4.322   5.306  0.00  0.00    -0.109 OA
BRANCH  28  29
ATOM     29  S   UNL     1      10.404  -3.394   4.929  0.00  0.00    +0.216 S 
ATOM     30  O   UNL     1       9.901  -2.063   4.693  0.00  0.00    -0.118 OA
ATOM     31  O   UNL     1      11.231  -4.088   3.973  0.00  0.00    -0.118 OA
BRANCH  29  32
ATOM     32  O   UNL     1      11.204  -3.393   6.331  0.00  0.00    -0.231 OA
ATOM     33  H   UNL     1      11.285  -4.314   6.659  0.00  0.00    +0.247 HD
ENDBRANCH  29  32
ENDBRANCH  28  29
ENDBRANCH  24  28
ENDBRANCH  23  24
ENDBRANCH  22  23
ENDBRANCH   4  22
TORSDOF 10
