REMARK  Name = 
REMARK  6 active torsions:
REMARK  status: ('A' for Active; 'I' for Inactive)
REMARK    1  A    between atoms: C_1  and  O_2
REMARK    2  A    between atoms: O_2  and  C_3
REMARK    3  A    between atoms: C_6  and  C_8
REMARK    4  A    between atoms: C_9  and  O_11
REMARK    5  A    between atoms: C_12  and  O_14
REMARK    6  A    between atoms: C_15  and  O_17
REMARK                            x       y       z     vdW  Elec       q    Type
REMARK                         _______ _______ _______ _____ _____    ______ ____
ROOT
ATOM      1  C   UNL     1       2.711   0.923  -0.557  0.00  0.00    +0.281 C 
ATOM      2  C   UNL     1       3.602   1.962   0.161  0.00  0.00    +0.201 C 
ATOM      3  C   UNL     1       2.711   2.960   0.922  0.00  0.00    +0.179 C 
ATOM      4  C   UNL     1       1.686   3.589  -0.039  0.00  0.00    +0.174 C 
ATOM      5  C   UNL     1       0.916   2.539  -0.865  0.00  0.00    +0.149 C 
ATOM      6  C   UNL     1      -0.274   1.926  -0.135  0.00  0.00    +0.041 C 
ATOM      7  O   UNL     1       1.772   1.544  -1.441  0.00  0.00    -0.343 OA
ENDROOT
BRANCH   1   9
ATOM      8  C   UNL     1       1.434  -1.031  -0.106  0.00  0.00    +0.197 C 
ATOM      9  O   UNL     1       2.050   0.131   0.436  0.00  0.00    -0.352 OA
ENDBRANCH   1   9
BRANCH   2  10
ATOM     10  O   UNL     1       4.469   2.637  -0.762  0.00  0.00    -0.384 OA
ATOM     11  H   UNL     1       3.976   3.417  -1.099  0.00  0.00    +0.210 HD
ENDBRANCH   2  10
BRANCH   3  12
ATOM     12  O   UNL     1       2.060   2.363   2.049  0.00  0.00    -0.386 OA
ATOM     13  H   UNL     1       1.944   1.407   1.852  0.00  0.00    +0.210 HD
ENDBRANCH   3  12
BRANCH   4  14
ATOM     14  O   UNL     1       2.416   4.439  -0.950  0.00  0.00    -0.387 OA
ATOM     15  H   UNL     1       1.762   4.869  -1.532  0.00  0.00    +0.210 HD
ENDBRANCH   4  14
TORSDOF 4
