REMARK  Name = 
REMARK  7 active torsions:
REMARK  status: ('A' for Active; 'I' for Inactive)
REMARK    1  A    between atoms: C_1  and  S_2
REMARK    2  A    between atoms: S_2  and  C_5
REMARK    3  A    between atoms: C_5  and  C_6
REMARK    4  A    between atoms: C_6  and  CA_7
REMARK    5  A    between atoms: CA_7  and  N_9
REMARK    6  A    between atoms: CA_7  and  C_10
REMARK    7  A    between atoms: C_10  and  O_11
REMARK                            x       y       z     vdW  Elec       q    Type
REMARK                         _______ _______ _______ _____ _____    ______ ____
ROOT
ATOM      1  CA  UNL     1       5.356   0.937   3.037  0.00  0.00    +0.162 C 
ENDROOT
BRANCH   1   2
ATOM      2  N   UNL     1       4.987  -0.044   4.095  0.00  0.00    -0.318 NA
ATOM      3  H1  UNL     1       5.350   0.309   4.989  0.00  0.00    +0.119 HD
ATOM      4  H2  UNL     1       3.973  -0.026   4.225  0.00  0.00    +0.119 HD
ENDBRANCH   1   2
BRANCH   1   5
ATOM      5  C   UNL     1       6.891   1.024   2.974  0.00  0.00    +0.322 C 
ATOM      6  OXT UNL     1       7.520   1.989   2.575  0.00  0.00    -0.249 OA
BRANCH   5   7
ATOM      7  O   UNL     1       7.469  -0.123   3.417  0.00  0.00    -0.480 OA
ATOM      8  H   UNL     1       6.738  -0.731   3.686  0.00  0.00    +0.295 HD
ENDBRANCH   5   7
ENDBRANCH   1   5
BRANCH   1   9
ATOM      9  C   UNL     1       4.832   0.506   1.663  0.00  0.00    +0.052 C 
BRANCH   9  10
ATOM     10  C   UNL     1       3.310   0.505   1.570  0.00  0.00    +0.167 C 
BRANCH  10  12
ATOM     11  C   UNL     1       0.992   0.078   0.076  0.00  0.00    +0.194 C 
ATOM     12  S   UNL     1       2.762   0.014  -0.059  0.00  0.00    -0.034 S 
ATOM     13  O   UNL     1       3.167   1.042  -0.997  0.00  0.00    -0.175 OA
ATOM     14  O   UNL     1       3.134  -1.373  -0.257  0.00  0.00    -0.175 OA
ENDBRANCH  10  12
ENDBRANCH   9  10
ENDBRANCH   1   9
TORSDOF 6
