REMARK  Name = 
REMARK  24 active torsions:
REMARK  status: ('A' for Active; 'I' for Inactive)
REMARK    1  A    between atoms: C_1  and  C_2
REMARK    2  A    between atoms: C_2  and  C_3
REMARK    3  A    between atoms: C_2  and  C_4
REMARK    4  A    between atoms: N_15  and  C_16
REMARK    5  A    between atoms: C_16  and  C_17
REMARK    6  A    between atoms: C_17  and  O_19
REMARK    7  A    between atoms: C_17  and  C_20
REMARK    8  A    between atoms: C_20  and  O_22
REMARK    9  A    between atoms: C_20  and  C_23
REMARK   10  A    between atoms: C_23  and  O_25
REMARK   11  A    between atoms: C_23  and  C_26
REMARK   12  A    between atoms: C_26  and  O_27
REMARK   13  A    between atoms: O_27  and  P_28
REMARK   14  A    between atoms: P_28  and  O_31
REMARK   15  A    between atoms: O_31  and  P_32
REMARK   16  A    between atoms: P_32  and  O_33
REMARK   17  A    between atoms: P_32  and  O_35
REMARK   18  A    between atoms: O_35  and  C_36
REMARK   19  A    between atoms: C_36  and  C_37
REMARK   20  A    between atoms: C_40  and  N_48
REMARK   21  A    between atoms: C_42  and  O_44
REMARK   22  A    between atoms: C_45  and  O_47
REMARK   23  A    between atoms: C_60  and  C_61
REMARK   24  A    between atoms: C_62  and  C_63
REMARK                            x       y       z     vdW  Elec       q    Type
REMARK                         _______ _______ _______ _____ _____    ______ ____
ROOT
ATOM      1  C   UNL     1      20.864   4.509 -12.152  0.00  0.00    +0.171 C 
ENDROOT
BRANCH   1   2
ATOM      2  O   UNL     1      20.761   4.349 -10.734  0.00  0.00    -0.387 OA
ATOM      3  H   UNL     1      21.503   4.889 -10.373  0.00  0.00    +0.210 HD
ENDBRANCH   1   2
BRANCH   1   4
ATOM      4  C   UNL     1      21.110   5.990 -12.483  0.00  0.00    +0.201 C 
BRANCH   4   5
ATOM      5  O   UNL     1      22.359   6.456 -11.984  0.00  0.00    -0.325 OA
BRANCH   5   6
ATOM      6  P   UNL     1      23.785   5.905 -12.642  0.00  0.00    +0.222 P 
ATOM      7  O   UNL     1      23.968   4.699 -11.415  0.00  0.00    -0.437 OA
ATOM      8  O   UNL     1      24.916   6.794 -12.100  0.00  0.00    -0.517 OA
BRANCH   6   9
ATOM      9  O   UNL     1      23.603   7.111 -13.869  0.00  0.00    -0.229 OA
BRANCH   9  10
ATOM     10  P   UNL     1      23.340   6.492 -15.361  0.00  0.00    +0.480 P 
ATOM     11  O   UNL     1      22.090   6.986 -16.028  0.00  0.00    -0.227 OA
BRANCH  10  12
ATOM     12  O   UNL     1      23.068   4.924 -15.078  0.00  0.00    -0.302 OA
ATOM     13  H   UNL     1      22.169   4.726 -15.393  0.00  0.00    +0.222 HD
ENDBRANCH  10  12
BRANCH  10  14
ATOM     14  O   UNL     1      24.624   6.356 -16.369  0.00  0.00    -0.284 OA
BRANCH  14  15
ATOM     15  C   UNL     1      24.532   6.894 -17.706  0.00  0.00    +0.206 C 
BRANCH  15  16
ATOM     16  C   UNL     1      24.919   6.041 -18.971  0.00  0.00    +0.178 C 
ATOM     17  C   UNL     1      26.295   5.373 -19.063  0.00  0.00    +0.178 C 
ATOM     18  C   UNL     1      26.043   3.882 -18.848  0.00  0.00    +0.195 C 
ATOM     19  C   UNL     1      24.522   3.775 -18.689  0.00  0.00    +0.253 C 
ATOM     20  O   UNL     1      23.960   4.987 -19.225  0.00  0.00    -0.346 OA
BRANCH  19  21
ATOM     21  N   UNL     1      23.913   2.615 -19.329  0.00  0.00    -0.286 N 
ATOM     22  C   UNL     1      24.350   1.317 -19.210  0.00  0.00    +0.167 A 
ATOM     23  N   UNL     1      25.477   0.879 -18.623  0.00  0.00    -0.216 NA
ATOM     24  C   UNL     1      25.557  -0.468 -18.686  0.00  0.00    +0.225 A 
ATOM     25  N   UNL     1      24.664  -1.341 -19.203  0.00  0.00    -0.219 NA
ATOM     26  C   UNL     1      23.550  -0.848 -19.789  0.00  0.00    +0.147 A 
ATOM     27  N   UNL     1      22.628  -1.744 -20.309  0.00  0.00    -0.341 N 
ATOM     28  H   UNL     1      21.703  -1.356 -20.452  0.00  0.00    +0.144 HD
ATOM     29  H   UNL     1      22.710  -2.673 -19.922  0.00  0.00    +0.144 HD
ATOM     30  C   UNL     1      23.364   0.546 -19.808  0.00  0.00    +0.147 A 
ATOM     31  N   UNL     1      22.348   1.351 -20.281  0.00  0.00    -0.231 NA
ATOM     32  C   UNL     1      22.710   2.574 -19.988  0.00  0.00    +0.203 A 
ENDBRANCH  19  21
BRANCH  18  33
ATOM     33  O   UNL     1      26.721   3.415 -17.683  0.00  0.00    -0.385 OA
ATOM     34  H   UNL     1      26.598   2.445 -17.657  0.00  0.00    +0.210 HD
ENDBRANCH  18  33
BRANCH  17  35
ATOM     35  O   UNL     1      26.823   5.541 -20.404  0.00  0.00    -0.386 OA
ATOM     36  H   UNL     1      26.172   5.217 -21.054  0.00  0.00    +0.210 HD
ENDBRANCH  17  35
ENDBRANCH  15  16
ENDBRANCH  14  15
ENDBRANCH  10  14
ENDBRANCH   9  10
ENDBRANCH   6   9
ENDBRANCH   5   6
ENDBRANCH   4   5
ENDBRANCH   1   4
BRANCH   1  37
ATOM     37  C   UNL     1      19.602   3.952 -12.858  0.00  0.00    +0.175 C 
BRANCH  37  38
ATOM     38  O   UNL     1      18.399   4.559 -12.375  0.00  0.00    -0.387 OA
ATOM     39  H   UNL     1      17.658   4.118 -12.833  0.00  0.00    +0.210 HD
ENDBRANCH  37  38
BRANCH  37  40
ATOM     40  C   UNL     1      19.489   2.410 -12.789  0.00  0.00    +0.165 C 
BRANCH  40  41
ATOM     41  O   UNL     1      18.399   2.023 -13.659  0.00  0.00    -0.387 OA
ATOM     42  H   UNL     1      18.774   1.546 -14.419  0.00  0.00    +0.210 HD
ENDBRANCH  40  41
BRANCH  40  43
ATOM     43  C   UNL     1      19.217   1.818 -11.385  0.00  0.00    +0.158 C 
BRANCH  43  53
ATOM     44  C   UNL     1      19.550  -4.133 -11.867  0.00  0.00    +0.398 C 
ATOM     45  N   UNL     1      19.525  -2.517 -11.602  0.00  0.00    -0.112 N 
ATOM     46  C   UNL     1      20.697  -1.704 -11.437  0.00  0.00    +0.241 A 
ATOM     47  C   UNL     1      20.583  -0.301 -11.288  0.00  0.00    +0.117 A 
ATOM     48  C   UNL     1      21.772   0.424 -11.031  0.00  0.00    +0.036 A 
ATOM     49  C   UNL     1      23.028  -0.193 -10.860  0.00  0.00    -0.045 A 
ATOM     50  C   UNL     1      23.127  -1.568 -11.023  0.00  0.00    -0.041 A 
ATOM     51  C   UNL     1      24.380  -2.369 -10.775  0.00  0.00    +0.044 C 
ATOM     52  C   UNL     1      24.225   0.645 -10.505  0.00  0.00    +0.044 C 
ATOM     53  N   UNL     1      19.325   0.326 -11.415  0.00  0.00    -0.312 N 
ATOM     54  C   UNL     1      18.195  -0.450 -11.591  0.00  0.00    +0.218 A 
ATOM     55  N   UNL     1      17.002   0.035 -11.725  0.00  0.00    -0.169 NA
ATOM     56  C   UNL     1      15.885  -0.737 -11.879  0.00  0.00    +0.351 A 
ATOM     57  O   UNL     1      14.754  -0.321 -11.666  0.00  0.00    -0.245 OA
ATOM     58  N   UNL     1      16.046  -2.052 -12.200  0.00  0.00    -0.268 N 
ATOM     59  H   UNL     1      15.144  -2.519 -12.148  0.00  0.00    +0.174 HD
ATOM     60  C   UNL     1      17.060  -2.699 -11.569  0.00  0.00    +0.328 A 
ATOM     61  O   UNL     1      16.951  -3.706 -10.885  0.00  0.00    -0.260 OA
ATOM     62  C   UNL     1      21.977  -2.273 -11.390  0.00  0.00    +0.084 A 
ATOM     63  C   UNL     1      18.357  -1.951 -11.603  0.00  0.00    +0.324 A 
ATOM     64  O   UNL     1      18.736  -4.483 -12.711  0.00  0.00    -0.218 OA
BRANCH  44  66
ATOM     65  C   UNL     1      20.087  -6.277 -10.574  0.00  0.00    +0.022 C 
ATOM     66  C   UNL     1      20.625  -5.056 -11.304  0.00  0.00    +0.124 C 
ATOM     67  C   UNL     1      21.527  -5.502 -12.468  0.00  0.00    +0.022 C 
ENDBRANCH  44  66
ENDBRANCH  43  53
ENDBRANCH  40  43
ENDBRANCH  37  40
ENDBRANCH   1  37
TORSDOF 20
