REMARK  Name = 
REMARK  11 active torsions:
REMARK  status: ('A' for Active; 'I' for Inactive)
REMARK    1  A    between atoms: N_1  and  C_2
REMARK    2  A    between atoms: C_2  and  C_3
REMARK    3  A    between atoms: C_3  and  O_4
REMARK    4  A    between atoms: O_4  and  P_5
REMARK    5  A    between atoms: P_5  and  O_6
REMARK    6  A    between atoms: P_5  and  O_8
REMARK    7  A    between atoms: O_8  and  C_9
REMARK    8  A    between atoms: C_9  and  C_10
REMARK    9  A    between atoms: C_10  and  O_12
REMARK   10  A    between atoms: C_10  and  C_13
REMARK   11  A    between atoms: C_13  and  O_14
REMARK                            x       y       z     vdW  Elec       q    Type
REMARK                         _______ _______ _______ _____ _____    ______ ____
ROOT
ATOM      1  P   UNL     1       4.901  -0.403   3.107  0.00  0.00    +0.475 P 
ATOM      2  O   UNL     1       4.894   1.118   3.295  0.00  0.00    -0.227 OA
ENDROOT
BRANCH   1   3
ATOM      3  O   UNL     1       6.410  -0.706   2.557  0.00  0.00    -0.302 OA
ATOM      4  H   UNL     1       6.857   0.163   2.536  0.00  0.00    +0.222 HD
ENDBRANCH   1   3
BRANCH   1   5
ATOM      5  O   UNL     1       4.324  -0.192   1.489  0.00  0.00    -0.285 OA
BRANCH   5   6
ATOM      6  C   UNL     1       4.417  -1.356   0.665  0.00  0.00    +0.187 C 
BRANCH   6   7
ATOM      7  C   UNL     1       3.740  -2.585   1.288  0.00  0.00    +0.106 C 
BRANCH   7   8
ATOM      8  N   UNL     1       2.332  -2.333   1.588  0.00  0.00    -0.328 NA
ATOM      9  H   UNL     1       1.867  -2.000   0.737  0.00  0.00    +0.118 HD
ATOM     10  H   UNL     1       1.873  -3.221   1.825  0.00  0.00    +0.118 HD
ENDBRANCH   7   8
ENDBRANCH   6   7
ENDBRANCH   5   6
ENDBRANCH   1   5
BRANCH   1  11
ATOM     11  O   UNL     1       5.477  -0.613   4.724  0.00  0.00    -0.284 OA
BRANCH  11  12
ATOM     12  C   UNL     1       4.496  -0.282   5.700  0.00  0.00    +0.206 C 
BRANCH  12  13
ATOM     13  C   UNL     1       5.067  -0.454   7.101  0.00  0.00    +0.166 C 
BRANCH  13  14
ATOM     14  O   UNL     1       4.104  -0.047   8.087  0.00  0.00    -0.387 OA
ATOM     15  H   UNL     1       3.856   0.875   7.887  0.00  0.00    +0.210 HD
ENDBRANCH  13  14
BRANCH  13  16
ATOM     16  C   UNL     1       5.442  -1.908   7.378  0.00  0.00    +0.189 C 
BRANCH  16  17
ATOM     17  O   UNL     1       6.051  -2.007   8.667  0.00  0.00    -0.392 OA
ATOM     18  H   UNL     1       5.543  -1.393   9.241  0.00  0.00    +0.210 HD
ENDBRANCH  16  17
ENDBRANCH  13  16
ENDBRANCH  12  13
ENDBRANCH  11  12
ENDBRANCH   1  11
TORSDOF 11
