REMARK  Name = 
REMARK  3 active torsions:
REMARK  status: ('A' for Active; 'I' for Inactive)
REMARK    1  A    between atoms: O_1  and  C_2
REMARK    2  A    between atoms: C_5  and  C_8
REMARK    3  A    between atoms: C_16  and  O_17
REMARK                            x       y       z     vdW  Elec       q    Type
REMARK                         _______ _______ _______ _____ _____    ______ ____
ROOT
ATOM      1  C   UNL     1       6.811   0.072  -0.651  0.00  0.00    +0.211 C 
ATOM      2  O   UNL     1       7.423   1.305  -0.229  0.00  0.00    -0.483 OA
ATOM      3  C   UNL     1       8.787   1.310  -0.369  0.00  0.00    +0.135 A 
ATOM      4  C   UNL     1       9.559   0.151  -0.462  0.00  0.00    +0.059 A 
ATOM      5  C   UNL     1      10.948   0.227  -0.613  0.00  0.00    +0.018 A 
ATOM      6  C   UNL     1      11.571   1.475  -0.643  0.00  0.00    +0.046 A 
ATOM      7  C   UNL     1      10.797   2.628  -0.520  0.00  0.00    +0.120 A 
ATOM      8  C   UNL     1       8.884  -1.158  -0.340  0.00  0.00    +0.170 C 
ATOM      9  O   UNL     1       9.500  -2.205  -0.505  0.00  0.00    -0.292 OA
ATOM     10  C   UNL     1       9.412   2.556  -0.386  0.00  0.00    +0.091 A 
ATOM     11  C   UNL     1       7.440  -1.114   0.067  0.00  0.00    +0.129 C 
ENDROOT
BRANCH   1  15
ATOM     12  C   UNL     1       2.543   0.261   0.011  0.00  0.00    +0.117 A 
ATOM     13  C   UNL     1       3.049  -0.441  -1.075  0.00  0.00    +0.046 A 
ATOM     14  C   UNL     1       4.429  -0.506  -1.277  0.00  0.00    +0.011 A 
ATOM     15  C   UNL     1       5.314   0.138  -0.395  0.00  0.00    -0.007 A 
ATOM     16  C   UNL     1       4.780   0.818   0.713  0.00  0.00    +0.011 A 
ATOM     17  C   UNL     1       3.398   0.885   0.913  0.00  0.00    +0.046 A 
BRANCH  12  18
ATOM     18  O   UNL     1       1.189   0.320   0.154  0.00  0.00    -0.507 OA
ATOM     19  H   UNL     1       0.982   0.909   0.898  0.00  0.00    +0.292 HD
ENDBRANCH  12  18
ENDBRANCH   1  15
BRANCH   7  20
ATOM     20  O   UNL     1      11.369   3.865  -0.524  0.00  0.00    -0.507 OA
ATOM     21  H   UNL     1      12.334   3.768  -0.596  0.00  0.00    +0.292 HD
ENDBRANCH   7  20
TORSDOF 3
