REMARK  Name = 
REMARK  14 active torsions:
REMARK  status: ('A' for Active; 'I' for Inactive)
REMARK    1  A    between atoms: N_10  and  C_11
REMARK    2  A    between atoms: C_14  and  C_16
REMARK    3  A    between atoms: C_16  and  O_17
REMARK    4  A    between atoms: O_17  and  P_18
REMARK    5  A    between atoms: P_18  and  O_19
REMARK    6  A    between atoms: P_18  and  O_21
REMARK    7  A    between atoms: O_21  and  P_22
REMARK    8  A    between atoms: P_22  and  O_23
REMARK    9  A    between atoms: P_22  and  C_25
REMARK   10  A    between atoms: C_25  and  P_26
REMARK   11  A    between atoms: P_26  and  O_27
REMARK   12  A    between atoms: P_26  and  O_28
REMARK   13  A    between atoms: C_30  and  O_32
REMARK   14  A    between atoms: C_33  and  O_35
REMARK                            x       y       z     vdW  Elec       q    Type
REMARK                         _______ _______ _______ _____ _____    ______ ____
ROOT
ATOM      1  C   UNL     1       6.672  -3.200   0.023  0.00  0.00    +0.253 C 
ATOM      2  C   UNL     1       6.694  -4.609   0.614  0.00  0.00    +0.195 C 
ATOM      3  C   UNL     1       8.013  -4.682   1.387  0.00  0.00    +0.178 C 
ATOM      4  C   UNL     1       8.543  -3.253   1.458  0.00  0.00    +0.178 C 
ATOM      5  O   UNL     1       7.473  -2.407   0.953  0.00  0.00    -0.346 OA
ENDROOT
BRANCH   1  13
ATOM      6  N   UNL     1       8.173  -3.164  -5.855  0.00  0.00    -0.341 N 
ATOM      7  H   UNL     1       8.224  -2.149  -5.823  0.00  0.00    +0.144 HD
ATOM      8  H   UNL     1       7.837  -3.587  -6.715  0.00  0.00    +0.144 HD
ATOM      9  C   UNL     1       7.631  -3.742  -4.732  0.00  0.00    +0.147 A 
ATOM     10  C   UNL     1       7.572  -3.098  -3.482  0.00  0.00    +0.147 A 
ATOM     11  N   UNL     1       7.943  -1.834  -3.082  0.00  0.00    -0.231 NA
ATOM     12  C   UNL     1       7.645  -1.787  -1.804  0.00  0.00    +0.203 A 
ATOM     13  N   UNL     1       7.148  -2.988  -1.340  0.00  0.00    -0.286 N 
ATOM     14  C   UNL     1       7.010  -3.815  -2.432  0.00  0.00    +0.167 A 
ATOM     15  N   UNL     1       6.493  -5.048  -2.493  0.00  0.00    -0.216 NA
ATOM     16  C   UNL     1       6.588  -5.552  -3.734  0.00  0.00    +0.225 A 
ATOM     17  N   UNL     1       7.112  -4.984  -4.842  0.00  0.00    -0.219 NA
ENDBRANCH   1  13
BRANCH   2  18
ATOM     18  O   UNL     1       5.590  -4.771   1.533  0.00  0.00    -0.385 OA
ATOM     19  H   UNL     1       5.553  -3.995   2.118  0.00  0.00    +0.210 HD
ENDBRANCH   2  18
BRANCH   3  20
ATOM     20  O   UNL     1       8.915  -5.517   0.660  0.00  0.00    -0.386 OA
ATOM     21  H   UNL     1       9.744  -5.575   1.172  0.00  0.00    +0.210 HD
ENDBRANCH   3  20
BRANCH   4  22
ATOM     22  C   UNL     1       9.024  -2.759   2.862  0.00  0.00    +0.206 C 
BRANCH  22  23
ATOM     23  O   UNL     1       9.863  -3.660   3.614  0.00  0.00    -0.284 OA
BRANCH  23  24
ATOM     24  P   UNL     1      11.388  -3.258   3.993  0.00  0.00    +0.482 P 
ATOM     25  O   UNL     1      11.871  -2.012   3.324  0.00  0.00    -0.227 OA
BRANCH  24  26
ATOM     26  O   UNL     1      12.177  -4.561   3.509  0.00  0.00    -0.302 OA
ATOM     27  H   UNL     1      11.851  -5.407   3.864  0.00  0.00    +0.222 HD
ENDBRANCH  24  26
BRANCH  24  28
ATOM     28  O   UNL     1      11.645  -3.275   5.563  0.00  0.00    -0.208 OA
BRANCH  28  29
ATOM     29  P   UNL     1      11.364  -4.219   6.794  0.00  0.00    +0.350 P 
ATOM     30  O   UNL     1      10.003  -4.833   6.801  0.00  0.00    -0.258 OA
BRANCH  29  31
ATOM     31  O   UNL     1      11.472  -3.153   8.014  0.00  0.00    -0.323 OA
ATOM     32  H   UNL     1      10.686  -2.591   8.136  0.00  0.00    +0.220 HD
ENDBRANCH  29  31
BRANCH  29  33
ATOM     33  C   UNL     1      12.679  -5.301   7.315  0.00  0.00    +0.254 C 
BRANCH  33  34
ATOM     34  P   UNL     1      13.935  -6.234   6.534  0.00  0.00    +0.339 P 
ATOM     35  O   UNL     1      13.556  -7.088   5.373  0.00  0.00    -0.258 OA
BRANCH  34  36
ATOM     36  O   UNL     1      14.594  -7.081   7.732  0.00  0.00    -0.324 OA
ATOM     37  H   UNL     1      14.144  -7.921   7.952  0.00  0.00    +0.220 HD
ENDBRANCH  34  36
BRANCH  34  38
ATOM     38  O   UNL     1      15.151  -5.237   6.251  0.00  0.00    -0.324 OA
ATOM     39  H   UNL     1      15.958  -5.700   5.953  0.00  0.00    +0.220 HD
ENDBRANCH  34  38
ENDBRANCH  33  34
ENDBRANCH  29  33
ENDBRANCH  28  29
ENDBRANCH  24  28
ENDBRANCH  23  24
ENDBRANCH  22  23
ENDBRANCH   4  22
TORSDOF 14
