REMARK  Name = 
REMARK  8 active torsions:
REMARK  status: ('A' for Active; 'I' for Inactive)
REMARK    1  A    between atoms: N_6  and  C_9
REMARK    2  A    between atoms: C_12  and  C_14
REMARK    3  A    between atoms: C_14  and  O_15
REMARK    4  A    between atoms: C_16  and  O_18
REMARK    5  A    between atoms: C_19  and  O_21
REMARK    6  A    between atoms: O_21  and  P_22
REMARK    7  A    between atoms: P_22  and  O_23
REMARK    8  A    between atoms: P_22  and  O_24
REMARK                            x       y       z     vdW  Elec       q    Type
REMARK                         _______ _______ _______ _____ _____    ______ ____
ROOT
ATOM      1  C   UNL     1       7.362  -0.061   0.198  0.00  0.00    +0.256 C 
ATOM      2  C   UNL     1       7.665  -1.390   0.918  0.00  0.00    +0.211 C 
ATOM      3  C   UNL     1       8.831  -1.068   1.846  0.00  0.00    +0.179 C 
ATOM      4  C   UNL     1       9.122   0.412   1.639  0.00  0.00    +0.177 C 
ATOM      5  O   UNL     1       7.995   0.988   0.960  0.00  0.00    -0.346 OA
ENDROOT
BRANCH   1  12
ATOM      6  N   UNL     1       8.986  -0.490  -5.058  0.00  0.00    -0.343 N 
ATOM      7  H   UNL     1       9.475   0.278  -5.500  0.00  0.00    +0.144 HD
ATOM      8  H   UNL     1       8.262  -0.902  -5.639  0.00  0.00    +0.144 HD
ATOM      9  C   UNL     1       8.584  -0.325  -3.763  0.00  0.00    +0.123 A 
ATOM     10  C   UNL     1       9.358   0.554  -2.872  0.00  0.00    +0.061 A 
ATOM     11  C   UNL     1       8.908   0.655  -1.623  0.00  0.00    +0.096 A 
ATOM     12  N   UNL     1       7.802  -0.042  -1.200  0.00  0.00    -0.270 N 
ATOM     13  C   UNL     1       7.082  -0.853  -2.088  0.00  0.00    +0.352 A 
ATOM     14  O   UNL     1       6.094  -1.477  -1.705  0.00  0.00    -0.244 OA
ATOM     15  N   UNL     1       7.518  -0.957  -3.386  0.00  0.00    -0.178 NA
ENDBRANCH   1  12
BRANCH   3  16
ATOM     16  O   UNL     1       9.977  -1.834   1.473  0.00  0.00    -0.386 OA
ATOM     17  H   UNL     1      10.683  -1.663   2.120  0.00  0.00    +0.210 HD
ENDBRANCH   3  16
BRANCH   2  18
ATOM     18  O   UNL     1       6.523  -1.779   1.685  0.00  0.00    -0.276 OA
BRANCH  18  19
ATOM     19  P   UNL     1       6.546  -3.197   2.423  0.00  0.00    +0.473 P 
ATOM     20  O   UNL     1       7.777  -4.022   2.289  0.00  0.00    -0.228 OA
BRANCH  19  21
ATOM     21  O   UNL     1       5.214  -3.931   1.951  0.00  0.00    -0.303 OA
ATOM     22  H   UNL     1       5.324  -4.364   1.087  0.00  0.00    +0.222 HD
ENDBRANCH  19  21
BRANCH  19  23
ATOM     23  O   UNL     1       6.218  -2.817   3.938  0.00  0.00    -0.303 OA
ATOM     24  H   UNL     1       7.026  -2.674   4.460  0.00  0.00    +0.222 HD
ENDBRANCH  19  23
ENDBRANCH  18  19
ENDBRANCH   2  18
BRANCH   4  25
ATOM     25  C   UNL     1       9.360   1.178   2.936  0.00  0.00    +0.190 C 
BRANCH  25  26
ATOM     26  O   UNL     1       8.231   1.063   3.796  0.00  0.00    -0.392 OA
ATOM     27  H   UNL     1       7.459   1.353   3.271  0.00  0.00    +0.210 HD
ENDBRANCH  25  26
ENDBRANCH   4  25
TORSDOF 8
