REMARK  Name = 
REMARK  3 active torsions:
REMARK  status: ('A' for Active; 'I' for Inactive)
REMARK    1  A    between atoms: N_4  and  C_5
REMARK    2  A    between atoms: C_5  and  C_6
REMARK    3  A    between atoms: C_6  and  C_7
REMARK                            x       y       z     vdW  Elec       q    Type
REMARK                         _______ _______ _______ _____ _____    ______ ____
ROOT
ATOM      1  O   UNL     1       0.928   0.089   0.096  0.00  0.00    -0.266 OA
ATOM      2  C   UNL     1       2.153   0.110   0.047  0.00  0.00    +0.271 A 
ATOM      3  C   UNL     1       2.901   1.377   0.026  0.00  0.00    +0.053 A 
ATOM      4  C   UNL     1       2.213   2.600   0.011  0.00  0.00    +0.014 A 
ATOM      5  C   UNL     1       2.924   3.801  -0.063  0.00  0.00    +0.001 A 
ATOM      6  C   UNL     1       4.316   3.788  -0.113  0.00  0.00    +0.001 A 
ATOM      7  C   UNL     1       5.000   2.574  -0.086  0.00  0.00    +0.014 A 
ATOM      8  C   UNL     1       4.290   1.367  -0.020  0.00  0.00    +0.053 A 
ATOM      9  C   UNL     1       5.032   0.092  -0.030  0.00  0.00    +0.274 A 
ATOM     10  O   UNL     1       6.252   0.119  -0.159  0.00  0.00    -0.266 OA
ATOM     11  N   UNL     1       4.289  -1.075   0.109  0.00  0.00    -0.249 N 
ATOM     12  N   UNL     1       2.890  -1.048  -0.019  0.00  0.00    -0.260 N 
ATOM     13  H   UNL     1       2.370  -1.917   0.045  0.00  0.00    +0.190 HD
ENDROOT
BRANCH  11  14
ATOM     14  C   UNL     1       4.882  -2.389  -0.162  0.00  0.00    +0.150 C 
BRANCH  14  15
ATOM     15  C   UNL     1       6.116  -2.707   0.696  0.00  0.00    +0.058 C 
BRANCH  15  16
ATOM     16  C   UNL     1       6.672  -4.078   0.400  0.00  0.00    -0.046 A 
ATOM     17  C   UNL     1       6.220  -5.197   1.110  0.00  0.00    +0.004 A 
ATOM     18  C   UNL     1       6.740  -6.462   0.834  0.00  0.00    +0.000 A 
ATOM     19  C   UNL     1       7.710  -6.621  -0.154  0.00  0.00    +0.000 A 
ATOM     20  C   UNL     1       8.163  -5.514  -0.869  0.00  0.00    +0.000 A 
ATOM     21  C   UNL     1       7.645  -4.248  -0.597  0.00  0.00    +0.004 A 
ENDBRANCH  15  16
ENDBRANCH  14  15
ENDBRANCH  11  14
TORSDOF 3
