REMARK  Name = 
REMARK  9 active torsions:
REMARK  status: ('A' for Active; 'I' for Inactive)
REMARK    1  A    between atoms: C_1  and  C_2
REMARK    2  A    between atoms: C_2  and  C_3
REMARK    3  A    between atoms: C_6  and  C_7
REMARK    4  A    between atoms: C_6  and  C_8
REMARK    5  A    between atoms: C_13  and  C_15
REMARK    6  A    between atoms: C_15  and  O_17
REMARK    7  A    between atoms: C_15  and  C_18
REMARK    8  A    between atoms: C_25  and  C_28
REMARK    9  A    between atoms: C_28  and  O_29
REMARK                            x       y       z     vdW  Elec       q    Type
REMARK                         _______ _______ _______ _____ _____    ______ ____
ROOT
ATOM      1  C   UNL     1       4.311   3.008   4.703  0.00  0.00    +0.175 C 
ENDROOT
BRANCH   1   7
ATOM      2  C   UNL     1       0.866   0.171  -0.063  0.00  0.00    +0.016 C 
ATOM      3  C   UNL     1       2.410   0.103  -0.081  0.00  0.00    -0.010 C 
ATOM      4  C   UNL     1       2.959   0.827   1.157  0.00  0.00    -0.038 A 
ATOM      5  C   UNL     1       2.834   2.229   1.258  0.00  0.00    +0.005 A 
ATOM      6  C   UNL     1       3.275   2.932   2.385  0.00  0.00    +0.007 A 
ATOM      7  C   UNL     1       3.885   2.260   3.445  0.00  0.00    -0.014 A 
ATOM      8  C   UNL     1       4.066   0.875   3.323  0.00  0.00    +0.011 A 
ATOM      9  C   UNL     1       3.549   0.132   2.236  0.00  0.00    -0.038 A 
ATOM     10  C   UNL     1       3.613  -1.399   2.301  0.00  0.00    -0.010 C 
ATOM     11  C   UNL     1       5.071  -1.870   2.123  0.00  0.00    +0.016 C 
ATOM     12  C   UNL     1       3.094  -1.902   3.671  0.00  0.00    +0.016 C 
ATOM     13  C   UNL     1       2.713  -2.052   1.229  0.00  0.00    +0.012 C 
ATOM     14  C   UNL     1       2.863  -1.375  -0.123  0.00  0.00    +0.012 C 
ATOM     15  C   UNL     1       2.908   0.752  -1.393  0.00  0.00    +0.016 C 
ENDBRANCH   1   7
BRANCH   1  16
ATOM     16  C   UNL     1       5.643   3.728   4.646  0.00  0.00    -0.014 A 
ATOM     17  C   UNL     1       5.850   4.855   5.457  0.00  0.00    +0.007 A 
ATOM     18  C   UNL     1       7.032   5.599   5.363  0.00  0.00    +0.009 A 
ATOM     19  C   UNL     1       8.026   5.249   4.440  0.00  0.00    -0.017 A 
ATOM     20  C   UNL     1       9.172   6.042   4.242  0.00  0.00    +0.023 A 
ATOM     21  C   UNL     1      10.113   5.691   3.260  0.00  0.00    +0.059 A 
ATOM     22  C   UNL     1       9.934   4.538   2.497  0.00  0.00    +0.015 A 
ATOM     23  C   UNL     1       8.821   3.727   2.714  0.00  0.00    +0.009 A 
ATOM     24  C   UNL     1       7.852   4.080   3.662  0.00  0.00    -0.017 A 
ATOM     25  C   UNL     1       6.684   3.317   3.802  0.00  0.00    +0.015 A 
BRANCH  21  26
ATOM     26  C   UNL     1      11.276   6.557   2.948  0.00  0.00    +0.337 C 
ATOM     27  O   UNL     1      11.680   6.746   1.812  0.00  0.00    -0.245 OA
BRANCH  26  28
ATOM     28  O   UNL     1      11.855   7.087   4.045  0.00  0.00    -0.477 OA
ATOM     29  H   UNL     1      11.543   6.713   4.887  0.00  0.00    +0.295 HD
ENDBRANCH  26  28
ENDBRANCH  21  26
ENDBRANCH   1  16
BRANCH   1  30
ATOM     30  O   UNL     1       4.311   2.154   5.848  0.00  0.00    -0.383 OA
ATOM     31  H   UNL     1       3.552   1.557   5.746  0.00  0.00    +0.211 HD
ENDBRANCH   1  30
TORSDOF 5
