REMARK  Name = 
REMARK  6 active torsions:
REMARK  status: ('A' for Active; 'I' for Inactive)
REMARK    1  A    between atoms: C_1  and  C_2
REMARK    2  A    between atoms: C_2  and  N_3
REMARK    3  A    between atoms: N_3  and  CA_4
REMARK    4  A    between atoms: CA_4  and  CB_6
REMARK    5  A    between atoms: CA_4  and  C_13
REMARK    6  A    between atoms: CB_6  and  CG_7
REMARK                            x       y       z     vdW  Elec       q    Type
REMARK                         _______ _______ _______ _____ _____    ______ ____
ROOT
ATOM      1  CA  UNL     1       4.583   1.503   0.184  0.00  0.00    +0.121 C 
ENDROOT
BRANCH   1   2
ATOM      2  N   UNL     1       5.210   0.835   1.347  0.00  0.00    -0.307 NA
ATOM      3  H   UNL     1       4.976  -0.161   1.301  0.00  0.00    +0.123 HD
BRANCH   2   5
ATOM      4  C   UNL     1       5.244   0.468   3.757  0.00  0.00    +0.020 C 
ATOM      5  C   ACE A   0       4.731   1.355   2.631  0.00  0.00    +0.078 C 
ENDBRANCH   2   5
ENDBRANCH   1   2
BRANCH   1   6
ATOM      6  C   UNL     1       5.012   2.966   0.090  0.00  0.00    +0.242 C 
ATOM      7  O   UNL     1       4.608   3.859   0.836  0.00  0.00    -0.299 OA
ENDBRANCH   1   6
BRANCH   1   8
ATOM      8  CB  UNL     1       5.004   0.802  -1.130  0.00  0.00    +0.061 C 
BRANCH   8   9
ATOM      9  CG  UNL     1       4.621  -0.658  -1.215  0.00  0.00    -0.045 A 
ATOM     10  CD2 UNL     1       5.611  -1.647  -1.299  0.00  0.00    +0.004 A 
ATOM     11  CE2 UNL     1       5.265  -2.997  -1.359  0.00  0.00    +0.000 A 
ATOM     12  CZ  UNL     1       3.924  -3.373  -1.335  0.00  0.00    +0.000 A 
ATOM     13  CE1 UNL     1       2.929  -2.399  -1.261  0.00  0.00    +0.000 A 
ATOM     14  CD1 UNL     1       3.273  -1.048  -1.207  0.00  0.00    +0.004 A 
ENDBRANCH   8   9
ENDBRANCH   1   8
TORSDOF 5
