REMARK  Name = 
REMARK  48 active torsions:
REMARK  status: ('A' for Active; 'I' for Inactive)
REMARK    1  A    between atoms: C_1  and  C_2
REMARK    2  A    between atoms: C_2  and  C_3
REMARK    3  A    between atoms: C_2  and  C_4
REMARK    4  A    between atoms: C_4  and  C_5
REMARK    5  A    between atoms: C_5  and  C_6
REMARK    6  A    between atoms: C_6  and  C_7
REMARK    7  A    between atoms: C_7  and  C_9
REMARK    8  A    between atoms: C_7  and  C_10
REMARK    9  A    between atoms: C_10  and  C_11
REMARK   10  A    between atoms: C_11  and  C_12
REMARK   11  A    between atoms: C_12  and  C_13
REMARK   12  A    between atoms: C_13  and  C_15
REMARK   13  A    between atoms: C_13  and  C_16
REMARK   14  A    between atoms: C_16  and  C_17
REMARK   15  A    between atoms: C_17  and  C_18
REMARK   16  A    between atoms: C_18  and  C_19
REMARK   17  A    between atoms: C_19  and  C_21
REMARK   18  A    between atoms: C_19  and  C_22
REMARK   19  A    between atoms: C_22  and  C_23
REMARK   20  A    between atoms: C_23  and  O_24
REMARK   21  A    between atoms: O_24  and  C_25
REMARK   22  A    between atoms: C_25  and  C_26
REMARK   23  A    between atoms: C_26  and  C_28
REMARK   24  A    between atoms: C_26  and  O_34
REMARK   25  A    between atoms: C_28  and  O_29
REMARK   26  A    between atoms: O_29  and  P_30
REMARK   27  A    between atoms: P_30  and  O_31
REMARK   28  A    between atoms: P_30  and  O_32
REMARK   29  A    between atoms: O_34  and  C_35
REMARK   30  A    between atoms: C_35  and  C_36
REMARK   31  A    between atoms: C_36  and  C_37
REMARK   32  A    between atoms: C_37  and  C_39
REMARK   33  A    between atoms: C_37  and  C_40
REMARK   34  A    between atoms: C_40  and  C_41
REMARK   35  A    between atoms: C_41  and  C_42
REMARK   36  A    between atoms: C_42  and  C_43
REMARK   37  A    between atoms: C_43  and  C_45
REMARK   38  A    between atoms: C_43  and  C_46
REMARK   39  A    between atoms: C_46  and  C_47
REMARK   40  A    between atoms: C_47  and  C_48
REMARK   41  A    between atoms: C_48  and  C_49
REMARK   42  A    between atoms: C_49  and  C_51
REMARK   43  A    between atoms: C_49  and  C_52
REMARK   44  A    between atoms: C_52  and  C_53
REMARK   45  A    between atoms: C_53  and  C_54
REMARK   46  A    between atoms: C_54  and  C_55
REMARK   47  A    between atoms: C_55  and  C_56
REMARK   48  A    between atoms: C_55  and  C_57
REMARK                            x       y       z     vdW  Elec       q    Type
REMARK                         _______ _______ _______ _____ _____    ______ ____
ROOT
ATOM      1  C   UNL     1      32.489  27.010 -13.582  0.00  0.00    +0.170 C 
ENDROOT
BRANCH   1   2
ATOM      2  C   UNL     1      31.457  28.028 -13.077  0.00  0.00    +0.206 C 
BRANCH   2   3
ATOM      3  O   UNL     1      31.583  29.246 -13.789  0.00  0.00    -0.284 OA
BRANCH   3   4
ATOM      4  P   UNL     1      30.384  30.285 -13.688  0.00  0.00    +0.472 P 
ATOM      5  O   UNL     1      30.059  30.911 -12.381  0.00  0.00    -0.228 OA
BRANCH   4   6
ATOM      6  O   UNL     1      30.869  31.332 -14.802  0.00  0.00    -0.303 OA
ATOM      7  H   UNL     1      31.740  31.687 -14.545  0.00  0.00    +0.222 HD
ENDBRANCH   4   6
BRANCH   4   8
ATOM      8  O   UNL     1      29.196  29.589 -14.493  0.00  0.00    -0.303 OA
ATOM      9  H   UNL     1      28.878  30.193 -15.187  0.00  0.00    +0.222 HD
ENDBRANCH   4   8
ENDBRANCH   3   4
ENDBRANCH   2   3
ENDBRANCH   1   2
BRANCH   1  10
ATOM     10  C   UNL     1      33.913  27.576 -13.563  0.00  0.00    +0.193 C 
BRANCH  10  11
ATOM     11  O   UNL     1      34.321  27.945 -12.249  0.00  0.00    -0.377 OA
BRANCH  11  12
ATOM     12  C   UNL     1      35.677  28.398 -12.232  0.00  0.00    +0.160 C 
BRANCH  12  13
ATOM     13  C   UNL     1      35.856  29.723 -12.975  0.00  0.00    +0.031 C 
BRANCH  13  14
ATOM     14  C   UNL     1      34.844  30.803 -12.537  0.00  0.00    -0.012 C 
ATOM     15  C   UNL     1      35.082  31.201 -11.076  0.00  0.00    +0.007 C 
BRANCH  14  16
ATOM     16  C   UNL     1      34.869  32.021 -13.486  0.00  0.00    +0.003 C 
BRANCH  16  17
ATOM     17  C   UNL     1      36.222  32.721 -13.494  0.00  0.00    +0.001 C 
BRANCH  17  18
ATOM     18  C   UNL     1      36.259  33.985 -14.345  0.00  0.00    +0.003 C 
BRANCH  18  19
ATOM     19  C   UNL     1      37.665  34.621 -14.321  0.00  0.00    -0.014 C 
ATOM     20  C   UNL     1      38.130  34.940 -12.890  0.00  0.00    +0.007 C 
BRANCH  19  21
ATOM     21  C   UNL     1      37.688  35.875 -15.215  0.00  0.00    +0.003 C 
BRANCH  21  22
ATOM     22  C   UNL     1      39.105  36.434 -15.342  0.00  0.00    +0.001 C 
BRANCH  22  23
ATOM     23  C   UNL     1      39.184  37.664 -16.240  0.00  0.00    +0.003 C 
BRANCH  23  24
ATOM     24  C   UNL     1      40.609  38.263 -16.259  0.00  0.00    -0.014 C 
ATOM     25  C   UNL     1      41.622  37.281 -16.863  0.00  0.00    +0.007 C 
BRANCH  24  26
ATOM     26  C   UNL     1      40.682  39.597 -17.032  0.00  0.00    +0.003 C 
BRANCH  26  27
ATOM     27  C   UNL     1      39.749  40.671 -16.471  0.00  0.00    +0.001 C 
BRANCH  27  28
ATOM     28  C   UNL     1      39.846  41.987 -17.248  0.00  0.00    +0.003 C 
BRANCH  28  30
ATOM     29  C   UNL     1      39.069  44.368 -17.492  0.00  0.00    +0.007 C 
ATOM     30  C   UNL     1      38.903  43.074 -16.695  0.00  0.00    -0.017 C 
ATOM     31  C   UNL     1      37.433  42.647 -16.711  0.00  0.00    +0.007 C 
ENDBRANCH  28  30
ENDBRANCH  27  28
ENDBRANCH  26  27
ENDBRANCH  24  26
ENDBRANCH  23  24
ENDBRANCH  22  23
ENDBRANCH  21  22
ENDBRANCH  19  21
ENDBRANCH  18  19
ENDBRANCH  17  18
ENDBRANCH  16  17
ENDBRANCH  14  16
ENDBRANCH  13  14
ENDBRANCH  12  13
ENDBRANCH  11  12
ENDBRANCH  10  11
ENDBRANCH   1  10
BRANCH   1  32
ATOM     32  O   UNL     1      32.110  26.599 -14.913  0.00  0.00    -0.372 OA
BRANCH  32  33
ATOM     33  C   UNL     1      32.998  25.675 -15.553  0.00  0.00    +0.160 C 
BRANCH  33  34
ATOM     34  C   UNL     1      33.131  24.375 -14.758  0.00  0.00    +0.031 C 
BRANCH  34  35
ATOM     35  C   UNL     1      34.128  23.355 -15.325  0.00  0.00    -0.012 C 
ATOM     36  C   UNL     1      33.986  22.044 -14.543  0.00  0.00    +0.007 C 
BRANCH  35  37
ATOM     37  C   UNL     1      35.584  23.868 -15.290  0.00  0.00    +0.003 C 
BRANCH  37  38
ATOM     38  C   UNL     1      36.602  22.948 -15.980  0.00  0.00    +0.001 C 
BRANCH  38  39
ATOM     39  C   UNL     1      36.297  22.651 -17.455  0.00  0.00    +0.003 C 
BRANCH  39  40
ATOM     40  C   UNL     1      36.202  23.896 -18.364  0.00  0.00    -0.014 C 
ATOM     41  C   UNL     1      37.548  24.621 -18.456  0.00  0.00    +0.007 C 
BRANCH  40  42
ATOM     42  C   UNL     1      35.702  23.533 -19.781  0.00  0.00    +0.003 C 
BRANCH  42  43
ATOM     43  C   UNL     1      34.293  22.921 -19.844  0.00  0.00    +0.001 C 
BRANCH  43  44
ATOM     44  C   UNL     1      33.213  23.835 -19.258  0.00  0.00    +0.003 C 
BRANCH  44  45
ATOM     45  C   UNL     1      31.797  23.234 -19.182  0.00  0.00    -0.014 C 
ATOM     46  C   UNL     1      31.745  21.984 -18.294  0.00  0.00    +0.007 C 
BRANCH  45  47
ATOM     47  C   UNL     1      31.218  22.974 -20.584  0.00  0.00    +0.003 C 
BRANCH  47  48
ATOM     48  C   UNL     1      29.737  22.602 -20.516  0.00  0.00    +0.001 C 
BRANCH  48  49
ATOM     49  C   UNL     1      29.111  22.410 -21.895  0.00  0.00    +0.003 C 
BRANCH  49  50
ATOM     50  C   UNL     1      27.636  21.975 -21.796  0.00  0.00    -0.017 C 
ATOM     51  C   UNL     1      27.078  21.674 -23.186  0.00  0.00    +0.007 C 
ATOM     52  C   UNL     1      26.768  23.027 -21.101  0.00  0.00    +0.007 C 
ENDBRANCH  49  50
ENDBRANCH  48  49
ENDBRANCH  47  48
ENDBRANCH  45  47
ENDBRANCH  44  45
ENDBRANCH  43  44
ENDBRANCH  42  43
ENDBRANCH  40  42
ENDBRANCH  39  40
ENDBRANCH  38  39
ENDBRANCH  37  38
ENDBRANCH  35  37
ENDBRANCH  34  35
ENDBRANCH  33  34
ENDBRANCH  32  33
ENDBRANCH   1  32
TORSDOF 38
