REMARK  Name = 
REMARK  2 active torsions:
REMARK  status: ('A' for Active; 'I' for Inactive)
REMARK    1  A    between atoms: O_1  and  C_2
REMARK    2  A    between atoms: C_5  and  C_6
REMARK                            x       y       z     vdW  Elec       q    Type
REMARK                         _______ _______ _______ _____ _____    ______ ____
ROOT
ATOM      1  C   UNL     1       2.473  -0.026   0.095  0.00  0.00    +0.117 A 
ATOM      2  C   UNL     1       3.173  -1.227   0.027  0.00  0.00    +0.046 A 
ATOM      3  C   UNL     1       4.558  -1.214  -0.141  0.00  0.00    +0.014 A 
ATOM      4  C   UNL     1       5.228   0.009  -0.237  0.00  0.00    +0.014 A 
ATOM      5  C   UNL     1       4.521   1.214  -0.160  0.00  0.00    +0.014 A 
ATOM      6  C   UNL     1       3.134   1.196   0.007  0.00  0.00    +0.046 A 
ENDROOT
BRANCH   1   7
ATOM      7  O   UNL     1       1.120  -0.091   0.249  0.00  0.00    -0.507 OA
ATOM      8  H   UNL     1       0.761   0.812   0.240  0.00  0.00    +0.292 HD
ENDBRANCH   1   7
BRANCH   4   9
ATOM      9  C   UNL     1       6.693   0.020  -0.424  0.00  0.00    +0.258 C 
ATOM     10  O   UNL     1       7.330   1.062  -0.520  0.00  0.00    -0.296 OA
ENDBRANCH   4   9
TORSDOF 2
