REMARK  Name = 
REMARK  16 active torsions:
REMARK  status: ('A' for Active; 'I' for Inactive)
REMARK    1  A    between atoms: C_1  and  C_2
REMARK    2  A    between atoms: C_2  and  O_3
REMARK    3  A    between atoms: C_2  and  O_22
REMARK    4  A    between atoms: C_2  and  C_27
REMARK    5  A    between atoms: O_3  and  C_4
REMARK    6  A    between atoms: C_7  and  C_19
REMARK    7  A    between atoms: C_9  and  O_11
REMARK    8  A    between atoms: O_11  and  P_12
REMARK    9  A    between atoms: P_12  and  O_13
REMARK   10  A    between atoms: P_12  and  O_14
REMARK   11  A    between atoms: C_16  and  O_18
REMARK   12  A    between atoms: C_19  and  O_20
REMARK   13  A    between atoms: O_22  and  P_23
REMARK   14  A    between atoms: P_23  and  O_24
REMARK   15  A    between atoms: P_23  and  O_25
REMARK   16  A    between atoms: C_27  and  O_28
REMARK                            x       y       z     vdW  Elec       q    Type
REMARK                         _______ _______ _______ _____ _____    ______ ____
ROOT
ATOM      1  C   UNL     1       2.157   2.056  -1.111  0.00  0.00    +0.158 C 
ATOM      2  C   UNL     1       3.234   1.685  -2.151  0.00  0.00    +0.177 C 
ATOM      3  C   UNL     1       3.876   2.860  -2.925  0.00  0.00    +0.185 C 
ATOM      4  C   UNL     1       3.474   4.259  -2.580  0.00  0.00    +0.018 C 
ATOM      5  C   UNL     1       2.562   4.568  -1.646  0.00  0.00    +0.038 C 
ATOM      6  C   UNL     1       1.893   3.533  -0.839  0.00  0.00    +0.076 C 
ENDROOT
BRANCH   2   7
ATOM      7  O   UNL     1       2.689   0.721  -3.073  0.00  0.00    -0.386 OA
ATOM      8  H   UNL     1       2.923  -0.172  -2.769  0.00  0.00    +0.210 HD
ENDBRANCH   2   7
BRANCH   5   9
ATOM      9  C   UNL     1       2.267   5.993  -1.342  0.00  0.00    +0.333 C 
ATOM     10  O   UNL     1       2.833   6.897  -1.937  0.00  0.00    -0.245 OA
BRANCH   9  11
ATOM     11  O   UNL     1       1.393   6.219  -0.350  0.00  0.00    -0.477 OA
ATOM     12  H   UNL     1       0.885   5.478   0.034  0.00  0.00    +0.295 HD
ENDBRANCH   9  11
ENDBRANCH   5   9
BRANCH   1  13
ATOM     13  O   UNL     1       2.557   1.460   0.152  0.00  0.00    -0.334 OA
BRANCH  13  15
ATOM     14  C   UNL     1       2.106   0.344   2.151  0.00  0.00    +0.087 C 
ATOM     15  C   UNL     1       1.486   1.256   1.073  0.00  0.00    +0.276 C 
BRANCH  15  16
ATOM     16  C   UNL     1       0.850   2.549   1.753  0.00  0.00    +0.365 C 
ATOM     17  O   UNL     1      -0.152   3.103   1.330  0.00  0.00    -0.245 OA
BRANCH  16  18
ATOM     18  O   UNL     1       1.455   3.028   2.857  0.00  0.00    -0.477 OA
ATOM     19  H   UNL     1       2.262   2.595   3.185  0.00  0.00    +0.295 HD
ENDBRANCH  16  18
ENDBRANCH  15  16
BRANCH  15  20
ATOM     20  O   UNL     1       0.439   0.547   0.408  0.00  0.00    -0.243 OA
BRANCH  20  21
ATOM     21  P   UNL     1      -0.811   0.270   1.572  0.00  0.00    +0.475 P 
ATOM     22  O   UNL     1      -1.929   0.023   2.614  0.00  0.00    -0.227 OA
BRANCH  21  23
ATOM     23  O   UNL     1      -0.546  -1.322   1.280  0.00  0.00    -0.303 OA
ATOM     24  H   UNL     1       0.026  -1.748   1.940  0.00  0.00    +0.222 HD
ENDBRANCH  21  23
BRANCH  21  25
ATOM     25  O   UNL     1      -1.818   0.438   0.299  0.00  0.00    -0.303 OA
ATOM     26  H   UNL     1      -1.840  -0.412  -0.176  0.00  0.00    +0.222 HD
ENDBRANCH  21  25
ENDBRANCH  20  21
ENDBRANCH  15  20
ENDBRANCH  13  15
ENDBRANCH   1  13
BRANCH   3  27
ATOM     27  O   UNL     1       3.819   2.671  -4.330  0.00  0.00    -0.277 OA
BRANCH  27  28
ATOM     28  P   UNL     1       2.419   2.826  -5.087  0.00  0.00    +0.473 P 
ATOM     29  O   UNL     1       1.178   2.986  -4.278  0.00  0.00    -0.228 OA
BRANCH  28  30
ATOM     30  O   UNL     1       2.455   1.654  -6.168  0.00  0.00    -0.303 OA
ATOM     31  H   UNL     1       3.279   1.693  -6.679  0.00  0.00    +0.222 HD
ENDBRANCH  28  30
BRANCH  28  32
ATOM     32  O   UNL     1       2.712   4.093  -6.019  0.00  0.00    -0.303 OA
ATOM     33  H   UNL     1       2.649   4.917  -5.503  0.00  0.00    +0.222 HD
ENDBRANCH  28  32
ENDBRANCH  27  28
ENDBRANCH   3  27
TORSDOF 15
