REMARK  Name = 
REMARK  24 active torsions:
REMARK  status: ('A' for Active; 'I' for Inactive)
REMARK    1  A    between atoms: O_1  and  C_2
REMARK    2  A    between atoms: C_2  and  C_3
REMARK    3  A    between atoms: C_6  and  O_8
REMARK    4  A    between atoms: O_8  and  C_9
REMARK    5  A    between atoms: C_9  and  C_10
REMARK    6  A    between atoms: C_10  and  C_11
REMARK    7  A    between atoms: C_11  and  N_12
REMARK    8  A    between atoms: C_13  and  C_15
REMARK    9  A    between atoms: C_17  and  C_25
REMARK   10  A    between atoms: C_19  and  C_20
REMARK   11  A    between atoms: C_20  and  N_21
REMARK   12  A    between atoms: N_27  and  C_28
REMARK   13  A    between atoms: C_28  and  C_29
REMARK   14  A    between atoms: C_29  and  C_30
REMARK   15  A    between atoms: C_30  and  O_31
REMARK   16  A    between atoms: O_31  and  C_32
REMARK   17  A    between atoms: C_35  and  C_37
REMARK   18  A    between atoms: C_37  and  O_38
REMARK   19  A    between atoms: C_39  and  O_41
REMARK   20  A    between atoms: C_42  and  O_44
REMARK   21  A    between atoms: C_45  and  O_47
REMARK   22  A    between atoms: C_48  and  O_50
REMARK   23  A    between atoms: C_51  and  O_53
REMARK   24  A    between atoms: C_54  and  O_56
REMARK                            x       y       z     vdW  Elec       q    Type
REMARK                         _______ _______ _______ _____ _____    ______ ____
ROOT
ATOM      1  C   UNL     1       4.021  -5.213  -8.564  0.00  0.00    +0.038 A 
ATOM      2  C   UNL     1       3.490  -6.431  -8.114  0.00  0.00    +0.018 A 
ATOM      3  C   UNL     1       3.887  -7.646  -8.700  0.00  0.00    -0.018 A 
ATOM      4  C   UNL     1       4.843  -7.625  -9.727  0.00  0.00    +0.018 A 
ATOM      5  C   UNL     1       5.363  -6.407 -10.185  0.00  0.00    +0.038 A 
ATOM      6  C   UNL     1       4.950  -5.205  -9.606  0.00  0.00    +0.026 A 
ENDROOT
BRANCH   5   7
ATOM      7  C   UNL     1       6.385  -6.335 -11.262  0.00  0.00    +0.244 C 
ATOM      8  N   UNL     1       6.277  -7.269 -12.273  0.00  0.00    -0.311 N 
ATOM      9  H   UNL     1       5.509  -7.919 -12.301  0.00  0.00    +0.149 HD
ATOM     10  O   UNL     1       7.258  -5.479 -11.213  0.00  0.00    -0.270 OA
BRANCH   8  11
ATOM     11  C   UNL     1       7.252  -7.296 -13.347  0.00  0.00    +0.107 C 
BRANCH  11  12
ATOM     12  C   UNL     1       8.499  -8.075 -12.944  0.00  0.00    +0.047 C 
BRANCH  12  13
ATOM     13  C   UNL     1       8.220  -9.564 -12.773  0.00  0.00    +0.164 C 
BRANCH  13  14
ATOM     14  O   UNL     1       7.585 -10.172 -13.906  0.00  0.00    -0.349 OA
BRANCH  14  15
ATOM     15  C   UNL     1       8.428 -10.239 -15.062  0.00  0.00    +0.282 C 
ATOM     16  C   UNL     1       7.582 -10.667 -16.284  0.00  0.00    +0.201 C 
ATOM     17  C   UNL     1       7.229 -12.162 -16.193  0.00  0.00    +0.179 C 
ATOM     18  C   UNL     1       8.476 -13.012 -15.908  0.00  0.00    +0.177 C 
ATOM     19  C   UNL     1       9.289 -12.481 -14.712  0.00  0.00    +0.178 C 
ATOM     20  O   UNL     1       9.560 -11.081 -14.826  0.00  0.00    -0.341 OA
BRANCH  16  21
ATOM     21  O   UNL     1       8.272 -10.326 -17.493  0.00  0.00    -0.384 OA
ATOM     22  H   UNL     1       8.186 -11.069 -18.118  0.00  0.00    +0.210 HD
ENDBRANCH  16  21
BRANCH  17  23
ATOM     23  O   UNL     1       6.203 -12.396 -15.224  0.00  0.00    -0.386 OA
ATOM     24  H   UNL     1       6.309 -11.752 -14.496  0.00  0.00    +0.210 HD
ENDBRANCH  17  23
BRANCH  18  25
ATOM     25  O   UNL     1       9.284 -12.995 -17.102  0.00  0.00    -0.386 OA
ATOM     26  H   UNL     1      10.192 -13.250 -16.861  0.00  0.00    +0.210 HD
ENDBRANCH  18  25
BRANCH  19  27
ATOM     27  C   UNL     1       8.729 -12.876 -13.331  0.00  0.00    +0.190 C 
BRANCH  27  28
ATOM     28  O   UNL     1       8.594 -14.284 -13.201  0.00  0.00    -0.392 OA
ATOM     29  H   UNL     1       9.482 -14.675 -13.168  0.00  0.00    +0.210 HD
ENDBRANCH  27  28
ENDBRANCH  19  27
ENDBRANCH  14  15
ENDBRANCH  13  14
ENDBRANCH  12  13
ENDBRANCH  11  12
ENDBRANCH   8  11
ENDBRANCH   5   7
BRANCH   1  32
ATOM     30  N   UNL     1       3.308  -3.886  -6.649  0.00  0.00    -0.311 N 
ATOM     31  H   UNL     1       3.508  -4.701  -6.086  0.00  0.00    +0.149 HD
ATOM     32  C   UNL     1       3.592  -3.905  -7.998  0.00  0.00    +0.244 C 
ATOM     33  O   UNL     1       3.529  -2.922  -8.726  0.00  0.00    -0.270 OA
BRANCH  30  34
ATOM     34  C   UNL     1       2.947  -2.654  -5.962  0.00  0.00    +0.107 C 
BRANCH  34  35
ATOM     35  C   UNL     1       1.440  -2.415  -5.994  0.00  0.00    +0.047 C 
BRANCH  35  36
ATOM     36  C   UNL     1       1.011  -1.223  -5.140  0.00  0.00    +0.164 C 
BRANCH  36  37
ATOM     37  O   UNL     1       1.624  -0.014  -5.591  0.00  0.00    -0.349 OA
BRANCH  37  42
ATOM     38  C   UNL     1       1.042   2.120  -2.708  0.00  0.00    +0.178 C 
ATOM     39  C   UNL     1       1.786   3.388  -3.131  0.00  0.00    +0.177 C 
ATOM     40  C   UNL     1       1.433   3.647  -4.603  0.00  0.00    +0.179 C 
ATOM     41  C   UNL     1       1.734   2.423  -5.483  0.00  0.00    +0.201 C 
ATOM     42  C   UNL     1       1.157   1.126  -4.856  0.00  0.00    +0.282 C 
ATOM     43  O   UNL     1       1.531   1.016  -3.482  0.00  0.00    -0.341 OA
BRANCH  41  44
ATOM     44  O   UNL     1       1.197   2.708  -6.791  0.00  0.00    -0.384 OA
ATOM     45  H   UNL     1       0.240   2.533  -6.779  0.00  0.00    +0.210 HD
ENDBRANCH  41  44
BRANCH  40  46
ATOM     46  O   UNL     1       2.121   4.796  -5.107  0.00  0.00    -0.386 OA
ATOM     47  H   UNL     1       2.053   4.746  -6.082  0.00  0.00    +0.210 HD
ENDBRANCH  40  46
BRANCH  39  48
ATOM     48  O   UNL     1       1.414   4.485  -2.287  0.00  0.00    -0.386 OA
ATOM     49  H   UNL     1       0.604   4.891  -2.637  0.00  0.00    +0.210 HD
ENDBRANCH  39  48
BRANCH  38  50
ATOM     50  C   UNL     1       1.169   1.826  -1.211  0.00  0.00    +0.190 C 
BRANCH  50  51
ATOM     51  O   UNL     1       0.274   0.757  -0.883  0.00  0.00    -0.392 OA
ATOM     52  H   UNL     1      -0.086   0.945  -0.000  0.00  0.00    +0.210 HD
ENDBRANCH  50  51
ENDBRANCH  38  50
ENDBRANCH  37  42
ENDBRANCH  36  37
ENDBRANCH  35  36
ENDBRANCH  34  35
ENDBRANCH  30  34
ENDBRANCH   1  32
BRANCH   3  53
ATOM     53  C   UNL     1       3.306  -8.954  -8.215  0.00  0.00    +0.269 C 
BRANCH  53  54
ATOM     54  N   UNL     1       4.121  -9.547  -7.153  0.00  0.00    +0.081 NA
ATOM     55  N   UNL     1       3.699 -10.629  -6.706  0.00  0.00    -0.014 NA
ATOM     56  N   UNL     1       3.304 -11.618  -6.301  0.00  0.00    -0.328 NA
ENDBRANCH  53  54
ENDBRANCH   3  53
TORSDOF 24
