REMARK  Name = 
REMARK  11 active torsions:
REMARK  status: ('A' for Active; 'I' for Inactive)
REMARK    1  A    between atoms: C_1  and  C_2
REMARK    2  A    between atoms: N_4  and  C_5
REMARK    3  A    between atoms: C_7  and  N_9
REMARK    4  A    between atoms: C_11  and  C_23
REMARK    5  A    between atoms: C_13  and  C_15
REMARK    6  A    between atoms: C_15  and  O_17
REMARK    7  A    between atoms: C_15  and  C_18
REMARK    8  A    between atoms: C_18  and  O_20
REMARK    9  A    between atoms: C_18  and  C_21
REMARK   10  A    between atoms: C_21  and  O_22
REMARK   11  A    between atoms: C_23  and  O_24
REMARK                            x       y       z     vdW  Elec       q    Type
REMARK                         _______ _______ _______ _____ _____    ______ ____
ROOT
ATOM      1  C   UNL     1       5.017   0.938   0.677  0.00  0.00    +0.137 C 
ATOM      2  C   UNL     1       5.080   1.948  -0.494  0.00  0.00    +0.227 C 
ATOM      3  O   UNL     1       6.017   1.583  -1.541  0.00  0.00    -0.478 OA
ATOM      4  C   UNL     1       6.184   0.246  -1.824  0.00  0.00    +0.202 C 
ATOM      5  C   UNL     1       5.734  -0.754  -1.056  0.00  0.00    +0.046 C 
ATOM      6  C   UNL     1       5.064  -0.548   0.250  0.00  0.00    +0.102 C 
ENDROOT
BRANCH   1   9
ATOM      7  C   UNL     1       6.945   2.374   3.616  0.00  0.00    +0.109 C 
ATOM      8  C   UNL     1       5.783   2.127   2.698  0.00  0.00    +0.210 C 
ATOM      9  N   UNL     1       6.056   1.243   1.673  0.00  0.00    -0.307 N 
ATOM     10  H   UNL     1       7.024   1.051   1.438  0.00  0.00    +0.149 HD
ATOM     11  O   UNL     1       4.677   2.630   2.876  0.00  0.00    -0.276 OA
ENDBRANCH   1   9
BRANCH   6  12
ATOM     12  N   UNL     1       3.723  -1.138   0.193  0.00  0.00    -0.322 NA
ATOM     13  H   UNL     1       3.819  -2.150   0.074  0.00  0.00    +0.119 HD
ATOM     14  H   UNL     1       3.281  -1.038   1.109  0.00  0.00    +0.119 HD
ENDBRANCH   6  12
BRANCH   4  15
ATOM     15  C   UNL     1       6.968  -0.119  -3.048  0.00  0.00    +0.372 C 
ATOM     16  O   UNL     1       7.266  -1.255  -3.382  0.00  0.00    -0.242 OA
BRANCH  15  17
ATOM     17  O   UNL     1       7.349   0.986  -3.724  0.00  0.00    -0.475 OA
ATOM     18  H   UNL     1       6.985   1.792  -3.299  0.00  0.00    +0.296 HD
ENDBRANCH  15  17
ENDBRANCH   4  15
BRANCH   2  19
ATOM     19  C   UNL     1       3.707   2.348  -1.112  0.00  0.00    +0.187 C 
BRANCH  19  20
ATOM     20  O   UNL     1       3.956   3.462  -2.006  0.00  0.00    -0.385 OA
ATOM     21  H   UNL     1       4.024   4.251  -1.424  0.00  0.00    +0.210 HD
ENDBRANCH  19  20
BRANCH  19  22
ATOM     22  C   UNL     1       2.669   2.821  -0.066  0.00  0.00    +0.172 C 
BRANCH  22  23
ATOM     23  O   UNL     1       3.263   3.920   0.646  0.00  0.00    -0.387 OA
ATOM     24  H   UNL     1       3.191   3.727   1.604  0.00  0.00    +0.210 HD
ENDBRANCH  22  23
BRANCH  22  25
ATOM     25  C   UNL     1       1.355   3.306  -0.698  0.00  0.00    +0.189 C 
BRANCH  25  26
ATOM     26  O   UNL     1       0.405   3.659   0.314  0.00  0.00    -0.392 OA
ATOM     27  H   UNL     1       0.286   2.896   0.903  0.00  0.00    +0.210 HD
ENDBRANCH  25  26
ENDBRANCH  22  25
ENDBRANCH  19  22
ENDBRANCH   2  19
TORSDOF 10
