REMARK  Name = 
REMARK  9 active torsions:
REMARK  status: ('A' for Active; 'I' for Inactive)
REMARK    1  A    between atoms: O_1  and  C_2
REMARK    2  A    between atoms: C_2  and  C_3
REMARK    3  A    between atoms: C_3  and  O_5
REMARK    4  A    between atoms: C_3  and  C_6
REMARK    5  A    between atoms: C_6  and  O_8
REMARK    6  A    between atoms: C_6  and  C_9
REMARK    7  A    between atoms: C_9  and  C_10
REMARK    8  A    between atoms: C_10  and  C_12
REMARK    9  A    between atoms: C_12  and  O_13
REMARK                            x       y       z     vdW  Elec       q    Type
REMARK                         _______ _______ _______ _____ _____    ______ ____
ROOT
ATOM      1  C   UNL     1       4.442  -0.971  -1.058  0.00  0.00    +0.153 C 
ENDROOT
BRANCH   1   2
ATOM      2  O   UNL     1       4.780  -1.417   0.270  0.00  0.00    -0.389 OA
ATOM      3  H   UNL     1       4.742  -0.619   0.831  0.00  0.00    +0.210 HD
ENDBRANCH   1   2
BRANCH   1   4
ATOM      4  C   UNL     1       2.903  -0.906  -1.135  0.00  0.00    +0.169 C 
BRANCH   4   5
ATOM      5  O   UNL     1       2.425   0.001  -0.125  0.00  0.00    -0.387 OA
ATOM      6  H   UNL     1       2.506  -0.469   0.724  0.00  0.00    +0.210 HD
ENDBRANCH   4   5
BRANCH   4   7
ATOM      7  C   UNL     1       2.353  -0.469  -2.498  0.00  0.00    +0.189 C 
BRANCH   7   8
ATOM      8  O   UNL     1       2.996   0.715  -2.960  0.00  0.00    -0.392 OA
ATOM      9  H   UNL     1       2.399   1.125  -3.611  0.00  0.00    +0.210 HD
ENDBRANCH   7   8
ENDBRANCH   4   7
ENDBRANCH   1   4
BRANCH   1  10
ATOM     10  C   UNL     1       5.014  -1.974  -2.052  0.00  0.00    +0.120 C 
BRANCH  10  11
ATOM     11  C   UNL     1       6.518  -2.061  -1.980  0.00  0.00    +0.242 C 
ATOM     12  O   UNL     1       7.290  -1.158  -1.663  0.00  0.00    -0.285 OA
BRANCH  11  13
ATOM     13  C   UNL     1       7.139  -3.375  -2.445  0.00  0.00    +0.373 C 
ATOM     14  O   UNL     1       6.490  -4.317  -2.855  0.00  0.00    -0.242 OA
BRANCH  13  15
ATOM     15  O   UNL     1       8.480  -3.323  -2.359  0.00  0.00    -0.475 OA
ATOM     16  H   UNL     1       8.744  -2.438  -2.012  0.00  0.00    +0.295 HD
ENDBRANCH  13  15
ENDBRANCH  11  13
ENDBRANCH  10  11
ENDBRANCH   1  10
TORSDOF 9
