REMARK  Name = 
REMARK  11 active torsions:
REMARK  status: ('A' for Active; 'I' for Inactive)
REMARK    1  A    between atoms: C_1  and  C_2
REMARK    2  A    between atoms: C_2  and  C_3
REMARK    3  A    between atoms: C_3  and  C_4
REMARK    4  A    between atoms: C_4  and  C_5
REMARK    5  A    between atoms: C_5  and  C_6
REMARK    6  A    between atoms: C_6  and  C_7
REMARK    7  A    between atoms: C_7  and  C_8
REMARK    8  A    between atoms: C_8  and  C_9
REMARK    9  A    between atoms: C_9  and  C_10
REMARK   10  A    between atoms: C_10  and  C_11
REMARK   11  A    between atoms: C_12  and  O_13
REMARK                            x       y       z     vdW  Elec       q    Type
REMARK                         _______ _______ _______ _____ _____    ______ ____
ROOT
ATOM      1  C   UNL     1      10.615  -2.863   4.940  0.00  0.00    +0.044 C 
ENDROOT
BRANCH   1   2
ATOM      2  C   UNL     1      11.123  -3.564   6.146  0.00  0.00    +0.061 C 
ATOM      3  C   UNL     1      11.454  -5.000   6.147  0.00  0.00    +0.250 C 
ATOM      4  O   UNL     1      11.348  -5.747   5.192  0.00  0.00    -0.270 OA
ATOM      5  N   UNL     1      11.898  -5.316   7.381  0.00  0.00    -0.246 N 
ATOM      6  H   UNL     1      12.215  -6.229   7.658  0.00  0.00    +0.158 HD
ATOM      7  C   UNL     1      11.933  -4.227   8.180  0.00  0.00    +0.285 C 
ATOM      8  O   UNL     1      12.327  -4.174   9.328  0.00  0.00    -0.266 OA
ATOM      9  C   UNL     1      11.409  -3.103   7.370  0.00  0.00    +0.188 C 
BRANCH   9  10
ATOM     10  O   UNL     1      11.261  -1.832   7.849  0.00  0.00    -0.502 OA
ATOM     11  H   UNL     1      10.847  -1.280   7.167  0.00  0.00    +0.292 HD
ENDBRANCH   9  10
ENDBRANCH   1   2
BRANCH   1  12
ATOM     12  C   UNL     1       9.089  -2.877   4.890  0.00  0.00    +0.005 C 
BRANCH  12  13
ATOM     13  C   UNL     1       8.569  -2.141   3.657  0.00  0.00    +0.000 C 
BRANCH  13  14
ATOM     14  C   UNL     1       7.042  -2.144   3.625  0.00  0.00    +0.000 C 
BRANCH  14  15
ATOM     15  C   UNL     1       6.512  -1.412   2.394  0.00  0.00    +0.000 C 
BRANCH  15  16
ATOM     16  C   UNL     1       4.985  -1.423   2.368  0.00  0.00    -0.000 C 
BRANCH  16  17
ATOM     17  C   UNL     1       4.448  -0.696   1.137  0.00  0.00    -0.000 C 
BRANCH  17  18
ATOM     18  C   UNL     1       2.921  -0.710   1.112  0.00  0.00    -0.000 C 
BRANCH  18  20
ATOM     19  C   UNL     1       0.862   0.005  -0.145  0.00  0.00    +0.004 C 
ATOM     20  C   UNL     1       2.381   0.017  -0.117  0.00  0.00    -0.003 C 
ENDBRANCH  18  20
ENDBRANCH  17  18
ENDBRANCH  16  17
ENDBRANCH  15  16
ENDBRANCH  14  15
ENDBRANCH  13  14
ENDBRANCH  12  13
ENDBRANCH   1  12
TORSDOF 10
