REMARK  Name = 
REMARK  11 active torsions:
REMARK  status: ('A' for Active; 'I' for Inactive)
REMARK    1  A    between atoms: C_1  and  N_2
REMARK    2  A    between atoms: N_2  and  C_3
REMARK    3  A    between atoms: N_2  and  C_4
REMARK    4  A    between atoms: C_4  and  C_5
REMARK    5  A    between atoms: C_5  and  O_6
REMARK    6  A    between atoms: O_6  and  P_7
REMARK    7  A    between atoms: P_7  and  O_8
REMARK    8  A    between atoms: P_7  and  O_10
REMARK    9  A    between atoms: O_10  and  P_11
REMARK   10  A    between atoms: P_11  and  O_12
REMARK   11  A    between atoms: P_11  and  O_13
REMARK                            x       y       z     vdW  Elec       q    Type
REMARK                         _______ _______ _______ _____ _____    ______ ____
ROOT
ATOM      1  P   UNL     1       6.554  -2.237  -0.741  0.00  0.00    +0.483 P 
ATOM      2  O   UNL     1       7.996  -2.423  -0.280  0.00  0.00    -0.227 OA
ENDROOT
BRANCH   1   3
ATOM      3  O   UNL     1       6.577  -0.689   0.032  0.00  0.00    -0.302 OA
ATOM      4  H   UNL     1       7.517  -0.423  -0.043  0.00  0.00    +0.222 HD
ENDBRANCH   1   3
BRANCH   1   5
ATOM      5  O   UNL     1       6.551  -1.475  -2.197  0.00  0.00    -0.285 OA
BRANCH   5   6
ATOM      6  C   UNL     1       5.248  -1.274  -2.738  0.00  0.00    +0.187 C 
BRANCH   6   7
ATOM      7  C   UNL     1       5.312  -0.607  -4.118  0.00  0.00    +0.112 C 
BRANCH   7   9
ATOM      8  C   UNL     1       4.121   0.412  -5.954  0.00  0.00    +0.104 C 
ATOM      9  N   UNL     1       3.979  -0.299  -4.679  0.00  0.00    -0.306 NA
ATOM     10  C   UNL     1       3.167  -1.501  -4.882  0.00  0.00    +0.104 C 
ENDBRANCH   7   9
ENDBRANCH   6   7
ENDBRANCH   5   6
ENDBRANCH   1   5
BRANCH   1  11
ATOM     11  O   UNL     1       6.532  -3.785  -1.514  0.00  0.00    -0.186 OA
BRANCH  11  12
ATOM     12  P   UNL     1       6.030  -4.989  -0.379  0.00  0.00    +0.481 P 
ATOM     13  O   UNL     1       5.580  -6.067   0.638  0.00  0.00    -0.227 OA
BRANCH  12  14
ATOM     14  O   UNL     1       6.990  -6.023  -1.205  0.00  0.00    -0.302 OA
ATOM     15  H   UNL     1       6.431  -6.577  -1.768  0.00  0.00    +0.222 HD
ENDBRANCH  12  14
BRANCH  12  16
ATOM     16  O   UNL     1       4.730  -5.178  -1.363  0.00  0.00    -0.302 OA
ATOM     17  H   UNL     1       3.920  -5.312  -0.828  0.00  0.00    +0.222 HD
ENDBRANCH  12  16
ENDBRANCH  11  12
ENDBRANCH   1  11
TORSDOF 9
