REMARK  Name = 
REMARK  3 active torsions:
REMARK  status: ('A' for Active; 'I' for Inactive)
REMARK    1  A    between atoms: C_1  and  C_2
REMARK    2  A    between atoms: C_6  and  O_7
REMARK    3  A    between atoms: C_8  and  O_9
REMARK                            x       y       z     vdW  Elec       q    Type
REMARK                         _______ _______ _______ _____ _____    ______ ____
ROOT
ATOM      1  C   UNL     1       1.056  -0.009   0.010  0.00  0.00    +0.047 C 
ATOM      2  C   UNL     1       2.553  -0.015   0.101  0.00  0.00    -0.005 A 
ATOM      3  C   UNL     1       3.265  -1.213   0.157  0.00  0.00    +0.161 A 
ATOM      4  C   UNL     1       4.658  -1.220   0.241  0.00  0.00    +0.158 A 
ATOM      5  C   UNL     1       5.370  -0.029   0.285  0.00  0.00    +0.049 A 
ATOM      6  C   UNL     1       4.672   1.179   0.241  0.00  0.00    +0.004 A 
ATOM      7  C   UNL     1       3.274   1.186   0.149  0.00  0.00    +0.007 A 
ENDROOT
BRANCH   3   8
ATOM      8  O   UNL     1       2.598  -2.408   0.129  0.00  0.00    -0.503 OA
ATOM      9  H   UNL     1       3.305  -3.081   0.189  0.00  0.00    +0.292 HD
ENDBRANCH   3   8
BRANCH   4  10
ATOM     10  O   UNL     1       5.285  -2.436   0.278  0.00  0.00    -0.503 OA
ATOM     11  H   UNL     1       6.245  -2.278   0.286  0.00  0.00    +0.292 HD
ENDBRANCH   4  10
TORSDOF 2
