REMARK  Name = 
REMARK  7 active torsions:
REMARK  status: ('A' for Active; 'I' for Inactive)
REMARK    1  A    between atoms: C_2  and  C_3
REMARK    2  A    between atoms: C_2  and  C_5
REMARK    3  A    between atoms: C_2  and  N_17
REMARK    4  A    between atoms: C_3  and  O_4
REMARK    5  A    between atoms: C_5  and  C_6
REMARK    6  A    between atoms: C_6  and  C_7
REMARK    7  A    between atoms: C_20  and  C_22
REMARK                            x       y       z     vdW  Elec       q    Type
REMARK                         _______ _______ _______ _____ _____    ______ ____
ROOT
ATOM      1  C   UNL     1       2.086  -0.147  -0.019  0.00  0.00    +0.114 C 
ENDROOT
BRANCH   1   2
ATOM      2  N   UNL     1       2.551  -0.075  -1.396  0.00  0.00    -0.331 N 
ATOM      3  C   UNL     1       1.745   0.017  -2.496  0.00  0.00    +0.120 A 
ATOM      4  C   UNL     1       2.597   0.015  -3.582  0.00  0.00    +0.143 A 
ATOM      5  N   UNL     1       3.913  -0.062  -3.147  0.00  0.00    -0.231 NA
ATOM      6  C   UNL     1       3.847  -0.104  -1.834  0.00  0.00    +0.200 A 
BRANCH   4   7
ATOM      7  C   UNL     1       2.203   0.072  -4.988  0.00  0.00    +0.261 C 
ATOM      8  O   UNL     1       1.044   0.146  -5.378  0.00  0.00    -0.269 OA
ATOM      9  N   UNL     1       3.255   0.025  -5.856  0.00  0.00    -0.324 N 
ATOM     10  H   UNL     1       3.079   0.032  -6.849  0.00  0.00    +0.145 HD
ATOM     11  H   UNL     1       4.196  -0.052  -5.490  0.00  0.00    +0.145 HD
ENDBRANCH   4   7
ENDBRANCH   1   2
BRANCH   1  12
ATOM     12  C   UNL     1       2.415  -1.515   0.602  0.00  0.00    +0.180 C 
BRANCH  12  13
ATOM     13  O   UNL     1       1.785  -1.669   1.872  0.00  0.00    -0.393 OA
ATOM     14  H   UNL     1       0.822  -1.697   1.731  0.00  0.00    +0.209 HD
ENDBRANCH  12  13
ENDBRANCH   1  12
BRANCH   1  15
ATOM     15  C   UNL     1       2.602   1.006   0.863  0.00  0.00    +0.032 C 
BRANCH  15  16
ATOM     16  C   UNL     1       2.142   2.385   0.369  0.00  0.00    +0.038 C 
BRANCH  16  17
ATOM     17  C   UNL     1       2.543   3.588   1.210  0.00  0.00    -0.040 A 
ATOM     18  C   UNL     1       2.171   4.903   0.792  0.00  0.00    -0.015 A 
ATOM     19  C   UNL     1       1.446   5.175  -0.393  0.00  0.00    +0.009 A 
ATOM     20  C   UNL     1       1.119   6.479  -0.775  0.00  0.00    +0.001 A 
ATOM     21  C   UNL     1       1.498   7.549   0.021  0.00  0.00    +0.001 A 
ATOM     22  C   UNL     1       2.202   7.316   1.200  0.00  0.00    +0.008 A 
ATOM     23  C   UNL     1       2.545   6.012   1.593  0.00  0.00    -0.018 A 
ATOM     24  C   UNL     1       3.265   5.810   2.777  0.00  0.00    +0.008 A 
ATOM     25  C   UNL     1       3.633   4.530   3.175  0.00  0.00    +0.001 A 
ATOM     26  C   UNL     1       3.278   3.432   2.398  0.00  0.00    +0.004 A 
ENDBRANCH  16  17
ENDBRANCH  15  16
ENDBRANCH   1  15
TORSDOF 7
