REMARK  Name = 
REMARK  22 active torsions:
REMARK  status: ('A' for Active; 'I' for Inactive)
REMARK    1  A    between atoms: O_1  and  C_2
REMARK    2  A    between atoms: C_5  and  S_69
REMARK    3  A    between atoms: C_7  and  N_8
REMARK    4  A    between atoms: N_9  and  C_10
REMARK    5  A    between atoms: C_11  and  O_12
REMARK    6  A    between atoms: C_16  and  N_17
REMARK    7  A    between atoms: N_21  and  C_22
REMARK    8  A    between atoms: C_23  and  S_50
REMARK    9  A    between atoms: C_28  and  O_29
REMARK   10  A    between atoms: C_30  and  N_31
REMARK   11  A    between atoms: N_32  and  C_33
REMARK   12  A    between atoms: C_35  and  S_40
REMARK   13  A    between atoms: C_38  and  O_39
REMARK   14  A    between atoms: S_40  and  O_41
REMARK   15  A    between atoms: C_44  and  S_46
REMARK   16  A    between atoms: S_46  and  O_47
REMARK   17  A    between atoms: S_50  and  O_51
REMARK   18  A    between atoms: C_57  and  S_65
REMARK   19  A    between atoms: C_60  and  S_61
REMARK   20  A    between atoms: S_61  and  O_62
REMARK   21  A    between atoms: S_65  and  O_66
REMARK   22  A    between atoms: S_69  and  O_70
REMARK                            x       y       z     vdW  Elec       q    Type
REMARK                         _______ _______ _______ _____ _____    ______ ____
ROOT
ATOM      1  N   UNL     1      -3.663  -8.585  -1.108  0.00  0.00    -0.282 N 
ATOM      2  H   UNL     1      -3.345  -9.500  -0.788  0.00  0.00    +0.155 HD
ATOM      3  C   UNL     1      -4.897  -8.708  -1.766  0.00  0.00    +0.224 A 
ATOM      4  N   UNL     1      -5.446  -7.627  -2.310  0.00  0.00    -0.203 NA
ATOM      5  C   UNL     1      -6.590  -7.799  -2.940  0.00  0.00    +0.228 A 
ATOM      6  N   UNL     1      -7.236  -8.943  -3.049  0.00  0.00    -0.203 NA
ATOM      7  C   UNL     1      -6.622  -9.982  -2.495  0.00  0.00    +0.224 A 
ATOM      8  N   UNL     1      -7.340 -11.175  -2.590  0.00  0.00    -0.282 N 
ATOM      9  H   UNL     1      -8.264 -10.992  -2.953  0.00  0.00    +0.155 HD
ATOM     10  N   UNL     1      -5.458  -9.916  -1.838  0.00  0.00    -0.181 NA
ENDROOT
BRANCH   8  11
ATOM     11  C   UNL     1      -6.985 -12.485  -2.279  0.00  0.00    +0.062 A 
ATOM     12  C   UNL     1      -7.849 -13.239  -1.482  0.00  0.00    +0.026 A 
ATOM     13  C   UNL     1      -7.492 -14.517  -1.014  0.00  0.00    +0.014 A 
ATOM     14  C   UNL     1      -6.207 -15.069  -1.256  0.00  0.00    +0.028 A 
ATOM     15  C   UNL     1      -5.704 -16.317  -0.747  0.00  0.00    +0.154 A 
ATOM     16  C   UNL     1      -4.354 -16.754  -0.917  0.00  0.00    +0.155 A 
ATOM     17  C   UNL     1      -3.515 -15.916  -1.635  0.00  0.00    +0.148 A 
ATOM     18  C   UNL     1      -4.017 -14.733  -2.190  0.00  0.00    +0.042 A 
ATOM     19  C   UNL     1      -5.339 -14.297  -2.045  0.00  0.00    +0.017 A 
ATOM     20  C   UNL     1      -5.774 -13.080  -2.631  0.00  0.00    +0.146 A 
BRANCH  17  21
ATOM     21  S   UNL     1      -1.772 -16.101  -1.897  0.00  0.00    +0.112 S 
ATOM     22  O   UNL     1      -1.240 -17.345  -1.407  0.00  0.00    -0.142 OA
ATOM     23  O   UNL     1      -1.166 -14.841  -1.514  0.00  0.00    -0.142 OA
BRANCH  21  24
ATOM     24  O   UNL     1      -1.669 -16.130  -3.515  0.00  0.00    -0.250 OA
ATOM     25  H   UNL     1      -1.377 -15.244  -3.821  0.00  0.00    +0.245 HD
ENDBRANCH  21  24
ENDBRANCH  17  21
BRANCH  20  26
ATOM     26  S   UNL     1      -4.991 -12.594  -4.177  0.00  0.00    +0.112 S 
ATOM     27  O   UNL     1      -3.694 -12.032  -3.879  0.00  0.00    -0.142 OA
ATOM     28  O   UNL     1      -5.960 -11.923  -5.016  0.00  0.00    -0.142 OA
BRANCH  26  29
ATOM     29  O   UNL     1      -4.743 -14.027  -4.903  0.00  0.00    -0.250 OA
ATOM     30  H   UNL     1      -5.583 -14.529  -4.955  0.00  0.00    +0.245 HD
ENDBRANCH  26  29
ENDBRANCH  20  26
BRANCH  15  31
ATOM     31  O   UNL     1      -6.532 -17.149  -0.019  0.00  0.00    -0.504 OA
ATOM     32  H   UNL     1      -7.460 -16.905  -0.149  0.00  0.00    +0.292 HD
ENDBRANCH  15  31
BRANCH  16  33
ATOM     33  N   UNL     1      -3.923 -17.888  -0.208  0.00  0.00    -0.143 NA
ATOM     34  N   UNL     1      -3.420 -18.774  -0.930  0.00  0.00    -0.145 NA
BRANCH  34  35
ATOM     35  C   UNL     1      -2.795 -19.792  -0.153  0.00  0.00    +0.129 A 
ATOM     36  C   UNL     1      -2.251 -20.925  -0.786  0.00  0.00    +0.144 A 
ATOM     37  C   UNL     1      -1.698 -21.987  -0.056  0.00  0.00    +0.049 A 
ATOM     38  C   UNL     1      -1.655 -21.925   1.335  0.00  0.00    +0.033 A 
ATOM     39  C   UNL     1      -2.128 -20.781   1.975  0.00  0.00    +0.119 A 
ATOM     40  C   UNL     1      -2.676 -19.722   1.246  0.00  0.00    +0.062 A 
BRANCH  39  41
ATOM     41  S   UNL     1      -2.140 -20.676   3.741  0.00  0.00    +0.110 S 
ATOM     42  O   UNL     1      -1.393 -19.501   4.124  0.00  0.00    -0.142 OA
ATOM     43  O   UNL     1      -1.844 -21.990   4.269  0.00  0.00    -0.142 OA
BRANCH  41  44
ATOM     44  O   UNL     1      -3.699 -20.428   4.085  0.00  0.00    -0.250 OA
ATOM     45  H   UNL     1      -4.105 -21.297   4.282  0.00  0.00    +0.245 HD
ENDBRANCH  41  44
ENDBRANCH  39  41
BRANCH  36  46
ATOM     46  O   UNL     1      -2.265 -21.010  -2.155  0.00  0.00    -0.505 OA
ATOM     47  H   UNL     1      -1.534 -21.588  -2.431  0.00  0.00    +0.292 HD
ENDBRANCH  36  46
ENDBRANCH  34  35
ENDBRANCH  16  33
ENDBRANCH   8  11
BRANCH   1  55
ATOM     48  C   UNL     1       1.414  -4.428  -1.685  0.00  0.00    +0.155 A 
ATOM     49  C   UNL     1       1.913  -5.703  -1.440  0.00  0.00    +0.148 A 
ATOM     50  C   UNL     1       1.049  -6.797  -1.221  0.00  0.00    +0.042 A 
ATOM     51  C   UNL     1      -0.364  -6.679  -1.263  0.00  0.00    +0.017 A 
ATOM     52  C   UNL     1      -0.857  -5.395  -1.580  0.00  0.00    +0.028 A 
ATOM     53  C   UNL     1      -2.231  -5.194  -1.670  0.00  0.00    +0.014 A 
ATOM     54  C   UNL     1      -3.126  -6.234  -1.458  0.00  0.00    +0.026 A 
ATOM     55  C   UNL     1      -2.712  -7.541  -1.172  0.00  0.00    +0.062 A 
ATOM     56  C   UNL     1      -1.319  -7.738  -1.040  0.00  0.00    +0.146 A 
ATOM     57  C   UNL     1       0.018  -4.312  -1.792  0.00  0.00    +0.154 A 
BRANCH  49  58
ATOM     58  S   UNL     1       3.642  -6.074  -1.435  0.00  0.00    +0.112 S 
ATOM     59  O   UNL     1       3.954  -6.651  -0.146  0.00  0.00    -0.142 OA
ATOM     60  O   UNL     1       4.410  -4.974  -1.973  0.00  0.00    -0.142 OA
BRANCH  58  61
ATOM     61  O   UNL     1       3.771  -7.245  -2.542  0.00  0.00    -0.250 OA
ATOM     62  H   UNL     1       4.389  -6.944  -3.242  0.00  0.00    +0.245 HD
ENDBRANCH  58  61
ENDBRANCH  49  58
BRANCH  56  63
ATOM     63  S   UNL     1      -0.704  -9.331  -0.525  0.00  0.00    +0.112 S 
ATOM     64  O   UNL     1       0.220  -9.803  -1.531  0.00  0.00    -0.142 OA
ATOM     65  O   UNL     1      -1.818 -10.142  -0.075  0.00  0.00    -0.142 OA
BRANCH  63  66
ATOM     66  O   UNL     1       0.125  -9.003   0.821  0.00  0.00    -0.250 OA
ATOM     67  H   UNL     1      -0.382  -9.354   1.583  0.00  0.00    +0.245 HD
ENDBRANCH  63  66
ENDBRANCH  56  63
BRANCH  57  68
ATOM     68  O   UNL     1      -0.542  -3.095  -2.133  0.00  0.00    -0.504 OA
ATOM     69  H   UNL     1       0.169  -2.422  -2.100  0.00  0.00    +0.292 HD
ENDBRANCH  57  68
BRANCH  48  71
ATOM     70  N   UNL     1       1.853  -2.304  -1.265  0.00  0.00    -0.145 NA
ATOM     71  N   UNL     1       2.235  -3.308  -1.913  0.00  0.00    -0.143 NA
BRANCH  70  73
ATOM     72  C   UNL     1       1.960   0.060  -1.914  0.00  0.00    +0.144 A 
ATOM     73  C   UNL     1       2.592  -1.164  -1.636  0.00  0.00    +0.129 A 
ATOM     74  C   UNL     1       3.986  -1.232  -1.727  0.00  0.00    +0.062 A 
ATOM     75  C   UNL     1       4.719  -0.135  -2.164  0.00  0.00    +0.119 A 
ATOM     76  C   UNL     1       4.092   1.082  -2.439  0.00  0.00    +0.033 A 
ATOM     77  C   UNL     1       2.703   1.180  -2.306  0.00  0.00    +0.049 A 
BRANCH  75  78
ATOM     78  S   UNL     1       6.455  -0.330  -2.387  0.00  0.00    +0.110 S 
ATOM     79  O   UNL     1       7.094   0.927  -2.079  0.00  0.00    -0.142 OA
ATOM     80  O   UNL     1       6.650  -1.009  -3.653  0.00  0.00    -0.142 OA
BRANCH  78  81
ATOM     81  O   UNL     1       6.892  -1.394  -1.247  0.00  0.00    -0.250 OA
ATOM     82  H   UNL     1       6.930  -2.287  -1.653  0.00  0.00    +0.245 HD
ENDBRANCH  78  81
ENDBRANCH  75  78
BRANCH  72  83
ATOM     83  O   UNL     1       0.596   0.139  -1.824  0.00  0.00    -0.505 OA
ATOM     84  H   UNL     1       0.316   1.055  -1.994  0.00  0.00    +0.292 HD
ENDBRANCH  72  83
ENDBRANCH  70  73
ENDBRANCH  48  71
ENDBRANCH   1  55
TORSDOF 22
