REMARK  Name = 
REMARK  13 active torsions:
REMARK  status: ('A' for Active; 'I' for Inactive)
REMARK    1  A    between atoms: C_1  and  C_2
REMARK    2  A    between atoms: C_2  and  C_4
REMARK    3  A    between atoms: C_2  and  C_10
REMARK    4  A    between atoms: C_4  and  C_5
REMARK    5  A    between atoms: C_5  and  C_6
REMARK    6  A    between atoms: C_7  and  C_8
REMARK    7  A    between atoms: C_7  and  C_9
REMARK    8  A    between atoms: C_14  and  C_15
REMARK    9  A    between atoms: C_20  and  C_21
REMARK   10  A    between atoms: C_22  and  C_23
REMARK   11  A    between atoms: C_26  and  O_28
REMARK   12  A    between atoms: C_29  and  C_30
REMARK   13  A    between atoms: C_29  and  C_31
REMARK                            x       y       z     vdW  Elec       q    Type
REMARK                         _______ _______ _______ _____ _____    ______ ____
ROOT
ATOM      1  C   UNL     1       0.000   0.000   0.000  0.00  0.00    -0.001 C 
ATOM      2  C   UNL     1       0.000   0.000   0.000  0.00  0.00    -0.020 C 
ATOM      3  C   UNL     1       0.000   0.0001177976275733373794216031885612567958080601541485048854327165526258752255418283776441332426081349733288666149232777801643636024612134814463827859827797512165666129026046450917846926270287264612352.000  0.00  0.00    +0.012 C 
ATOM      4  C   UNL     1       0.000   0.000   0.000  0.00  0.00    -0.005 C 
ATOM      5  C   UNL     1       0.000   0.000   0.000  0.00  0.00    -0.063 C 
ATOM      6  C   UNL     1       0.000   0.000   0.000  0.00  0.00    +0.031 C 
ATOM      7  C   UNL     1       0.000   0.000   0.000  0.00  0.00    +0.009 C 
ATOM      8  C   UNL     1       0.000   0.000   0.000  0.00  0.00    +0.007 C 
ATOM      9  C   UNL     1       0.000   0.000   0.000  0.00  0.00    -0.007 C 
ATOM     10  C   UNL     1       0.000   0.000   0.000  0.00  0.00    +0.014 C 
ATOM     11  C   UNL     1       0.000   0.000   0.000  0.00  0.00    +0.033 C 
ATOM     12  C   UNL     1       0.000   0.000   0.000  0.00  0.00    +0.121 C 
ATOM     13  C   UNL     1       0.000   0.000   0.000  0.00  0.00    +0.016 C 
ATOM     14  C   UNL     1       0.000   0.000   0.000  0.00  0.00    -0.005 C 
ATOM     15  C   UNL     1       0.000   0.000   0.000  0.00  0.00    +0.014 C 
ATOM     16  C   UNL     1       0.000   0.000   0.000  0.00  0.00    +0.014 C 
ATOM     17  C   UNL     1       0.000   0.000   0.000  0.00  0.00    -0.064 C 
ATOM     18  C   UNL     1       0.000   0.000   0.000  0.00  0.00    +0.032 C 
ATOM     19  C   UNL     1       0.000   0.000   0.000  0.00  0.00    +0.016 C 
ATOM     20  C   UNL     1       0.000   0.000   0.000  0.00  0.00    +0.012 C 
ATOM     21  C   UNL     1       0.000   0.000   0.000  0.00  0.00    +0.012 C 
ATOM     22  C   UNL     1       0.000   0.000   0.000  0.00  0.00    +0.005 C 
ENDROOT
BRANCH   1  24
ATOM     23  C   UNL     1       0.000   0.000   0.000  0.00  0.00    +0.008 C 
ATOM     24  C   UNL     1       0.000   0.000   0.000  0.00  0.00    -0.010 C 
BRANCH  24  25
ATOM     25  C   UNL     1       0.000   0.000   0.000  0.00  0.00    +0.007 C 
BRANCH  25  26
ATOM     26  C   UNL     1       0.000   0.000   0.000  0.00  0.00    +0.027 C 
BRANCH  26  27
ATOM     27  C   UNL     1       0.000   0.000   0.000  0.00  0.00    -0.028 C 
ATOM     28  C   UNL     1       0.0007261767435584921888917432306804550117257234853821235423353846922397904738528154832141206549653685961237813205730246149373695130614825169716316010781872386252974228484855290164449673924909421327713914994871500800.000   0.000  0.00  0.00    -0.080 C 
ATOM     29  C   UNL     1       0.000   0.000   0.000  0.00  0.00    +0.038 C 
ATOM     30  C   UNL     1       0.000   0.000   0.000  0.00  0.00    +0.038 C 
ENDBRANCH  26  27
ENDBRANCH  25  26
ENDBRANCH  24  25
ENDBRANCH   1  24
BRANCH  12  31
ATOM     31  O   UNL     1       0.000   0.000   0.000  0.00  0.00    -0.391 OA
ATOM     32  H   UNL     1    112673498499108516116053804829815349727356189933592775599850007706333435281465899267384978098247909843337828604278554588177152738279177055471355802792631171418927267716559955558400.000825260748583919791065419007011256028171652263785633217084919447636859436025075410177916579460566790393956182613228287698300371764412680038104715580473592515834926645659323399804706441861346285798333806040370380800.00033656465020953538366947641669620119732796605546166959792979137438565990778354088821533430280753344968863803688047154027384428809666169648429172471222264401570441242523413225017004300825677266944.000  0.00  0.00    +0.210 HD
ENDBRANCH  12  31
TORSDOF 5
