REMARK  Name = 
REMARK  4 active torsions:
REMARK  status: ('A' for Active; 'I' for Inactive)
REMARK    1  A    between atoms: N_1  and  C_2
REMARK    2  A    between atoms: C_2  and  C_3
REMARK    3  A    between atoms: C_3  and  C_4
REMARK    4  A    between atoms: C_4  and  O_5
REMARK                            x       y       z     vdW  Elec       q    Type
REMARK                         _______ _______ _______ _____ _____    ______ ____
ROOT
ATOM      1  C   UNL     1       3.118   0.996  -0.924  0.00  0.00    +0.135 C 
ENDROOT
BRANCH   1   2
ATOM      2  C   UNL     1       4.625   0.952  -1.034  0.00  0.00    +0.306 C 
ATOM      3  O   UNL     1       5.225   1.163  -2.079  0.00  0.00    -0.251 OA
BRANCH   2   4
ATOM      4  O   UNL     1       5.266   0.750   0.139  0.00  0.00    -0.481 OA
ATOM      5  H   UNL     1       4.622   0.610   0.881  0.00  0.00    +0.295 HD
ENDBRANCH   2   4
ENDBRANCH   1   2
BRANCH   1   6
ATOM      6  C   UNL     1       2.550   0.001   0.081  0.00  0.00    +0.089 C 
BRANCH   6   7
ATOM      7  N   UNL     1       2.972   0.347   1.448  0.00  0.00    -0.329 NA
ATOM      8  H   UNL     1       2.496   1.211   1.733  0.00  0.00    +0.118 HD
ATOM      9  H   UNL     1       2.598  -0.363   2.087  0.00  0.00    +0.118 HD
ENDBRANCH   6   7
ENDBRANCH   1   6
TORSDOF 4
