REMARK  Name = 
REMARK  6 active torsions:
REMARK  status: ('A' for Active; 'I' for Inactive)
REMARK    1  A    between atoms: C_1  and  C_2
REMARK    2  A    between atoms: C_2  and  C_3
REMARK    3  A    between atoms: C_3  and  C_4
REMARK    4  A    between atoms: C_4  and  CA_5
REMARK    5  A    between atoms: CA_5  and  N_7
REMARK    6  A    between atoms: CA_5  and  C_8
REMARK                            x       y       z     vdW  Elec       q    Type
REMARK                         _______ _______ _______ _____ _____    ______ ____
ROOT
ATOM      1  CA  UNL     1       5.028   2.903  -0.553  0.00  0.00    +0.114 C 
ENDROOT
BRANCH   1   2
ATOM      2  N   UNL     1       4.603   3.859   0.481  0.00  0.00    -0.322 NA
ATOM      3  H1  UNL     1       5.040   4.762   0.279  0.00  0.00    +0.119 HD
ATOM      4  H2  UNL     1       3.600   4.022   0.397  0.00  0.00    +0.119 HD
ENDBRANCH   1   2
BRANCH   1   5
ATOM      5  C   UNL     1       6.552   2.874  -0.569  0.00  0.00    +0.241 C 
ATOM      6  O   UNL     1       7.231   3.660  -1.227  0.00  0.00    -0.299 OA
ENDBRANCH   1   5
BRANCH   1   7
ATOM      7  C   UNL     1       4.482   1.492  -0.293  0.00  0.00    +0.026 C 
BRANCH   7   8
ATOM      8  C   UNL     1       2.952   1.420  -0.337  0.00  0.00    +0.002 C 
BRANCH   8  10
ATOM      9  C   UNL     1       0.929  -0.060  -0.128  0.00  0.00    +0.004 C 
ATOM     10  C   UNL     1       2.449  -0.004  -0.104  0.00  0.00    -0.003 C 
ENDBRANCH   8  10
ENDBRANCH   7   8
ENDBRANCH   1   7
TORSDOF 5
