REMARK  Name = 
REMARK  9 active torsions:
REMARK  status: ('A' for Active; 'I' for Inactive)
REMARK    1  A    between atoms: C_2  and  N_3
REMARK    2  A    between atoms: C_2  and  C_4
REMARK    3  A    between atoms: C_2  and  C_11
REMARK    4  A    between atoms: C_4  and  C_5
REMARK    5  A    between atoms: C_11  and  O_13
REMARK    6  A    between atoms: C_11  and  C_14
REMARK    7  A    between atoms: N_16  and  N_17
REMARK    8  A    between atoms: N_17  and  C_18
REMARK    9  A    between atoms: C_21  and  C_22
REMARK                            x       y       z     vdW  Elec       q    Type
REMARK                         _______ _______ _______ _____ _____    ______ ____
ROOT
ATOM      1  C   UNL     1       2.932   1.177   0.481  0.00  0.00    +0.218 C 
ENDROOT
BRANCH   1   2
ATOM      2  C   UNL     1       4.384   0.985   0.033  0.00  0.00    +0.259 C 
ATOM      3  N   UNL     1       5.268   1.841   0.674  0.00  0.00    -0.234 N 
ATOM      4  H   UNL     1       4.986   2.170   1.597  0.00  0.00    +0.173 HD
ATOM      5  O   UNL     1       4.725   0.186  -0.834  0.00  0.00    -0.271 OA
BRANCH   3   6
ATOM      6  N   UNL     1       6.635   1.554   0.507  0.00  0.00    -0.264 N 
ATOM      7  H   UNL     1       6.781   0.984  -0.334  0.00  0.00    +0.170 HD
BRANCH   6   8
ATOM      8  C   UNL     1       7.472   2.699   0.507  0.00  0.00    +0.044 A 
ATOM      9  C   UNL     1       8.672   2.656  -0.216  0.00  0.00    +0.025 A 
ATOM     10  C   UNL     1       9.585   3.716  -0.163  0.00  0.00    +0.005 A 
ATOM     11  C   UNL     1       9.329   4.834   0.637  0.00  0.00    -0.050 A 
ATOM     12  C   UNL     1      10.329   5.950   0.713  0.00  0.00    +0.044 C 
ATOM     13  C   UNL     1       8.151   4.871   1.384  0.00  0.00    +0.005 A 
ATOM     14  C   UNL     1       7.236   3.812   1.322  0.00  0.00    +0.025 A 
ENDBRANCH   6   8
ENDBRANCH   3   6
ENDBRANCH   1   2
BRANCH   1  15
ATOM     15  O   UNL     1       2.916   1.541   1.883  0.00  0.00    -0.381 OA
ATOM     16  H   UNL     1       3.081   0.719   2.381  0.00  0.00    +0.210 HD
ENDBRANCH   1  15
BRANCH   1  17
ATOM     17  C   UNL     1       2.235   2.305  -0.322  0.00  0.00    +0.089 C 
BRANCH  17  18
ATOM     18  N   UNL     1       0.877   2.499   0.238  0.00  0.00    -0.325 NA
ATOM     19  H   UNL     1       0.954   2.440   1.258  0.00  0.00    +0.119 HD
ATOM     20  H   UNL     1       0.566   3.449   0.041  0.00  0.00    +0.119 HD
ENDBRANCH  17  18
BRANCH  17  21
ATOM     21  C   UNL     1       2.152   2.008  -1.838  0.00  0.00    +0.025 C 
BRANCH  21  22
ATOM     22  C   UNL     1       1.426   3.083  -2.692  0.00  0.00    -0.009 C 
ATOM     23  C   UNL     1       1.198   2.597  -4.137  0.00  0.00    +0.003 C 
ATOM     24  C   UNL     1       2.458   2.636  -4.999  0.00  0.00    +0.000 C 
ATOM     25  C   UNL     1       3.075   4.030  -5.006  0.00  0.00    +0.000 C 
ATOM     26  C   UNL     1       3.372   4.505  -3.591  0.00  0.00    +0.000 C 
ATOM     27  C   UNL     1       2.133   4.452  -2.697  0.00  0.00    +0.003 C 
ENDBRANCH  21  22
ENDBRANCH  17  21
ENDBRANCH   1  17
TORSDOF 8
