REMARK  Name = 
REMARK  1 active torsions:
REMARK  status: ('A' for Active; 'I' for Inactive)
REMARK    1  A    between atoms: C_11  and  C_13
REMARK                            x       y       z     vdW  Elec       q    Type
REMARK                         _______ _______ _______ _____ _____    ______ ____
ROOT
ATOM      1  C   UNL     1      -0.326   1.883   0.006  0.00  0.00    +0.075 C 
ATOM      2  C   UNL     1      -1.443   0.895   0.022  0.00  0.00    +0.010 A 
ATOM      3  C   UNL     1      -1.009  -0.438   0.027  0.00  0.00    +0.097 A 
ATOM      4  N   UNL     1      -1.992  -1.322   0.033  0.00  0.00    -0.173 NA
ATOM      5  N   UNL     1      -3.087  -0.520   0.035  0.00  0.00    -0.276 N 
ATOM      6  H   UNL     1      -3.997  -0.965   0.064  0.00  0.00    +0.189 HD
ATOM      7  C   UNL     1       0.413  -0.474   0.015  0.00  0.00    +0.006 A 
ATOM      8  C   UNL     1       1.295  -1.532   0.013  0.00  0.00    +0.010 A 
ATOM      9  C   UNL     1       2.657  -1.225   0.001  0.00  0.00    +0.001 A 
ATOM     10  C   UNL     1       3.099   0.114  -0.008  0.00  0.00    +0.000 A 
ATOM     11  C   UNL     1       2.188   1.178  -0.007  0.00  0.00    +0.004 A 
ATOM     12  C   UNL     1      -2.818   0.842   0.011  0.00  0.00    +0.070 A 
ATOM     13  C   UNL     1       0.835   0.881   0.004  0.00  0.00    -0.034 A 
ENDROOT
BRANCH  12  14
ATOM     14  C   UNL     1      -3.846   1.880  -0.003  0.00  0.00    +0.003 A 
ATOM     15  C   UNL     1      -5.086   1.664  -0.610  0.00  0.00    +0.029 A 
ATOM     16  C   UNL     1      -6.024   2.686  -0.593  0.00  0.00    +0.111 A 
ATOM     17  N   UNL     1      -5.814   3.889  -0.022  0.00  0.00    -0.263 NA
ATOM     18  C   UNL     1      -4.610   4.081   0.553  0.00  0.00    +0.111 A 
ATOM     19  C   UNL     1      -3.609   3.123   0.586  0.00  0.00    +0.029 A 
ENDBRANCH  12  14
TORSDOF 1
