REMARK  Name = 
REMARK  7 active torsions:
REMARK  status: ('A' for Active; 'I' for Inactive)
REMARK    1  A    between atoms: O_1  and  C_2
REMARK    2  A    between atoms: C_4  and  O_6
REMARK    3  A    between atoms: C_7  and  O_9
REMARK    4  A    between atoms: C_10  and  O_12
REMARK    5  A    between atoms: O_12  and  P_13
REMARK    6  A    between atoms: C_17  and  O_19
REMARK    7  A    between atoms: C_20  and  O_22
REMARK                            x       y       z     vdW  Elec       q    Type
REMARK                         _______ _______ _______ _____ _____    ______ ____
ROOT
ATOM      1  C   UNL     1       2.464   0.069   0.130  0.00  0.00    +0.176 C 
ATOM      2  C   UNL     1       2.823   1.126  -0.929  0.00  0.00    +0.177 C 
ATOM      3  C   UNL     1       2.404   0.652  -2.346  0.00  0.00    +0.177 C 
ATOM      4  C   UNL     1       2.944  -0.753  -2.709  0.00  0.00    +0.184 C 
ATOM      5  C   UNL     1       2.533  -1.790  -1.649  0.00  0.00    +0.177 C 
ATOM      6  C   UNL     1       2.979  -1.344  -0.241  0.00  0.00    +0.177 C 
ENDROOT
BRANCH   1   7
ATOM      7  O   UNL     1       1.029   0.081   0.309  0.00  0.00    -0.386 OA
ATOM      8  H   UNL     1       0.809  -0.753   0.758  0.00  0.00    +0.210 HD
ENDBRANCH   1   7
BRANCH   2   9
ATOM      9  O   UNL     1       4.169   1.529  -0.738  0.00  0.00    -0.386 OA
ATOM     10  H   UNL     1       4.715   1.354  -1.572  0.00  0.00    +0.210 HD
ENDBRANCH   2   9
BRANCH   3  11
ATOM     11  O   UNL     1       0.951   0.585  -2.440  0.00  0.00    -0.386 OA
ATOM     12  H   UNL     1       0.603   0.978  -1.615  0.00  0.00    +0.210 HD
ENDBRANCH   3  11
BRANCH   5  13
ATOM     13  O   UNL     1       1.110  -2.035  -1.650  0.00  0.00    -0.386 OA
ATOM     14  H   UNL     1       0.706  -1.220  -2.017  0.00  0.00    +0.210 HD
ENDBRANCH   5  13
BRANCH   6  15
ATOM     15  O   UNL     1       4.395  -1.435  -0.080  0.00  0.00    -0.386 OA
ATOM     16  H   UNL     1       4.808  -0.992  -0.871  0.00  0.00    +0.210 HD
ENDBRANCH   6  15
BRANCH   4  17
ATOM     17  O   UNL     1       4.354  -0.780  -2.794  0.00  0.00    -0.359 OA
BRANCH  17  18
ATOM     18  P   UNL     1       4.945   0.332  -3.980  0.00  0.00    -0.014 P 
ATOM     19  O   UNL     1       5.473   1.328  -5.041  0.00  0.00    -0.638 OA
ATOM     20  O   UNL     1       5.664  -0.904  -4.542  0.00  0.00    -0.577 OA
ATOM     21  O   UNL     1       5.460   1.095  -2.747  0.00  0.00    -0.577 OA
ENDBRANCH  17  18
ENDBRANCH   4  17
TORSDOF 7
