REMARK  Name = 
REMARK  21 active torsions:
REMARK  status: ('A' for Active; 'I' for Inactive)
REMARK    1  A    between atoms: C_1  and  C_2
REMARK    2  A    between atoms: C_2  and  C_3
REMARK    3  A    between atoms: C_3  and  C_4
REMARK    4  A    between atoms: C_4  and  C_5
REMARK    5  A    between atoms: C_5  and  C_6
REMARK    6  A    between atoms: C_6  and  C_7
REMARK    7  A    between atoms: C_7  and  C_8
REMARK    8  A    between atoms: C_8  and  S_9
REMARK    9  A    between atoms: S_9  and  C_10
REMARK   10  A    between atoms: C_10  and  C_11
REMARK   11  A    between atoms: C_11  and  N_13
REMARK   12  A    between atoms: C_11  and  C_24
REMARK   13  A    between atoms: C_14  and  C_16
REMARK   14  A    between atoms: C_16  and  C_17
REMARK   15  A    between atoms: C_17  and  C_18
REMARK   16  A    between atoms: C_18  and  N_20
REMARK   17  A    between atoms: C_18  and  C_21
REMARK   18  A    between atoms: C_21  and  O_22
REMARK   19  A    between atoms: N_26  and  CA_27
REMARK   20  A    between atoms: CA_27  and  C_28
REMARK   21  A    between atoms: C_28  and  O_29
REMARK                            x       y       z     vdW  Elec       q    Type
REMARK                         _______ _______ _______ _____ _____    ______ ____
ROOT
ATOM      1  C   UNK A   1       8.310  13.589   0.689  0.00  0.00    +0.169 C 
ENDROOT
BRANCH   1   2
ATOM      2  N   UNK A   1       7.963  13.196  -0.681  0.00  0.00    -0.303 N 
ATOM      3  H   UNK A   1       7.046  12.786  -0.827  0.00  0.00    +0.149 HD
ATOM      4  C   UNK A   1       8.885  13.152  -1.697  0.00  0.00    +0.214 C 
ATOM      5  O   UNK A   1      10.038  13.546  -1.551  0.00  0.00    -0.276 OA
BRANCH   4   6
ATOM      6  C   UNK A   1       8.298  12.730  -3.028  0.00  0.00    +0.098 C 
BRANCH   6   7
ATOM      7  C   UNK A   1       9.304  11.980  -3.904  0.00  0.00    +0.039 C 
BRANCH   7   8
ATOM      8  C   UNK A   1       8.753  11.597  -5.285  0.00  0.00    +0.161 C 
BRANCH   8   9
ATOM      9  N   UNK A   1       8.294  12.797  -6.041  0.00  0.00    -0.318 NA
ATOM     10  H   UNK A   1       9.081  13.453  -6.093  0.00  0.00    +0.119 HD
ATOM     11  H   UNK A   1       8.149  12.516  -7.018  0.00  0.00    +0.119 HD
ENDBRANCH   8   9
BRANCH   8  12
ATOM     12  C   UNK A   1       7.571  10.625  -5.141  0.00  0.00    +0.322 C 
ATOM     13  O   UNK A   1       7.662   9.441  -4.865  0.00  0.00    -0.249 OA
BRANCH  12  14
ATOM     14  O   UNK A   1       6.385  11.271  -5.306  0.00  0.00    -0.480 OA
ATOM     15  H   UNK A   1       6.607  12.209  -5.531  0.00  0.00    +0.295 HD
ENDBRANCH  12  14
ENDBRANCH   8  12
ENDBRANCH   7   8
ENDBRANCH   6   7
ENDBRANCH   4   6
ENDBRANCH   1   2
BRANCH   1  16
ATOM     16  C   UNK A   1       8.205  15.120   0.814  0.00  0.00    +0.235 C 
ATOM     17  N   GLY A   2       9.019  15.823  -0.063  0.00  0.00    -0.303 N 
ATOM     18  H   GLY A   2       9.726  15.283  -0.569  0.00  0.00    +0.149 HD
ATOM     19  O   UNK A   1       7.494  15.691   1.633  0.00  0.00    -0.274 OA
BRANCH  17  20
ATOM     20  CA  GLY A   2       9.224  17.264   0.083  0.00  0.00    +0.224 C 
BRANCH  20  21
ATOM     21  C   GLY A   2       8.266  18.096  -0.768  0.00  0.00    +0.322 C 
ATOM     22  OXT GLY A   2       8.268  19.316  -0.807  0.00  0.00    -0.249 OA
BRANCH  21  23
ATOM     23  O   GLY A   2       7.427  17.343  -1.523  0.00  0.00    -0.480 OA
ATOM     24  H   GLY A   2       7.579  16.400  -1.310  0.00  0.00    +0.295 HD
ENDBRANCH  21  23
ENDBRANCH  20  21
ENDBRANCH  17  20
ENDBRANCH   1  16
BRANCH   1  25
ATOM     25  C   UNK A   1       7.397  12.911   1.720  0.00  0.00    +0.100 C 
BRANCH  25  26
ATOM     26  S   UNK A   1       7.469  11.075   1.664  0.00  0.00    -0.158 S 
BRANCH  26  27
ATOM     27  C   UNK A   1       9.226  10.775   2.081  0.00  0.00    +0.069 C 
BRANCH  27  28
ATOM     28  C   UNK A   1       9.590  11.332   3.453  0.00  0.00    +0.011 C 
BRANCH  28  29
ATOM     29  C   UNK A   1      11.060  11.093   3.794  0.00  0.00    +0.001 C 
BRANCH  29  30
ATOM     30  C   UNK A   1      11.387  11.688   5.164  0.00  0.00    +0.000 C 
BRANCH  30  31
ATOM     31  C   UNK A   1      12.855  11.483   5.525  0.00  0.00    -0.000 C 
BRANCH  31  32
ATOM     32  C   UNK A   1      13.174  12.070   6.900  0.00  0.00    -0.000 C 
BRANCH  32  34
ATOM     33  C   UNK A   1      14.977  12.426   8.623  0.00  0.00    +0.004 C 
ATOM     34  C   UNK A   1      14.643  11.853   7.256  0.00  0.00    -0.003 C 
ENDBRANCH  32  34
ENDBRANCH  31  32
ENDBRANCH  30  31
ENDBRANCH  29  30
ENDBRANCH  28  29
ENDBRANCH  27  28
ENDBRANCH  26  27
ENDBRANCH  25  26
ENDBRANCH   1  25
TORSDOF 20
