REMARK  Name = 
REMARK  16 active torsions:
REMARK  status: ('A' for Active; 'I' for Inactive)
REMARK    1  A    between atoms: N_1  and  C_2
REMARK    2  A    between atoms: C_2  and  C_3
REMARK    3  A    between atoms: C_6  and  O_8
REMARK    4  A    between atoms: O_8  and  C_9
REMARK    5  A    between atoms: C_11  and  N_13
REMARK    6  A    between atoms: C_15  and  N_17
REMARK    7  A    between atoms: C_18  and  O_20
REMARK    8  A    between atoms: C_21  and  O_23
REMARK    9  A    between atoms: O_23  and  C_24
REMARK   10  A    between atoms: C_27  and  C_29
REMARK   11  A    between atoms: C_29  and  O_30
REMARK   12  A    between atoms: C_31  and  O_33
REMARK   13  A    between atoms: C_34  and  O_36
REMARK   14  A    between atoms: C_37  and  N_39
REMARK   15  A    between atoms: C_40  and  O_42
REMARK   16  A    between atoms: C_43  and  O_45
REMARK                            x       y       z     vdW  Elec       q    Type
REMARK                         _______ _______ _______ _____ _____    ______ ____
ROOT
ATOM      1  C   UNL     1      10.821   1.782  -5.517  0.00  0.00    +0.169 C 
ATOM      2  C   UNL     1       9.908   1.330  -4.338  0.00  0.00    +0.182 C 
ATOM      3  C   UNL     1       9.370  -0.098  -4.588  0.00  0.00    +0.163 C 
ATOM      4  C   UNL     1       8.555  -0.211  -5.899  0.00  0.00    +0.084 C 
ATOM      5  C   UNL     1       9.406   0.255  -7.093  0.00  0.00    +0.042 C 
ATOM      6  C   UNL     1      10.100   1.622  -6.903  0.00  0.00    +0.084 C 
ENDROOT
BRANCH   6   7
ATOM      7  N   UNL     1       9.156   2.720  -7.165  0.00  0.00    -0.325 NA
ATOM      8  H   UNL     1       8.477   2.453  -7.878  0.00  0.00    +0.119 HD
ATOM      9  H   UNL     1       8.626   2.937  -6.314  0.00  0.00    +0.119 HD
ENDBRANCH   6   7
BRANCH   4  10
ATOM     10  N   UNL     1       7.258   0.477  -5.828  0.00  0.00    -0.325 NA
ATOM     11  H   UNL     1       7.385   1.461  -5.579  0.00  0.00    +0.119 HD
ATOM     12  H   UNL     1       6.792   0.460  -6.733  0.00  0.00    +0.119 HD
ENDBRANCH   4  10
BRANCH   3  13
ATOM     13  O   UNL     1      10.444  -1.056  -4.626  0.00  0.00    -0.388 OA
ATOM     14  H   UNL     1      11.271  -0.590  -4.863  0.00  0.00    +0.210 HD
ENDBRANCH   3  13
BRANCH   2  15
ATOM     15  O   UNL     1       8.881   2.320  -4.092  0.00  0.00    -0.340 OA
BRANCH  15  16
ATOM     16  C   UNL     1       8.080   2.076  -2.914  0.00  0.00    +0.282 C 
ATOM     17  C   UNL     1       8.887   2.069  -1.605  0.00  0.00    +0.201 C 
ATOM     18  C   UNL     1       8.563   3.391  -0.925  0.00  0.00    +0.179 C 
ATOM     19  C   UNL     1       7.665   4.124  -1.913  0.00  0.00    +0.178 C 
ATOM     20  O   UNL     1       7.092   3.124  -2.770  0.00  0.00    -0.341 OA
BRANCH  17  21
ATOM     21  O   UNL     1       8.510   0.953  -0.779  0.00  0.00    -0.384 OA
ATOM     22  H   UNL     1       7.611   1.101  -0.439  0.00  0.00    +0.210 HD
ENDBRANCH  17  21
BRANCH  18  23
ATOM     23  O   UNL     1       9.753   4.135  -0.674  0.00  0.00    -0.386 OA
ATOM     24  H   UNL     1       9.511   4.985  -0.269  0.00  0.00    +0.210 HD
ENDBRANCH  18  23
BRANCH  19  25
ATOM     25  C   UNL     1       6.568   4.890  -1.164  0.00  0.00    +0.190 C 
BRANCH  25  26
ATOM     26  O   UNL     1       5.753   5.631  -2.062  0.00  0.00    -0.392 OA
ATOM     27  H   UNL     1       5.371   4.985  -2.683  0.00  0.00    +0.210 HD
ENDBRANCH  25  26
ENDBRANCH  19  25
ENDBRANCH  15  16
ENDBRANCH   2  15
BRANCH   1  28
ATOM     28  O   UNL     1      12.069   1.021  -5.532  0.00  0.00    -0.342 OA
BRANCH  28  33
ATOM     29  C   UNL     1      13.913   1.845  -2.445  0.00  0.00    +0.166 C 
ATOM     30  C   UNL     1      15.387   1.781  -2.914  0.00  0.00    +0.175 C 
ATOM     31  C   UNL     1      15.530   1.988  -4.425  0.00  0.00    +0.167 C 
ATOM     32  C   UNL     1      14.518   1.084  -5.155  0.00  0.00    +0.139 C 
ATOM     33  C   UNL     1      13.110   1.593  -4.703  0.00  0.00    +0.270 C 
ATOM     34  O   UNL     1      12.971   1.193  -3.333  0.00  0.00    -0.343 OA
BRANCH  32  35
ATOM     35  N   UNL     1      14.795   1.021  -6.604  0.00  0.00    -0.321 NA
ATOM     36  H   UNL     1      13.985   0.577  -7.042  0.00  0.00    +0.119 HD
ATOM     37  H   UNL     1      14.844   1.947  -7.017  0.00  0.00    +0.119 HD
ENDBRANCH  32  35
BRANCH  30  38
ATOM     38  O   UNL     1      16.139   2.759  -2.179  0.00  0.00    -0.387 OA
ATOM     39  H   UNL     1      16.620   3.319  -2.814  0.00  0.00    +0.210 HD
ENDBRANCH  30  38
BRANCH  31  40
ATOM     40  O   UNL     1      16.885   1.725  -4.808  0.00  0.00    -0.387 OA
ATOM     41  H   UNL     1      16.872   1.582  -5.774  0.00  0.00    +0.210 HD
ENDBRANCH  31  40
BRANCH  29  42
ATOM     42  C   UNL     1      13.857   1.176  -1.047  0.00  0.00    +0.112 C 
BRANCH  42  43
ATOM     43  N   UNL     1      12.543   1.271  -0.415  0.00  0.00    -0.328 NA
ATOM     44  H   UNL     1      11.856   0.832  -1.028  0.00  0.00    +0.118 HD
ATOM     45  H   UNL     1      12.548   0.719   0.442  0.00  0.00    +0.118 HD
ENDBRANCH  42  43
ENDBRANCH  29  42
ENDBRANCH  28  33
ENDBRANCH   1  28
TORSDOF 16
