REMARK  Name = 
REMARK  19 active torsions:
REMARK  status: ('A' for Active; 'I' for Inactive)
REMARK    1  A    between atoms: C_2  and  C_4
REMARK    2  A    between atoms: N_8  and  C_10
REMARK    3  A    between atoms: C_13  and  C_15
REMARK    4  A    between atoms: C_15  and  O_16
REMARK    5  A    between atoms: O_16  and  P_17
REMARK    6  A    between atoms: P_17  and  O_20
REMARK    7  A    between atoms: O_20  and  P_21
REMARK    8  A    between atoms: P_21  and  O_22
REMARK    9  A    between atoms: P_21  and  O_24
REMARK   10  A    between atoms: O_24  and  C_25
REMARK   11  A    between atoms: C_25  and  C_26
REMARK   12  A    between atoms: C_29  and  N_41
REMARK   13  A    between atoms: C_31  and  O_33
REMARK   14  A    between atoms: O_33  and  P_34
REMARK   15  A    between atoms: P_34  and  O_35
REMARK   16  A    between atoms: P_34  and  O_36
REMARK   17  A    between atoms: C_38  and  O_40
REMARK   18  A    between atoms: C_51  and  O_53
REMARK   19  A    between atoms: C_54  and  O_56
REMARK                            x       y       z     vdW  Elec       q    Type
REMARK                         _______ _______ _______ _____ _____    ______ ____
ROOT
ATOM      1  P   UNL     1      15.489  -8.465   5.071  0.00  0.00    +0.480 P 
ATOM      2  O   UNL     1      14.914  -9.656   4.287  0.00  0.00    -0.227 OA
ENDROOT
BRANCH   1   3
ATOM      3  O   UNL     1      14.838  -7.165   4.323  0.00  0.00    -0.302 OA
ATOM      4  H   UNL     1      14.435  -7.480   3.484  0.00  0.00    +0.222 HD
ENDBRANCH   1   3
BRANCH   1   5
ATOM      5  O   UNL     1      14.048  -8.483   6.028  0.00  0.00    -0.284 OA
BRANCH   5   6
ATOM      6  C   UNL     1      13.747  -7.253   6.706  0.00  0.00    +0.206 C 
BRANCH   6   7
ATOM      7  C   UNL     1      12.455  -7.343   7.524  0.00  0.00    +0.178 C 
ATOM      8  C   UNL     1      11.244  -7.804   6.709  0.00  0.00    +0.179 C 
ATOM      9  C   UNL     1      11.105  -9.300   6.989  0.00  0.00    +0.211 C 
ATOM     10  C   UNL     1      12.213  -9.569   8.012  0.00  0.00    +0.254 C 
ATOM     11  O   UNL     1      12.618  -8.310   8.570  0.00  0.00    -0.346 OA
BRANCH  10  12
ATOM     12  N   UNL     1      11.853 -10.457   9.090  0.00  0.00    -0.285 N 
ATOM     13  C   UNL     1      10.838 -10.296   9.989  0.00  0.00    +0.167 A 
ATOM     14  N   UNL     1       9.953  -9.289  10.074  0.00  0.00    -0.216 NA
ATOM     15  C   UNL     1       9.110  -9.487  11.110  0.00  0.00    +0.225 A 
ATOM     16  N   UNL     1       9.070 -10.525  11.983  0.00  0.00    -0.219 NA
ATOM     17  C   UNL     1       9.960 -11.525  11.820  0.00  0.00    +0.147 A 
ATOM     18  N   UNL     1       9.902 -12.607  12.687  0.00  0.00    -0.341 N 
ATOM     19  H   UNL     1      10.775 -13.125  12.745  0.00  0.00    +0.144 HD
ATOM     20  H   UNL     1       9.436 -12.381  13.552  0.00  0.00    +0.144 HD
ATOM     21  C   UNL     1      10.914 -11.424  10.799  0.00  0.00    +0.147 A 
ATOM     22  N   UNL     1      11.945 -12.247  10.402  0.00  0.00    -0.231 NA
ATOM     23  C   UNL     1      12.494 -11.626   9.381  0.00  0.00    +0.203 A 
ENDBRANCH  10  12
BRANCH   8  24
ATOM     24  O   UNL     1      10.071  -7.121   7.173  0.00  0.00    -0.386 OA
ATOM     25  H   UNL     1      10.002  -7.236   8.140  0.00  0.00    +0.210 HD
ENDBRANCH   8  24
BRANCH   9  26
ATOM     26  O   UNL     1      11.360 -10.080   5.827  0.00  0.00    -0.276 OA
BRANCH  26  27
ATOM     27  P   UNL     1      10.240 -10.192   4.691  0.00  0.00    +0.473 P 
ATOM     28  O   UNL     1       9.361  -9.009   4.506  0.00  0.00    -0.228 OA
BRANCH  27  29
ATOM     29  O   UNL     1      11.185 -10.569   3.457  0.00  0.00    -0.303 OA
ATOM     30  H   UNL     1      12.058 -10.144   3.546  0.00  0.00    +0.222 HD
ENDBRANCH  27  29
BRANCH  27  31
ATOM     31  O   UNL     1       9.580 -11.581   5.072  0.00  0.00    -0.303 OA
ATOM     32  H   UNL     1       9.348 -11.674   6.009  0.00  0.00    +0.222 HD
ENDBRANCH  27  31
ENDBRANCH  26  27
ENDBRANCH   9  26
ENDBRANCH   6   7
ENDBRANCH   5   6
ENDBRANCH   1   5
BRANCH   1  33
ATOM     33  O   UNL     1      16.930  -8.447   4.114  0.00  0.00    -0.229 OA
BRANCH  33  34
ATOM     34  P   UNL     1      16.977  -6.998   3.170  0.00  0.00    +0.222 P 
ATOM     35  O   UNL     1      17.025  -5.548   2.226  0.00  0.00    -0.437 OA
ATOM     36  O   UNL     1      18.355  -7.487   2.687  0.00  0.00    -0.517 OA
BRANCH  34  37
ATOM     37  O   UNL     1      15.855  -7.713   2.091  0.00  0.00    -0.324 OA
BRANCH  37  38
ATOM     38  C   UNL     1      15.595  -6.896   0.948  0.00  0.00    +0.202 C 
BRANCH  38  42
ATOM     39  C   UNL     1      12.547  -8.370  -0.339  0.00  0.00    +0.439 C 
ATOM     40  C   UNL     1      13.567  -9.282  -1.052  0.00  0.00    +0.244 C 
ATOM     41  C   UNL     1      14.939  -8.675  -0.750  0.00  0.00    +0.183 C 
ATOM     42  C   UNL     1      14.565  -7.416  -0.005  0.00  0.00    +0.182 C 
ATOM     43  O   UNL     1      13.320  -7.689   0.656  0.00  0.00    -0.309 OA
BRANCH  39  46
ATOM     44  C   UNL     1      10.658  -5.230  -1.210  0.00  0.00    +0.100 A 
ATOM     45  C   UNL     1      11.377  -6.215  -0.532  0.00  0.00    +0.324 A 
ATOM     46  N   UNL     1      11.841  -7.330  -1.173  0.00  0.00    -0.173 N 
ATOM     47  C   UNL     1      11.574  -7.501  -2.488  0.00  0.00    +0.311 A 
ATOM     48  C   UNL     1      10.851  -6.545  -3.201  0.00  0.00    +0.071 A 
ATOM     49  C   UNL     1      10.382  -5.402  -2.560  0.00  0.00    +0.025 A 
BRANCH  44  53
ATOM     50  N   UNL     1       9.781  -2.949  -1.079  0.00  0.00    -0.325 N 
ATOM     51  H   UNL     1       9.941  -2.762  -2.057  0.00  0.00    +0.145 HD
ATOM     52  H   UNL     1       9.518  -2.156  -0.502  0.00  0.00    +0.145 HD
ATOM     53  C   UNL     1      10.178  -4.075  -0.418  0.00  0.00    +0.247 C 
ATOM     54  O   UNL     1      10.161  -4.140   0.802  0.00  0.00    -0.270 OA
ENDBRANCH  44  53
ENDBRANCH  39  46
BRANCH  41  55
ATOM     55  O   UNL     1      15.601  -8.343  -1.969  0.00  0.00    -0.386 OA
ATOM     56  H   UNL     1      16.527  -8.114  -1.736  0.00  0.00    +0.210 HD
ENDBRANCH  41  55
BRANCH  40  57
ATOM     57  O   UNL     1      13.473 -10.614  -0.519  0.00  0.00    -0.380 OA
ATOM     58  H   UNL     1      13.953 -10.661   0.333  0.00  0.00    +0.210 HD
ENDBRANCH  40  57
ENDBRANCH  38  42
ENDBRANCH  37  38
ENDBRANCH  34  37
ENDBRANCH  33  34
ENDBRANCH   1  33
TORSDOF 19
