REMARK  Name = 
REMARK  8 active torsions:
REMARK  status: ('A' for Active; 'I' for Inactive)
REMARK    1  A    between atoms: C_1  and  C_2
REMARK    2  A    between atoms: C_2  and  C_3
REMARK    3  A    between atoms: C_3  and  N_4
REMARK    4  A    between atoms: C_5  and  C_27
REMARK    5  A    between atoms: C_7  and  C_19
REMARK    6  A    between atoms: C_8  and  C_9
REMARK    7  A    between atoms: N_14  and  C_15
REMARK    8  A    between atoms: N_30  and  C_31
REMARK                            x       y       z     vdW  Elec       q    Type
REMARK                         _______ _______ _______ _____ _____    ______ ____
ROOT
ATOM      1  N   UNL     1       4.756   1.120  -0.859  0.00  0.00    -0.326 N 
ATOM      2  C   UNL     1       5.324  -0.166  -0.939  0.00  0.00    +0.095 A 
ATOM      3  C   UNL     1       6.683   0.083  -0.730  0.00  0.00    +0.099 A 
ATOM      4  N   UNL     1       6.925   1.440  -0.639  0.00  0.00    -0.231 NA
ATOM      5  C   UNL     1       5.777   2.057  -0.803  0.00  0.00    +0.114 A 
ENDROOT
BRANCH   2   6
ATOM      6  C   UNL     1       4.614  -1.425  -1.283  0.00  0.00    +0.094 A 
ATOM      7  N   UNL     1       5.316  -2.283  -2.056  0.00  0.00    -0.213 NA
ATOM      8  C   UNL     1       4.730  -3.441  -2.422  0.00  0.00    +0.216 A 
ATOM      9  N   UNL     1       5.534  -4.378  -3.069  0.00  0.00    -0.311 N 
ATOM     10  H   UNL     1       6.439  -3.976  -3.270  0.00  0.00    +0.149 HD
ATOM     11  N   UNL     1       3.459  -3.745  -2.134  0.00  0.00    -0.223 NA
ATOM     12  C   UNL     1       2.789  -2.889  -1.356  0.00  0.00    +0.116 A 
ATOM     13  C   UNL     1       3.339  -1.732  -0.861  0.00  0.00    +0.050 A 
BRANCH   9  14
ATOM     14  C   UNL     1       4.957  -5.436  -3.885  0.00  0.00    +0.073 C 
ATOM     15  C   UNL     1       5.840  -6.285  -4.760  0.00  0.00    +0.024 C 
ATOM     16  C   UNL     1       4.882  -5.311  -5.381  0.00  0.00    +0.024 C 
ENDBRANCH   9  14
ENDBRANCH   2   6
BRANCH   3  17
ATOM     17  C   UNL     1       7.797  -0.863  -0.729  0.00  0.00    +0.004 A 
ATOM     18  C   UNL     1       7.669  -2.173  -0.255  0.00  0.00    +0.031 A 
ATOM     19  C   UNL     1       8.693  -3.108  -0.448  0.00  0.00    +0.060 A 
ATOM     20 CL   UNL     1       8.389  -4.740   0.033  0.00  0.00    -0.082 Cl
ATOM     21  C   UNL     1       9.894  -2.718  -1.050  0.00  0.00    +0.059 A 
ATOM     22 CL   UNL     1      11.170  -3.833  -1.385  0.00  0.00    -0.082 Cl
ATOM     23  C   UNL     1      10.077  -1.386  -1.421  0.00  0.00    +0.022 A 
ATOM     24  C   UNL     1       9.035  -0.466  -1.260  0.00  0.00    +0.011 A 
ENDBRANCH   3  17
BRANCH   5  25
ATOM     25  C   UNL     1       5.710   3.561  -0.998  0.00  0.00    +0.058 C 
ATOM     26  C   UNL     1       5.435   3.972  -2.450  0.00  0.00    +0.026 C 
ATOM     27  C   UNL     1       5.673   5.478  -2.614  0.00  0.00    +0.085 C 
ATOM     28  N   UNL     1       4.923   6.319  -1.674  0.00  0.00    -0.305 NA
ATOM     29  C   UNL     1       3.541   6.534  -2.085  0.00  0.00    +0.104 C 
ATOM     30  C   UNL     1       5.048   5.869  -0.282  0.00  0.00    +0.085 C 
ATOM     31  C   UNL     1       4.804   4.365  -0.067  0.00  0.00    +0.026 C 
ENDBRANCH   5  25
BRANCH   1  32
ATOM     32  C   UNL     1       3.338   1.446  -0.858  0.00  0.00    +0.123 C 
BRANCH  32  34
ATOM     33  C   UNL     1       1.274   1.785   0.563  0.00  0.00    +0.005 C 
ATOM     34  C   UNL     1       2.764   1.486   0.564  0.00  0.00    +0.018 C 
ENDBRANCH  32  34
ENDBRANCH   1  32
TORSDOF 6
