REMARK  Name = 
REMARK  5 active torsions:
REMARK  status: ('A' for Active; 'I' for Inactive)
REMARK    1  A    between atoms: C_2  and  N_3
REMARK    2  A    between atoms: C_2  and  C_4
REMARK    3  A    between atoms: C_2  and  C_12
REMARK    4  A    between atoms: C_4  and  C_5
REMARK    5  A    between atoms: C_8  and  O_9
REMARK                            x       y       z     vdW  Elec       q    Type
REMARK                         _______ _______ _______ _____ _____    ______ ____
ROOT
ATOM      1  C   UNL     1       1.942  -0.005  -0.025  0.00  0.00    +0.142 C 
ENDROOT
BRANCH   1   2
ATOM      2  C   UNL     1       2.493   1.234  -0.761  0.00  0.00    +0.228 C 
ATOM      3  O   UNL     1       1.774   2.098  -1.254  0.00  0.00    -0.274 OA
ATOM      4  N   UNL     1       3.853   1.306  -0.892  0.00  0.00    -0.328 N 
ATOM      5  H   UNL     1       4.217   2.165  -1.286  0.00  0.00    +0.145 HD
ATOM      6  H   UNL     1       4.479   0.741  -0.338  0.00  0.00    +0.145 HD
ENDBRANCH   1   2
BRANCH   1   7
ATOM      7  N   UNL     1       2.354  -1.228  -0.753  0.00  0.00    -0.320 NA
ATOM      8  H   UNL     1       1.945  -1.182  -1.690  0.00  0.00    +0.119 HD
ATOM      9  H   UNL     1       3.361  -1.205  -0.905  0.00  0.00    +0.119 HD
ENDBRANCH   1   7
BRANCH   1  10
ATOM     10  C   UNL     1       2.395  -0.048   1.448  0.00  0.00    +0.063 C 
BRANCH  10  11
ATOM     11  C   UNL     1       2.019   1.170   2.271  0.00  0.00    -0.045 A 
ATOM     12  C   UNL     1       2.891   1.632   3.270  0.00  0.00    +0.007 A 
ATOM     13  C   UNL     1       2.584   2.779   4.008  0.00  0.00    +0.045 A 
ATOM     14  C   UNL     1       1.403   3.463   3.756  0.00  0.00    +0.117 A 
ATOM     15  C   UNL     1       0.504   3.001   2.805  0.00  0.00    +0.045 A 
ATOM     16  C   UNL     1       0.805   1.847   2.078  0.00  0.00    +0.007 A 
BRANCH  14  17
ATOM     17  O   UNL     1       1.155   4.599   4.467  0.00  0.00    -0.507 OA
ATOM     18  H   UNL     1       0.352   5.011   4.109  0.00  0.00    +0.292 HD
ENDBRANCH  14  17
ENDBRANCH  10  11
ENDBRANCH   1  10
TORSDOF 5
