REMARK  Name = 
REMARK  6 active torsions:
REMARK  status: ('A' for Active; 'I' for Inactive)
REMARK    1  A    between atoms: C_2  and  C_3
REMARK    2  A    between atoms: C_2  and  N_11
REMARK    3  A    between atoms: C_2  and  C_24
REMARK    4  A    between atoms: C_3  and  C_4
REMARK    5  A    between atoms: C_12  and  C_14
REMARK    6  A    between atoms: C_29  and  O_30
REMARK                            x       y       z     vdW  Elec       q    Type
REMARK                         _______ _______ _______ _____ _____    ______ ____
ROOT
ATOM      1  C   UNL     1       2.199  -0.007  -0.132  0.00  0.00    +0.164 C 
ENDROOT
BRANCH   1   2
ATOM      2  C   UNL     1       2.828   1.038   0.822  0.00  0.00    +0.236 C 
ATOM      3  N   UNL     1       2.315   1.184   2.108  0.00  0.00    -0.300 N 
ATOM      4  C   UNL     1       1.154   0.482   2.655  0.00  0.00    +0.110 C 
ATOM      5  C   UNL     1       0.102   1.457   3.168  0.00  0.00    +0.050 C 
ATOM      6  C   UNL     1       0.691   2.494   4.119  0.00  0.00    +0.118 C 
ATOM      7  C   UNL     1       1.937   3.159   3.535  0.00  0.00    +0.050 C 
ATOM      8  C   UNL     1       2.948   2.135   3.024  0.00  0.00    +0.110 C 
ATOM      9  O   UNL     1       3.765   1.740   0.419  0.00  0.00    -0.274 OA
BRANCH   6  10
ATOM     10  O   UNL     1       0.975   1.902   5.385  0.00  0.00    -0.392 OA
ATOM     11  H   UNL     1       1.660   1.222   5.283  0.00  0.00    +0.210 HD
ENDBRANCH   6  10
ENDBRANCH   1   2
BRANCH   1  12
ATOM     12  N   UNL     1       2.733   0.225  -1.479  0.00  0.00    -0.299 N 
ATOM     13  H   UNL     1       3.585   0.774  -1.531  0.00  0.00    +0.150 HD
ATOM     14  C   UNL     1       1.988   0.001  -2.607  0.00  0.00    +0.261 C 
ATOM     15  O   UNL     1       0.873  -0.514  -2.558  0.00  0.00    -0.269 OA
BRANCH  14  16
ATOM     16  C   UNL     1       2.572   0.447  -3.852  0.00  0.00    +0.103 A 
ATOM     17  N   UNL     1       1.838   0.450  -5.020  0.00  0.00    -0.351 N 
ATOM     18  H   UNL     1       0.879   0.130  -5.075  0.00  0.00    +0.166 HD
ATOM     19  C   UNL     1       2.551   1.005  -6.055  0.00  0.00    +0.047 A 
ATOM     20  C   UNL     1       2.170   1.261  -7.378  0.00  0.00    +0.027 A 
ATOM     21  C   UNL     1       3.111   1.876  -8.212  0.00  0.00    +0.022 A 
ATOM     22  C   UNL     1       4.380   2.197  -7.736  0.00  0.00    +0.042 A 
ATOM     23  C   UNL     1       4.756   1.910  -6.419  0.00  0.00    +0.030 A 
ATOM     24 CL   UNL     1       5.503   2.979  -8.785  0.00  0.00    -0.084 Cl
ATOM     25  C   UNL     1       3.813   1.315  -5.557  0.00  0.00    +0.002 A 
ATOM     26  C   UNL     1       3.827   0.932  -4.183  0.00  0.00    +0.041 A 
ENDBRANCH  14  16
ENDBRANCH   1  12
BRANCH   1  27
ATOM     27  C   UNL     1       2.376  -1.472   0.310  0.00  0.00    +0.067 C 
BRANCH  27  28
ATOM     28  C   UNL     1       3.796  -1.953   0.491  0.00  0.00    -0.045 A 
ATOM     29  C   UNL     1       4.454  -2.617  -0.553  0.00  0.00    +0.006 A 
ATOM     30  C   UNL     1       5.744  -3.115  -0.370  0.00  0.00    +0.038 A 
ATOM     31  C   UNL     1       6.381  -2.943   0.852  0.00  0.00    +0.123 A 
ATOM     32  F   UNL     1       7.615  -3.432   1.032  0.00  0.00    -0.205 F 
ATOM     33  C   UNL     1       5.747  -2.286   1.899  0.00  0.00    +0.038 A 
ATOM     34  C   UNL     1       4.456  -1.789   1.723  0.00  0.00    +0.006 A 
ENDBRANCH  27  28
ENDBRANCH   1  27
TORSDOF 6
