REMARK  Name = 
REMARK  7 active torsions:
REMARK  status: ('A' for Active; 'I' for Inactive)
REMARK    1  A    between atoms: C_5  and  C_7
REMARK    2  A    between atoms: C_7  and  C_8
REMARK    3  A    between atoms: C_8  and  C_9
REMARK    4  A    between atoms: C_9  and  C_10
REMARK    5  A    between atoms: C_10  and  C_11
REMARK    6  A    between atoms: C_11  and  C_12
REMARK    7  A    between atoms: C_12  and  O_13
REMARK                            x       y       z     vdW  Elec       q    Type
REMARK                         _______ _______ _______ _____ _____    ______ ____
ROOT
ATOM      1  C   UNL     1       1.885  -0.147   0.004  0.00  0.00    +0.105 C 
ATOM      2  N   UNL     1       2.228  -0.822   1.235  0.00  0.00    -0.294 N 
ATOM      3  H   UNL     1       1.922  -0.569   2.165  0.00  0.00    +0.151 HD
ATOM      4  C   UNL     1       2.502  -2.157   0.960  0.00  0.00    +0.300 C 
ATOM      5  O   UNL     1       2.637  -3.047   1.776  0.00  0.00    -0.253 OA
ATOM      6  N   UNL     1       2.618  -2.283  -0.419  0.00  0.00    -0.294 N 
ATOM      7  H   UNL     1       2.964  -3.146  -0.818  0.00  0.00    +0.151 HD
ATOM      8  C   UNL     1       2.642  -0.975  -1.039  0.00  0.00    +0.108 C 
ATOM      9  C   UNL     1       4.066  -0.379  -1.214  0.00  0.00    +0.069 C 
ATOM     10  S   UNL     1       3.917   1.400  -0.815  0.00  0.00    -0.154 S 
ATOM     11  C   UNL     1       2.254   1.315  -0.113  0.00  0.00    +0.093 C 
ENDROOT
BRANCH   9  12
ATOM     12  C   UNL     1       5.178  -1.051  -0.381  0.00  0.00    +0.016 C 
BRANCH  12  13
ATOM     13  C   UNL     1       6.582  -0.481  -0.604  0.00  0.00    +0.001 C 
BRANCH  13  14
ATOM     14  C   UNL     1       7.614  -1.245   0.231  0.00  0.00    +0.001 C 
BRANCH  14  15
ATOM     15  C   UNL     1       9.012  -0.657   0.041  0.00  0.00    +0.011 C 
BRANCH  15  16
ATOM     16  C   UNL     1      10.054  -1.397   0.875  0.00  0.00    +0.120 C 
BRANCH  16  17
ATOM     17  C   UNL     1      11.435  -0.814   0.677  0.00  0.00    +0.305 C 
ATOM     18  O   UNL     1      11.712   0.123  -0.054  0.00  0.00    -0.251 OA
BRANCH  17  19
ATOM     19  O   UNL     1      12.372  -1.454   1.415  0.00  0.00    -0.481 OA
ATOM     20  H   UNL     1      12.012  -2.184   1.954  0.00  0.00    +0.295 HD
ENDBRANCH  17  19
ENDBRANCH  16  17
ENDBRANCH  15  16
ENDBRANCH  14  15
ENDBRANCH  13  14
ENDBRANCH  12  13
ENDBRANCH   9  12
TORSDOF 7
