REMARK  Name = 
REMARK  12 active torsions:
REMARK  status: ('A' for Active; 'I' for Inactive)
REMARK    1  A    between atoms: N_1  and  C_2
REMARK    2  A    between atoms: C_4  and  O_6
REMARK    3  A    between atoms: C_7  and  O_9
REMARK    4  A    between atoms: C_10  and  C_12
REMARK    5  A    between atoms: C_12  and  O_13
REMARK    6  A    between atoms: C_15  and  O_17
REMARK    7  A    between atoms: O_17  and  C_18
REMARK    8  A    between atoms: C_20  and  O_22
REMARK    9  A    between atoms: C_23  and  O_25
REMARK   10  A    between atoms: C_26  and  O_28
REMARK   11  A    between atoms: C_29  and  O_31
REMARK   12  A    between atoms: C_32  and  O_34
REMARK                            x       y       z     vdW  Elec       q    Type
REMARK                         _______ _______ _______ _____ _____    ______ ____
ROOT
ATOM      1  O   UNL     1       3.871   1.204   1.498  0.00  0.00    -0.341 OA
ENDROOT
BRANCH   1   3
ATOM      2  C   UNL     1       1.580   1.409   2.436  0.00  0.00    +0.139 C 
ATOM      3  C   UNL     1       2.603   1.860   1.347  0.00  0.00    +0.270 C 
ATOM      4  O   UNL     1       2.085   1.768   0.013  0.00  0.00    -0.342 OA
ATOM      5  C   UNL     1       1.518   0.503  -0.383  0.00  0.00    +0.178 C 
ATOM      6  C   UNL     1       0.416   0.074   0.597  0.00  0.00    +0.176 C 
ATOM      7  C   UNL     1       0.928   0.066   2.044  0.00  0.00    +0.167 C 
BRANCH   2   8
ATOM      8  N   UNL     1       0.584   2.473   2.708  0.00  0.00    -0.321 NA
ATOM      9  H   UNL     1       0.319   2.941   1.841  0.00  0.00    +0.119 HD
ATOM     10  H   UNL     1      -0.279   2.067   3.076  0.00  0.00    +0.119 HD
ENDBRANCH   2   8
BRANCH   6  11
ATOM     11  O   UNL     1      -0.697   0.981   0.474  0.00  0.00    -0.387 OA
ATOM     12  H   UNL     1      -0.357   1.822   0.116  0.00  0.00    +0.210 HD
ENDBRANCH   6  11
BRANCH   7  13
ATOM     13  O   UNL     1       1.831  -1.031   2.224  0.00  0.00    -0.387 OA
ATOM     14  H   UNL     1       2.676  -0.691   2.570  0.00  0.00    +0.210 HD
ENDBRANCH   7  13
BRANCH   5  15
ATOM     15  C   UNL     1       2.555  -0.604  -0.654  0.00  0.00    +0.190 C 
BRANCH  15  16
ATOM     16  O   UNL     1       3.465  -0.219  -1.686  0.00  0.00    -0.392 OA
ATOM     17  H   UNL     1       2.955  -0.125  -2.506  0.00  0.00    +0.210 HD
ENDBRANCH  15  16
ENDBRANCH   5  15
ENDBRANCH   1   3
BRANCH   1  18
ATOM     18  C   UNL     1       4.897   1.701   0.595  0.00  0.00    +0.183 C 
ATOM     19  C   UNL     1       5.185   3.226   0.703  0.00  0.00    +0.177 C 
ATOM     20  C   UNL     1       6.409   3.655  -0.116  0.00  0.00    +0.176 C 
ATOM     21  C   UNL     1       7.642   2.789   0.118  0.00  0.00    +0.176 C 
ATOM     22  C   UNL     1       7.311   1.310  -0.064  0.00  0.00    +0.176 C 
ATOM     23  C   UNL     1       6.181   0.887   0.875  0.00  0.00    +0.177 C 
BRANCH  19  24
ATOM     24  O   UNL     1       4.070   3.995   0.212  0.00  0.00    -0.386 OA
ATOM     25  H   UNL     1       3.745   3.589  -0.611  0.00  0.00    +0.210 HD
ENDBRANCH  19  24
BRANCH  20  26
ATOM     26  O   UNL     1       6.756   5.014   0.192  0.00  0.00    -0.386 OA
ATOM     27  H   UNL     1       7.620   5.165  -0.241  0.00  0.00    +0.210 HD
ENDBRANCH  20  26
BRANCH  21  28
ATOM     28  O   UNL     1       8.630   3.237  -0.830  0.00  0.00    -0.386 OA
ATOM     29  H   UNL     1       8.981   2.444  -1.278  0.00  0.00    +0.210 HD
ENDBRANCH  21  28
BRANCH  22  30
ATOM     30  O   UNL     1       8.480   0.524   0.196  0.00  0.00    -0.386 OA
ATOM     31  H   UNL     1       8.152  -0.398   0.277  0.00  0.00    +0.210 HD
ENDBRANCH  22  30
BRANCH  23  32
ATOM     32  O   UNL     1       5.966  -0.512   0.671  0.00  0.00    -0.386 OA
ATOM     33  H   UNL     1       5.136  -0.731   1.125  0.00  0.00    +0.210 HD
ENDBRANCH  23  32
ENDBRANCH   1  18
TORSDOF 12
