REMARK  Name = 
REMARK  7 active torsions:
REMARK  status: ('A' for Active; 'I' for Inactive)
REMARK    1  A    between atoms: N_10  and  C_11
REMARK    2  A    between atoms: C_11  and  C_12
REMARK    3  A    between atoms: C_12  and  O_14
REMARK    4  A    between atoms: C_12  and  C_15
REMARK    5  A    between atoms: C_15  and  O_17
REMARK    6  A    between atoms: C_15  and  C_18
REMARK    7  A    between atoms: C_18  and  O_19
REMARK                            x       y       z     vdW  Elec       q    Type
REMARK                         _______ _______ _______ _____ _____    ______ ____
ROOT
ATOM      1  N   UNL     1       4.450  -3.788  -6.179  0.00  0.00    -0.341 N 
ATOM      2  H   UNL     1       5.208  -4.462  -6.161  0.00  0.00    +0.144 HD
ATOM      3  H   UNL     1       3.537  -4.102  -6.475  0.00  0.00    +0.144 HD
ATOM      4  C   UNL     1       4.405  -2.962  -5.064  0.00  0.00    +0.147 A 
ATOM      5  C   UNL     1       5.505  -2.760  -4.214  0.00  0.00    +0.147 A 
ATOM      6  N   UNL     1       6.785  -3.269  -4.209  0.00  0.00    -0.231 NA
ATOM      7  C   UNL     1       7.375  -2.693  -3.182  0.00  0.00    +0.201 A 
ATOM      8  N   UNL     1       6.529  -1.846  -2.515  0.00  0.00    -0.312 N 
ATOM      9  C   UNL     1       5.316  -1.896  -3.146  0.00  0.00    +0.165 A 
ATOM     10  N   UNL     1       4.187  -1.249  -2.813  0.00  0.00    -0.216 NA
ATOM     11  C   UNL     1       3.205  -1.517  -3.701  0.00  0.00    +0.225 A 
ATOM     12  N   UNL     1       3.244  -2.332  -4.777  0.00  0.00    -0.219 NA
ENDROOT
BRANCH   8  13
ATOM     13  C   UNL     1       6.878  -0.981  -1.408  0.00  0.00    +0.159 C 
BRANCH  13  14
ATOM     14  C   UNL     1       7.258  -1.685  -0.096  0.00  0.00    +0.174 C 
BRANCH  14  15
ATOM     15  O   UNL     1       8.467  -2.427  -0.306  0.00  0.00    -0.387 OA
ATOM     16  H   UNL     1       8.857  -2.635   0.565  0.00  0.00    +0.210 HD
ENDBRANCH  14  15
BRANCH  14  17
ATOM     17  C   UNL     1       6.129  -2.557   0.483  0.00  0.00    +0.253 C 
BRANCH  17  18
ATOM     18  C   UNL     1       6.512  -3.013   1.888  0.00  0.00    +0.336 C 
ATOM     19  O   UNL     1       6.788  -2.264   2.812  0.00  0.00    -0.248 OA
BRANCH  18  20
ATOM     20  O   UNL     1       6.560  -4.365   1.982  0.00  0.00    -0.479 OA
ATOM     21  H   UNL     1       6.341  -4.731   1.088  0.00  0.00    +0.295 HD
ENDBRANCH  18  20
ENDBRANCH  17  18
BRANCH  17  22
ATOM     22  O   UNL     1       5.876  -3.739  -0.295  0.00  0.00    -0.378 OA
ATOM     23  H   UNL     1       5.133  -3.537  -0.898  0.00  0.00    +0.211 HD
ENDBRANCH  17  22
ENDBRANCH  14  17
ENDBRANCH  13  14
ENDBRANCH   8  13
TORSDOF 7
