REMARK  Name = 
REMARK  6 active torsions:
REMARK  status: ('A' for Active; 'I' for Inactive)
REMARK    1  A    between atoms: C_1  and  N_2
REMARK    2  A    between atoms: N_4  and  C1*_5
REMARK    3  A    between atoms: C4*_8  and  C5*_10
REMARK    4  A    between atoms: C5*_10  and  O5*_11
REMARK    5  A    between atoms: C3*_12  and  O3*_14
REMARK    6  A    between atoms: C2*_15  and  O2*_17
REMARK                            x       y       z     vdW  Elec       q    Type
REMARK                         _______ _______ _______ _____ _____    ______ ____
ROOT
ATOM      1  C   UNL     1       7.166  -0.131  -4.243  0.00  0.00    +0.441 C 
ATOM      2  N   UNL     1       6.799   0.832  -3.215  0.00  0.00    -0.178 N 
ATOM      3  C   UNL     1       6.835   2.216  -3.351  0.00  0.00    +0.316 A 
ATOM      4  C   UNL     1       7.237   3.060  -4.426  0.00  0.00    +0.327 A 
ATOM      5  N   UNL     1       7.134   4.388  -4.045  0.00  0.00    -0.290 N 
ATOM      6  H   UNL     1       7.435   5.055  -4.741  0.00  0.00    +0.172 HD
ATOM      7  C   UNL     1       6.717   4.844  -2.811  0.00  0.00    +0.195 A 
ATOM      8  N   UNL     1       6.334   4.066  -1.838  0.00  0.00    -0.192 NA
ATOM      9  N   UNL     1       6.730   6.186  -2.644  0.00  0.00    -0.329 N 
ATOM     10  H   UNL     1       6.249   6.541  -1.822  0.00  0.00    +0.145 HD
ATOM     11  H   UNL     1       6.718   6.816  -3.436  0.00  0.00    +0.145 HD
ATOM     12  O   UNL     1       7.636   2.749  -5.544  0.00  0.00    -0.260 OA
ATOM     13  C   UNL     1       6.413   2.755  -2.160  0.00  0.00    +0.221 A 
ATOM     14  N   UNL     1       6.100   1.682  -1.342  0.00  0.00    -0.244 N 
ATOM     15  C   UNL     1       6.411   0.536  -1.967  0.00  0.00    +0.412 A 
ENDROOT
BRANCH  14  16
ATOM     16  C1* UNL     1       5.620   1.787   0.034  0.00  0.00    +0.257 C 
ATOM     17  C2* UNL     1       4.256   2.478   0.220  0.00  0.00    +0.195 C 
ATOM     18  C3* UNL     1       3.249   1.335   0.372  0.00  0.00    +0.178 C 
ATOM     19  C4* UNL     1       4.091   0.078   0.215  0.00  0.00    +0.177 C 
ATOM     20  O4* UNL     1       5.444   0.459   0.534  0.00  0.00    -0.346 OA
BRANCH  17  21
ATOM     21  O2* UNL     1       4.244   3.296   1.406  0.00  0.00    -0.385 OA
ATOM     22  H2* UNL     1       4.406   2.742   2.191  0.00  0.00    +0.210 HD
ENDBRANCH  17  21
BRANCH  18  23
ATOM     23  O3* UNL     1       2.269   1.401  -0.661  0.00  0.00    -0.386 OA
ATOM     24  H3* UNL     1       1.515   0.834  -0.413  0.00  0.00    +0.210 HD
ENDBRANCH  18  23
BRANCH  19  25
ATOM     25  C5* UNL     1       3.664  -1.088   1.099  0.00  0.00    +0.190 C 
BRANCH  25  26
ATOM     26  O5* UNL     1       4.510  -2.199   0.804  0.00  0.00    -0.392 OA
ATOM     27  H5* UNL     1       4.476  -2.802   1.570  0.00  0.00    +0.210 HD
ENDBRANCH  25  26
ENDBRANCH  19  25
ENDBRANCH  14  16
TORSDOF 5
