REMARK  Name = 
REMARK  4 active torsions:
REMARK  status: ('A' for Active; 'I' for Inactive)
REMARK    1  A    between atoms: O5*_1  and  C5*_2
REMARK    2  A    between atoms: C5*_2  and  C4*_3
REMARK    3  A    between atoms: C1*_6  and  N1_12
REMARK    4  A    between atoms: C3*_9  and  O3*_11
REMARK                            x       y       z     vdW  Elec       q    Type
REMARK                         _______ _______ _______ _____ _____    ______ ____
ROOT
ATOM      1  C4*   U A   1       2.893   0.957  -0.942  0.00  0.00    +0.174 C 
ATOM      2  C3*   U A   1       4.408   1.114  -0.940  0.00  0.00    +0.150 C 
ATOM      3  C2*   U A   1       4.652   2.557  -1.322  0.00  0.00    +0.086 C 
ATOM      4  C1*   U A   1       3.269   3.160  -1.541  0.00  0.00    +0.212 C 
ATOM      5  O4*   U A   1       2.326   2.278  -0.934  0.00  0.00    -0.350 OA
ENDROOT
BRANCH   4   6
ATOM      6  N1    U A   1       2.906   3.424  -2.931  0.00  0.00    -0.259 N 
ATOM      7  C2    U A   1       3.629   4.357  -3.647  0.00  0.00    +0.310 C 
ATOM      8  O2    U A   1       4.654   4.894  -3.238  0.00  0.00    -0.252 OA
ATOM      9  N3    U A   1       3.106   4.702  -4.865  0.00  0.00    -0.240 N 
ATOM     10  H3    U A   1       3.633   5.383  -5.390  0.00  0.00    +0.159 HD
ATOM     11  C4    U A   1       1.801   4.553  -5.243  0.00  0.00    +0.222 C 
ATOM     12  O4    U A   1       1.348   5.134  -6.228  0.00  0.00    -0.275 OA
ATOM     13  C5    U A   1       0.930   3.743  -4.323  0.00  0.00    +0.115 C 
ATOM     14  C6    U A   1       1.790   2.743  -3.582  0.00  0.00    +0.121 C 
ENDBRANCH   4   6
BRANCH   2  15
ATOM     15  O3*   U A   1       4.999   0.233  -1.896  0.00  0.00    -0.389 OA
ATOM     16  H3*   U A   1       5.953   0.432  -1.917  0.00  0.00    +0.210 HD
ENDBRANCH   2  15
BRANCH   1  17
ATOM     17  C5*   U A   1       2.355   0.149   0.240  0.00  0.00    +0.190 C 
BRANCH  17  18
ATOM     18  O5*   U A   1       2.766   0.712   1.485  0.00  0.00    -0.392 OA
ATOM     19  H5*   U A   1       2.260   0.257   2.180  0.00  0.00    +0.210 HD
ENDBRANCH  17  18
ENDBRANCH   1  17
TORSDOF 4
