REMARK  Name = 
REMARK  11 active torsions:
REMARK  status: ('A' for Active; 'I' for Inactive)
REMARK    1  A    between atoms: N_1  and  CA_2
REMARK    2  A    between atoms: CA_2  and  C_4
REMARK    3  A    between atoms: CA_2  and  C_6
REMARK    4  A    between atoms: C_4  and  O_5
REMARK    5  A    between atoms: N_8  and  S_9
REMARK    6  A    between atoms: S_9  and  O_12
REMARK    7  A    between atoms: O_12  and  C_13
REMARK    8  A    between atoms: C_13  and  C_14
REMARK    9  A    between atoms: C_17  and  N_25
REMARK   10  A    between atoms: C_19  and  O_21
REMARK   11  A    between atoms: C_22  and  O_24
REMARK                            x       y       z     vdW  Elec       q    Type
REMARK                         _______ _______ _______ _____ _____    ______ ____
ROOT
ATOM      1  C   UNL     1       8.928   2.731  -3.837  0.00  0.00    +0.180 C 
ATOM      2  C   UNL     1       9.423   1.419  -3.231  0.00  0.00    +0.178 C 
ATOM      3  C   UNL     1      10.683   1.787  -2.441  0.00  0.00    +0.195 C 
ATOM      4  C   UNL     1      10.778   3.314  -2.559  0.00  0.00    +0.253 C 
ATOM      5  O   UNL     1       9.474   3.765  -2.992  0.00  0.00    -0.346 OA
ENDROOT
BRANCH   4   6
ATOM      6  N   UNL     1      11.157   4.047  -1.365  0.00  0.00    -0.286 N 
ATOM      7  C   UNL     1      12.079   3.677  -0.419  0.00  0.00    +0.167 A 
ATOM      8  N   UNL     1      12.710   2.496  -0.289  0.00  0.00    -0.216 NA
ATOM      9  C   UNL     1      13.543   2.514   0.778  0.00  0.00    +0.225 A 
ATOM     10  N   UNL     1      13.809   3.534   1.624  0.00  0.00    -0.219 NA
ATOM     11  C   UNL     1      13.182   4.713   1.421  0.00  0.00    +0.147 A 
ATOM     12  N   UNL     1      13.495   5.779   2.254  0.00  0.00    -0.341 N 
ATOM     13  H   UNL     1      12.798   6.514   2.266  0.00  0.00    +0.144 HD
ATOM     14  H   UNL     1      13.905   5.492   3.131  0.00  0.00    +0.144 HD
ATOM     15  C   UNL     1      12.245   4.802   0.378  0.00  0.00    +0.147 A 
ATOM     16  N   UNL     1      11.428   5.828  -0.043  0.00  0.00    -0.231 NA
ATOM     17  C   UNL     1      10.800   5.346  -1.094  0.00  0.00    +0.203 A 
ENDBRANCH   4   6
BRANCH   2  18
ATOM     18  O   UNL     1       8.433   0.915  -2.314  0.00  0.00    -0.386 OA
ATOM     19  H   UNL     1       8.214   1.618  -1.675  0.00  0.00    +0.210 HD
ENDBRANCH   2  18
BRANCH   3  20
ATOM     20  O   UNL     1      11.835   1.162  -3.013  0.00  0.00    -0.385 OA
ATOM     21  H   UNL     1      12.541   1.215  -2.338  0.00  0.00    +0.210 HD
ENDBRANCH   3  20
BRANCH   1  22
ATOM     22  C   UNL     1       9.367   2.966  -5.290  0.00  0.00    +0.229 C 
BRANCH  22  23
ATOM     23  O   UNL     1       8.771   2.020  -6.166  0.00  0.00    -0.220 OA
BRANCH  23  24
ATOM     24  S   UNL     1       9.106   2.178  -7.751  0.00  0.00    +0.169 S 
ATOM     25  O   UNL     1       8.353   3.309  -8.245  0.00  0.00    -0.126 OA
ATOM     26  O   UNL     1      10.540   2.120  -7.927  0.00  0.00    -0.126 OA
BRANCH  24  28
ATOM     27  C   UNL     1       8.691  -0.467  -8.055  0.00  0.00    +0.253 C 
ATOM     28  N   UNL     1       8.446   0.849  -8.462  0.00  0.00    -0.164 N 
ATOM     29  H   UNL     1       7.774   1.007  -9.210  0.00  0.00    +0.179 HD
ATOM     30  O   UNL     1       9.438  -0.743  -7.124  0.00  0.00    -0.272 OA
BRANCH  27  31
ATOM     31  CA  UNL     1       7.942  -1.542  -8.860  0.00  0.00    +0.165 C 
BRANCH  31  32
ATOM     32  N   UNL     1       6.725  -0.967  -9.509  0.00  0.00    -0.318 NA
ATOM     33  H1  UNL     1       6.364  -1.664 -10.165  0.00  0.00    +0.119 HD
ATOM     34  H2  UNL     1       5.997  -0.941  -8.779  0.00  0.00    +0.119 HD
ENDBRANCH  31  32
BRANCH  31  35
ATOM     35  C   UNL     1       7.577  -2.698  -7.917  0.00  0.00    +0.183 C 
BRANCH  35  36
ATOM     36  O   UNL     1       6.659  -2.251  -6.916  0.00  0.00    -0.393 OA
ATOM     37  H   UNL     1       7.192  -1.835  -6.209  0.00  0.00    +0.209 HD
ENDBRANCH  35  36
ENDBRANCH  31  35
ENDBRANCH  27  31
ENDBRANCH  24  28
ENDBRANCH  23  24
ENDBRANCH  22  23
ENDBRANCH   1  22
TORSDOF 11
