REMARK  Name = 
REMARK  1 active torsions:
REMARK  status: ('A' for Active; 'I' for Inactive)
REMARK    1  A    between atoms: C_1  and  C_2
REMARK                            x       y       z     vdW  Elec       q    Type
REMARK                         _______ _______ _______ _____ _____    ______ ____
ROOT
ATOM      1  C   UNL     1       1.981  -0.003   1.005  0.00  0.00    +0.039 C 
ATOM      2  C   UNL     1       3.286   0.214   0.311  0.00  0.00    -0.074 C 
ATOM      3  C   UNL     1       4.653  -0.399   0.912  0.00  0.00    +0.057 C 
ATOM      4  C   UNL     1       5.858  -0.716  -0.180  0.00  0.00    +0.053 C 
ATOM      5  C   UNL     1       4.991  -0.815  -1.456  0.00  0.00    +0.021 C 
ATOM      6  C   UNL     1       4.437   0.590  -1.825  0.00  0.00    +0.022 C 
ATOM      7  C   UNL     1       5.247   1.869  -1.467  0.00  0.00    +0.061 C 
ATOM      8  C   UNL     1       6.556   1.667  -0.762  0.00  0.00    +0.025 A 
ATOM      9  N   UNL     1       7.389   2.748  -0.714  0.00  0.00    -0.326 N 
ATOM     10  H   UNL     1       7.100   3.640  -1.096  0.00  0.00    +0.169 HD
ATOM     11  C   UNL     1       8.630   2.762  -0.129  0.00  0.00    +0.249 A 
ATOM     12  O   UNL     1       9.360   3.745  -0.110  0.00  0.00    -0.268 OA
ATOM     13  C   UNL     1       9.037   1.492   0.516  0.00  0.00    +0.070 A 
ATOM     14  C   UNL     1       8.172   0.460   0.511  0.00  0.00    +0.012 A 
ATOM     15  C   UNL     1       5.057  -1.931  -2.497  0.00  0.00    +0.007 C 
ATOM     16  C   UNL     1       6.316  -2.733  -2.363  0.00  0.00    +0.015 C 
ATOM     17  C   UNL     1       6.567  -3.083  -0.896  0.00  0.00    +0.082 C 
ATOM     18  N   UNL     1       6.672  -1.955   0.042  0.00  0.00    -0.306 NA
ATOM     19  H   UNL     1       7.652  -1.692  -0.081  0.00  0.00    +0.123 HD
ATOM     20  C   UNL     1       6.863   0.500  -0.169  0.00  0.00    -0.007 A 
ATOM     21  C   UNL     1       3.229   0.685  -0.961  0.00  0.00    -0.024 C 
ENDROOT
TORSDOF 0
