REMARK  Name = 
REMARK  4 active torsions:
REMARK  status: ('A' for Active; 'I' for Inactive)
REMARK    1  A    between atoms: N_1  and  CA_2
REMARK    2  A    between atoms: CA_2  and  C_4
REMARK    3  A    between atoms: CA_2  and  C_7
REMARK    4  A    between atoms: C_4  and  O_5
REMARK                            x       y       z     vdW  Elec       q    Type
REMARK                         _______ _______ _______ _____ _____    ______ ____
ROOT
ATOM      1  CA  UNL     1       2.572  -0.079   0.046  0.00  0.00    +0.265 C 
ENDROOT
BRANCH   1   2
ATOM      2  C   UNL     1       3.063   0.448   1.406  0.00  0.00    +0.415 C 
ATOM      3  F   UNL     1       1.997   0.778   2.179  0.00  0.00    -0.168 F 
ATOM      4  F   UNL     1       3.815   1.565   1.302  0.00  0.00    -0.168 F 
ATOM      5  F   UNL     1       3.792  -0.463   2.087  0.00  0.00    -0.168 F 
ENDBRANCH   1   2
BRANCH   1   6
ATOM      6  N   UNL     1       2.899  -1.511  -0.279  0.00  0.00    -0.311 NA
ATOM      7  H1  UNL     1       2.707  -1.663  -1.273  0.00  0.00    +0.119 HD
ATOM      8  H2  UNL     1       3.918  -1.621  -0.212  0.00  0.00    +0.119 HD
ENDBRANCH   1   6
BRANCH   1   9
ATOM      9  C   UNL     1       3.115   0.832  -1.043  0.00  0.00    +0.331 C 
ATOM     10  OXT UNL     1       3.920   0.462  -1.891  0.00  0.00    -0.249 OA
BRANCH   9  11
ATOM     11  O   UNL     1       2.581   2.074  -1.080  0.00  0.00    -0.479 OA
ATOM     12  H   UNL     1       1.951   2.316  -0.373  0.00  0.00    +0.295 HD
ENDBRANCH   9  11
ENDBRANCH   1   9
TORSDOF 4
