REMARK  Name = 
REMARK  8 active torsions:
REMARK  status: ('A' for Active; 'I' for Inactive)
REMARK    1  A    between atoms: C_1  and  N_2
REMARK    2  A    between atoms: N_2  and  C_3
REMARK    3  A    between atoms: N_2  and  C_4
REMARK    4  A    between atoms: N_2  and  C_5
REMARK    5  A    between atoms: C_9  and  C_11
REMARK    6  A    between atoms: C_11  and  O_12
REMARK    7  A    between atoms: C_11  and  O_13
REMARK    8  A    between atoms: C_11  and  C_14
REMARK                            x       y       z     vdW  Elec       q    Type
REMARK                         _______ _______ _______ _____ _____    ______ ____
ROOT
ATOM      1  C   UNL     1       2.988   1.097  -0.659  0.00  0.00    +0.146 A 
ATOM      2  C   UNL     1       3.708   0.714  -1.800  0.00  0.00    +0.083 A 
ATOM      3  C   UNL     1       4.329   1.654  -2.653  0.00  0.00    +0.050 A 
ATOM      4  C   UNL     1       4.161   3.015  -2.360  0.00  0.00    +0.012 A 
ATOM      5  C   UNL     1       3.425   3.417  -1.249  0.00  0.00    +0.007 A 
ATOM      6  C   UNL     1       2.840   2.467  -0.406  0.00  0.00    +0.072 A 
ENDROOT
BRANCH   1   8
ATOM      7  C   UNL     1       3.196  -1.195   0.346  0.00  0.00    +0.360 C 
ATOM      8  N   UNL     1       2.314   0.050   0.213  0.00  0.00    -0.383 NA
ATOM      9  C   UNL     1       2.070   0.568   1.628  0.00  0.00    +0.360 C 
ATOM     10  C   UNL     1       0.988  -0.314  -0.439  0.00  0.00    +0.360 C 
ENDBRANCH   1   8
BRANCH   3  11
ATOM     11  C   UNL     1       5.090   1.214  -3.904  0.00  0.00    +0.364 C 
BRANCH  11  12
ATOM     12  C   UNL     1       6.522   1.861  -4.073  0.00  0.00    +0.473 C 
ATOM     13  F   UNL     1       6.537   2.685  -5.151  0.00  0.00    -0.163 F 
ATOM     14  F   UNL     1       7.438   0.885  -4.311  0.00  0.00    -0.163 F 
ATOM     15  F   UNL     1       6.944   2.563  -3.003  0.00  0.00    -0.163 F 
ENDBRANCH  11  12
BRANCH  11  16
ATOM     16  O   UNL     1       4.206   1.542  -4.988  0.00  0.00    -0.496 OA
ATOM     17  H   UNL     1       4.741   1.970  -5.685  0.00  0.00    +0.288 HD
ENDBRANCH  11  16
BRANCH  11  18
ATOM     18  O   UNL     1       5.185  -0.224  -3.887  0.00  0.00    -0.496 OA
ATOM     19  H   UNL     1       6.017  -0.456  -4.345  0.00  0.00    +0.288 HD
ENDBRANCH  11  18
ENDBRANCH   3  11
TORSDOF 5
