REMARK  Name = 
REMARK  7 active torsions:
REMARK  status: ('A' for Active; 'I' for Inactive)
REMARK    1  A    between atoms: C_2  and  C_3
REMARK    2  A    between atoms: C_9  and  C_10
REMARK    3  A    between atoms: C_20  and  C_22
REMARK    4  A    between atoms: C_24  and  O_25
REMARK    5  A    between atoms: O_25  and  C_26
REMARK    6  A    between atoms: C_27  and  O_28
REMARK    7  A    between atoms: O_28  and  C_29
REMARK                            x       y       z     vdW  Elec       q    Type
REMARK                         _______ _______ _______ _____ _____    ______ ____
ROOT
ATOM      1  C   UNL     1       1.984  -2.467   0.181  0.00  0.00    -0.001 A 
ATOM      2  C   UNL     1       1.153  -2.560   1.298  0.00  0.00    +0.011 A 
ATOM      3  C   UNL     1       0.916  -3.801   1.905  0.00  0.00    +0.024 A 
ATOM      4  C   UNL     1       1.485  -4.978   1.403  0.00  0.00    +0.040 A 
ATOM      5  N   UNL     1       1.228  -6.271   1.986  0.00  0.00    -0.267 N 
ATOM      6  C   UNL     1       0.898  -6.425   3.354  0.00  0.00    +0.251 C 
ATOM      7  O   UNL     1       0.772  -5.496   4.155  0.00  0.00    -0.270 OA
ATOM      8  C   UNL     1       1.375  -7.362   1.002  0.00  0.00    +0.114 C 
ATOM      9  C   UNL     1       2.798  -7.347   0.473  0.00  0.00    +0.024 C 
ATOM     10  C   UNL     1       2.955  -6.096  -0.380  0.00  0.00    +0.038 C 
ATOM     11  C   UNL     1       2.304  -4.887   0.253  0.00  0.00    -0.025 A 
ATOM     12  C   UNL     1       2.539  -3.636  -0.349  0.00  0.00    +0.015 A 
ENDROOT
BRANCH   1  14
ATOM     13  C   UNL     1       2.474   0.042   0.498  0.00  0.00    +0.103 C 
ATOM     14  C   UNL     1       2.372  -1.152  -0.431  0.00  0.00    +0.079 C 
ATOM     15  N   UNL     1       2.733  -1.158  -1.680  0.00  0.00    -0.183 NA
ATOM     16  N   UNL     1       3.213  -0.031  -2.266  0.00  0.00    -0.198 N 
ATOM     17  H   UNL     1       3.597  -0.159  -3.197  0.00  0.00    +0.178 HD
ATOM     18  C   UNL     1       3.214   1.264  -1.828  0.00  0.00    +0.292 C 
ATOM     19  O   UNL     1       3.749   2.156  -2.475  0.00  0.00    -0.261 OA
ATOM     20  S   UNL     1       2.358   1.615  -0.360  0.00  0.00    -0.057 S 
ATOM     21  C   UNL     1       3.746  -0.055   1.335  0.00  0.00    +0.026 C 
ENDBRANCH   1  14
BRANCH   6  22
ATOM     22  C   UNL     1       0.684  -7.784   3.945  0.00  0.00    +0.041 A 
ATOM     23  C   UNL     1      -0.335  -7.953   4.892  0.00  0.00    +0.017 A 
ATOM     24  C   UNL     1      -0.632  -9.222   5.407  0.00  0.00    +0.050 A 
ATOM     25  C   UNL     1       0.051 -10.347   4.936  0.00  0.00    +0.162 A 
ATOM     26  C   UNL     1       1.113 -10.174   4.028  0.00  0.00    +0.162 A 
ATOM     27  C   UNL     1       1.483  -8.885   3.629  0.00  0.00    +0.062 A 
BRANCH  25  28
ATOM     28  O   UNL     1      -0.239 -11.641   5.284  0.00  0.00    -0.491 OA
ATOM     29  C   UNL     1      -1.257 -11.856   6.252  0.00  0.00    +0.277 C 
ENDBRANCH  25  28
BRANCH  26  30
ATOM     30  O   UNL     1       1.729 -11.313   3.569  0.00  0.00    -0.491 OA
ATOM     31  C   UNL     1       2.573 -11.178   2.430  0.00  0.00    +0.277 C 
ENDBRANCH  26  30
ENDBRANCH   6  22
TORSDOF 4
