REMARK  Name = 
REMARK  7 active torsions:
REMARK  status: ('A' for Active; 'I' for Inactive)
REMARK    1  A    between atoms: C_2  and  C_3
REMARK    2  A    between atoms: C_2  and  O_4
REMARK    3  A    between atoms: C_2  and  C_20
REMARK    4  A    between atoms: O_4  and  C_5
REMARK    5  A    between atoms: C_8  and  O_9
REMARK    6  A    between atoms: O_9  and  C_10
REMARK    7  A    between atoms: C_20  and  O_21
REMARK                            x       y       z     vdW  Elec       q    Type
REMARK                         _______ _______ _______ _____ _____    ______ ____
ROOT
ATOM      1  C   UNL     1       2.122   0.543   2.270  0.00  0.00    +0.122 A 
ATOM      2  C   UNL     1       2.385   1.906   2.103  0.00  0.00    +0.049 A 
ATOM      3  C   UNL     1       2.092   2.808   3.123  0.00  0.00    +0.050 A 
ATOM      4  C   UNL     1       1.628   2.341   4.354  0.00  0.00    +0.129 A 
ATOM      5  C   UNL     1       1.346   0.990   4.522  0.00  0.00    +0.050 A 
ATOM      6  C   UNL     1       1.604   0.085   3.480  0.00  0.00    +0.049 A 
ENDROOT
BRANCH   1   7
ATOM      7  O   UNL     1       2.356  -0.416   1.316  0.00  0.00    -0.478 OA
BRANCH   7   8
ATOM      8  C   UNL     1       2.347   0.047  -0.043  0.00  0.00    +0.278 C 
ATOM      9  C   UNL     1       1.798  -1.068  -0.917  0.00  0.00    +0.064 C 
BRANCH   8  10
ATOM     10  C   UNL     1       3.760   0.400  -0.510  0.00  0.00    +0.346 C 
ATOM     11  O   UNL     1       4.004   1.153  -1.437  0.00  0.00    -0.247 OA
BRANCH  10  12
ATOM     12  O   UNL     1       4.729  -0.234   0.197  0.00  0.00    -0.478 OA
ATOM     13  H   UNL     1       4.335  -0.761   0.925  0.00  0.00    +0.295 HD
ENDBRANCH  10  12
ENDBRANCH   8  10
ENDBRANCH   7   8
ENDBRANCH   1   7
BRANCH   4  14
ATOM     14  O   UNL     1       1.402   3.173   5.427  0.00  0.00    -0.455 OA
BRANCH  14  15
ATOM     15  C   UNL     1       2.310   4.180   5.697  0.00  0.00    +0.147 A 
ATOM     16  C   UNL     1       1.842   5.336   6.337  0.00  0.00    +0.085 A 
ATOM     17 CL   UNL     1       0.180   5.514   6.771  0.00  0.00    -0.080 Cl
ATOM     18  C   UNL     1       2.717   6.385   6.636  0.00  0.00    +0.043 A 
ATOM     19  C   UNL     1       4.062   6.279   6.288  0.00  0.00    +0.043 A 
ATOM     20 CL   UNL     1       5.141   7.574   6.634  0.00  0.00    -0.083 Cl
ATOM     21  C   UNL     1       4.547   5.130   5.672  0.00  0.00    +0.023 A 
ATOM     22  C   UNL     1       3.679   4.070   5.405  0.00  0.00    +0.049 A 
ENDBRANCH  14  15
ENDBRANCH   4  14
TORSDOF 6
