REMARK  Name = 
REMARK  17 active torsions:
REMARK  status: ('A' for Active; 'I' for Inactive)
REMARK    1  A    between atoms: N_1  and  C_2
REMARK    2  A    between atoms: C_2  and  C_3
REMARK    3  A    between atoms: C_3  and  O_4
REMARK    4  A    between atoms: O_4  and  C_5
REMARK    5  A    between atoms: C_6  and  CA_7
REMARK    6  A    between atoms: CA_7  and  N_9
REMARK    7  A    between atoms: CA_7  and  C_25
REMARK    8  A    between atoms: N_9  and  C_10
REMARK    9  A    between atoms: C_10  and  C_11
REMARK   10  A    between atoms: C_12  and  O_13
REMARK   11  A    between atoms: C_14  and  C_15
REMARK   12  A    between atoms: C_18  and  C_19
REMARK   13  A    between atoms: C_19  and  O_20
REMARK   14  A    between atoms: O_20  and  P_21
REMARK   15  A    between atoms: P_21  and  O_22
REMARK   16  A    between atoms: P_21  and  O_23
REMARK   17  A    between atoms: C_25  and  O_26
REMARK                            x       y       z     vdW  Elec       q    Type
REMARK                         _______ _______ _______ _____ _____    ______ ____
ROOT
ATOM      1  C   UNL     1       5.368  -2.529   5.751  0.00  0.00    +0.016 A 
ATOM      2  C   UNL     1       4.867  -2.415   7.071  0.00  0.00    +0.005 A 
ATOM      3  C   UNL     1       4.623  -3.620   7.742  0.00  0.00    +0.117 A 
ATOM      4  N   UNL     1       4.832  -4.858   7.228  0.00  0.00    -0.256 NA
ATOM      5  C   UNL     1       5.331  -4.945   5.977  0.00  0.00    +0.080 A 
ATOM      6  C   UNL     1       5.550  -6.334   5.450  0.00  0.00    +0.069 C 
ATOM      7  C   UNL     1       5.629  -3.808   5.224  0.00  0.00    +0.142 A 
ENDROOT
BRANCH   7   8
ATOM      8  O   UNL     1       6.174  -3.958   3.977  0.00  0.00    -0.505 OA
ATOM      9  H   UNL     1       6.643  -3.122   3.761  0.00  0.00    +0.292 HD
ENDBRANCH   7   8
BRANCH   1  10
ATOM     10  C   UNL     1       5.586  -1.320   4.865  0.00  0.00    +0.121 C 
BRANCH  10  11
ATOM     11  N   UNL     1       6.995  -1.223   4.446  0.00  0.00    -0.297 NA
ATOM     12  H   UNL     1       7.580  -1.162   5.274  0.00  0.00    +0.123 HD
BRANCH  11  13
ATOM     13  CA  UNL     1       7.203  -0.060   3.549  0.00  0.00    +0.190 C 
BRANCH  13  14
ATOM     14  C   UNL     1       6.726   1.266   4.194  0.00  0.00    +0.326 C 
ATOM     15  OXT UNL     1       5.812   1.947   3.746  0.00  0.00    -0.249 OA
BRANCH  14  16
ATOM     16  O   UNL     1       7.326   1.570   5.370  0.00  0.00    -0.479 OA
ATOM     17  H   UNL     1       8.058   0.969   5.594  0.00  0.00    +0.295 HD
ENDBRANCH  14  16
ENDBRANCH  13  14
BRANCH  13  19
ATOM     18  C   UNL     1       9.753  -0.028   3.795  0.00  0.00    +0.185 C 
ATOM     19  C   UNL     1       8.626   0.068   3.078  0.00  0.00    +0.040 C 
BRANCH  18  20
ATOM     20  O   UNL     1      10.976   0.180   3.217  0.00  0.00    -0.498 OA
BRANCH  20  21
ATOM     21  C   UNL     1      12.056  -0.338   4.004  0.00  0.00    +0.243 C 
BRANCH  21  22
ATOM     22  C   UNL     1      13.375  -0.013   3.298  0.00  0.00    +0.119 C 
BRANCH  22  23
ATOM     23  N   UNL     1      14.532  -0.554   4.011  0.00  0.00    -0.327 NA
ATOM     24  H   UNL     1      14.493  -1.574   4.000  0.00  0.00    +0.118 HD
ATOM     25  H   UNL     1      15.379  -0.305   3.504  0.00  0.00    +0.118 HD
ENDBRANCH  22  23
ENDBRANCH  21  22
ENDBRANCH  20  21
ENDBRANCH  18  20
ENDBRANCH  13  19
ENDBRANCH  11  13
ENDBRANCH  10  11
ENDBRANCH   1  10
BRANCH   2  26
ATOM     26  C   UNL     1       4.517  -1.100   7.734  0.00  0.00    +0.209 C 
BRANCH  26  27
ATOM     27  O   UNL     1       4.556  -1.207   9.148  0.00  0.00    -0.282 OA
BRANCH  27  28
ATOM     28  P   UNL     1       4.108   0.212  10.030  0.00  0.00    +0.473 P 
ATOM     29  O   UNL     1       3.706   1.483  10.818  0.00  0.00    -0.228 OA
BRANCH  28  30
ATOM     30  O   UNL     1       4.542  -0.638  11.353  0.00  0.00    -0.303 OA
ATOM     31  H   UNL     1       5.489  -0.852  11.293  0.00  0.00    +0.222 HD
ENDBRANCH  28  30
BRANCH  28  32
ATOM     32  O   UNL     1       5.597   0.805   9.705  0.00  0.00    -0.303 OA
ATOM     33  H   UNL     1       5.583   1.734  10.020  0.00  0.00    +0.222 HD
ENDBRANCH  28  32
ENDBRANCH  27  28
ENDBRANCH  26  27
ENDBRANCH   2  26
TORSDOF 16
