REMARK  Name = 
REMARK  8 active torsions:
REMARK  status: ('A' for Active; 'I' for Inactive)
REMARK    1  A    between atoms: C_1  and  C_2
REMARK    2  A    between atoms: C_2  and  C_4
REMARK    3  A    between atoms: C_2  and  C_13
REMARK    4  A    between atoms: C_4  and  CA_5
REMARK    5  A    between atoms: CA_5  and  N_7
REMARK    6  A    between atoms: CA_5  and  C_8
REMARK    7  A    between atoms: C_8  and  O_9
REMARK    8  A    between atoms: C_13  and  O_14
REMARK                            x       y       z     vdW  Elec       q    Type
REMARK                         _______ _______ _______ _____ _____    ______ ____
ROOT
ATOM      1  CA  UNL     1       2.445  -0.831  -2.382  0.00  0.00    +0.221 C 
ENDROOT
BRANCH   1   2
ATOM      2  N   UNL     1       1.244  -0.304  -1.665  0.00  0.00    -0.314 NA
ATOM      3  H1  UNL     1       1.413  -0.371  -0.649  0.00  0.00    +0.119 HD
ATOM      4  H2  UNL     1       1.233   0.724  -1.786  0.00  0.00    +0.119 HD
ENDBRANCH   1   2
BRANCH   1   5
ATOM      5  C   UNL     1       1.978  -1.221  -3.800  0.00  0.00    +0.465 C 
ATOM      6  OXT UNL     1       2.645  -1.704  -4.692  0.00  0.00    -0.194 OA
BRANCH   5   7
ATOM      7  O   UNL     1       0.643  -1.046  -3.947  0.00  0.00    -0.568 OA
ATOM      8  H1  UNL     1       0.241  -0.961  -3.038  0.00  0.00    +0.558 HD
ATOM      9  H2  UNL     1       0.296  -1.687  -4.608  0.00  0.00    +0.558 HD
ENDBRANCH   5   7
ENDBRANCH   1   5
BRANCH   1  10
ATOM     10  C   UNL     1       3.032  -2.078  -1.703  0.00  0.00    +0.050 C 
BRANCH  10  12
ATOM     11  C   UNL     1       4.822  -0.905  -0.321  0.00  0.00    +0.019 C 
ATOM     12  C   UNL     1       3.654  -1.888  -0.298  0.00  0.00    +0.097 C 
BRANCH  12  13
ATOM     13  C   UNL     1       4.111  -3.245   0.224  0.00  0.00    +0.308 C 
ATOM     14  O   UNL     1       4.068  -4.273  -0.434  0.00  0.00    -0.251 OA
BRANCH  13  15
ATOM     15  O   UNL     1       4.517  -3.233   1.509  0.00  0.00    -0.480 OA
ATOM     16  H   UNL     1       4.504  -2.372   1.966  0.00  0.00    +0.295 HD
ENDBRANCH  13  15
ENDBRANCH  12  13
ENDBRANCH  10  12
ENDBRANCH   1  10
TORSDOF 7
