REMARK  Name = 
REMARK  6 active torsions:
REMARK  status: ('A' for Active; 'I' for Inactive)
REMARK    1  A    between atoms: O_1  and  C_2
REMARK    2  A    between atoms: C_5  and  C_6
REMARK    3  A    between atoms: C_7  and  C_8
REMARK    4  A    between atoms: C_8  and  C_10
REMARK    5  A    between atoms: C_13  and  O_14
REMARK    6  A    between atoms: C_16  and  O_17
REMARK                            x       y       z     vdW  Elec       q    Type
REMARK                         _______ _______ _______ _____ _____    ______ ____
ROOT
ATOM      1  C   UNL     1       8.776  -1.113  -1.035  0.00  0.00    +0.190 C 
ATOM      2  O   UNL     1       9.453  -0.122  -0.770  0.00  0.00    -0.287 OA
ENDROOT
BRANCH   1   3
ATOM      3  C   UNL     1       9.423  -2.327  -1.615  0.00  0.00    +0.063 A 
ATOM      4  C   UNL     1       8.795  -3.195  -2.522  0.00  0.00    +0.131 A 
ATOM      5  C   UNL     1       9.491  -4.281  -3.060  0.00  0.00    +0.091 A 
ATOM      6  C   UNL     1      10.817  -4.495  -2.703  0.00  0.00    +0.120 A 
ATOM      7  C   UNL     1      11.461  -3.653  -1.805  0.00  0.00    +0.046 A 
ATOM      8  C   UNL     1      10.763  -2.567  -1.265  0.00  0.00    +0.019 A 
BRANCH   4   9
ATOM      9  O   UNL     1       7.506  -2.981  -2.927  0.00  0.00    -0.506 OA
ATOM     10  H   UNL     1       7.276  -3.628  -3.617  0.00  0.00    +0.292 HD
ENDBRANCH   4   9
BRANCH   6  11
ATOM     11  O   UNL     1      11.462  -5.550  -3.279  0.00  0.00    -0.507 OA
ATOM     12  H   UNL     1      12.400  -5.523  -3.023  0.00  0.00    +0.292 HD
ENDBRANCH   6  11
ENDBRANCH   1   3
BRANCH   1  14
ATOM     13  C   UNL     1       6.607  -0.042  -0.557  0.00  0.00    +0.012 C 
ATOM     14  C   UNL     1       7.321  -1.165  -0.738  0.00  0.00    +0.052 C 
BRANCH  13  18
ATOM     15  C   UNL     1       2.378   0.068   0.064  0.00  0.00    +0.117 A 
ATOM     16  C   UNL     1       2.932  -0.979  -0.658  0.00  0.00    +0.046 A 
ATOM     17  C   UNL     1       4.313  -1.023  -0.863  0.00  0.00    +0.011 A 
ATOM     18  C   UNL     1       5.153  -0.034  -0.328  0.00  0.00    -0.025 A 
ATOM     19  C   UNL     1       4.570   1.020   0.390  0.00  0.00    +0.011 A 
ATOM     20  C   UNL     1       3.184   1.071   0.592  0.00  0.00    +0.046 A 
BRANCH  15  21
ATOM     21  O   UNL     1       1.025   0.078   0.224  0.00  0.00    -0.507 OA
ATOM     22  H   UNL     1       0.773   0.896   0.682  0.00  0.00    +0.292 HD
ENDBRANCH  15  21
ENDBRANCH  13  18
ENDBRANCH   1  14
TORSDOF 6
