REMARK  Name = 
REMARK  5 active torsions:
REMARK  status: ('A' for Active; 'I' for Inactive)
REMARK    1  A    between atoms: O_1  and  C_2
REMARK    2  A    between atoms: C_2  and  C_3
REMARK    3  A    between atoms: C_6  and  O_8
REMARK    4  A    between atoms: C_9  and  O_11
REMARK    5  A    between atoms: C_12  and  O_14
REMARK                            x       y       z     vdW  Elec       q    Type
REMARK                         _______ _______ _______ _____ _____    ______ ____
ROOT
ATOM      1  C   UNL     1       2.779   1.198   0.980  0.00  0.00    +0.178 C 
ATOM      2  C   UNL     1       1.811   1.236   2.166  0.00  0.00    +0.179 C 
ATOM      3  C   UNL     1       1.632   2.718   2.493  0.00  0.00    +0.201 C 
ATOM      4  C   UNL     1       2.544   3.441   1.500  0.00  0.00    +0.279 C 
ATOM      5  O   UNL     1       2.813   2.536   0.441  0.00  0.00    -0.341 OA
ENDROOT
BRANCH   2   6
ATOM      6  O   UNL     1       0.547   0.669   1.779  0.00  0.00    -0.386 OA
ATOM      7  H   UNL     1       0.254   1.108   0.960  0.00  0.00    +0.210 HD
ENDBRANCH   2   6
BRANCH   3   8
ATOM      8  O   UNL     1       1.973   3.013   3.850  0.00  0.00    -0.384 OA
ATOM      9  H   UNL     1       2.850   3.451   3.812  0.00  0.00    +0.210 HD
ENDBRANCH   3   8
BRANCH   4  10
ATOM     10  O   UNL     1       3.766   3.792   2.138  0.00  0.00    -0.365 OA
ATOM     11  H   UNL     1       4.278   4.235   1.437  0.00  0.00    +0.213 HD
ENDBRANCH   4  10
BRANCH   1  12
ATOM     12  C   UNL     1       4.183   0.737   1.398  0.00  0.00    +0.190 C 
BRANCH  12  13
ATOM     13  O   UNL     1       5.020   0.620   0.247  0.00  0.00    -0.392 OA
ATOM     14  H   UNL     1       5.892   0.320   0.556  0.00  0.00    +0.210 HD
ENDBRANCH  12  13
ENDBRANCH   1  12
TORSDOF 5
