REMARK  Name = 
REMARK  7 active torsions:
REMARK  status: ('A' for Active; 'I' for Inactive)
REMARK    1  A    between atoms: O_1  and  C_2
REMARK    2  A    between atoms: C_2  and  C_3
REMARK    3  A    between atoms: C_6  and  N_18
REMARK    4  A    between atoms: C_11  and  O_13
REMARK    5  A    between atoms: O_13  and  P_14
REMARK    6  A    between atoms: P_14  and  O_15
REMARK    7  A    between atoms: P_14  and  O_16
REMARK                            x       y       z     vdW  Elec       q    Type
REMARK                         _______ _______ _______ _____ _____    ______ ____
ROOT
ATOM      1  C   UNL     1       2.927   1.627   0.542  0.00  0.00    +0.178 C 
ATOM      2  C   UNL     1       2.315   2.035   1.883  0.00  0.00    +0.199 C 
ATOM      3  C   UNL     1       2.302   3.560   1.854  0.00  0.00    +0.247 C 
ATOM      4  F   UNL     1       3.079   4.051   2.848  0.00  0.00    -0.238 F 
ATOM      5  C   UNL     1       2.860   3.929   0.473  0.00  0.00    +0.260 C 
ATOM      6  O   UNL     1       2.726   2.744  -0.341  0.00  0.00    -0.345 OA
ENDROOT
BRANCH   5   7
ATOM      7  N   UNL     1       2.227   5.083  -0.167  0.00  0.00    -0.271 N 
ATOM      8  C   UNL     1       2.406   6.319   0.456  0.00  0.00    +0.331 A 
ATOM      9  O   UNL     1       3.003   6.474   1.520  0.00  0.00    -0.246 OA
ATOM     10  N   UNL     1       1.881   7.397  -0.190  0.00  0.00    -0.275 N 
ATOM     11  H   UNL     1       2.031   8.293   0.248  0.00  0.00    +0.173 HD
ATOM     12  C   UNL     1       1.339   7.395  -1.438  0.00  0.00    +0.254 A 
ATOM     13  O   UNL     1       0.999   8.417  -2.026  0.00  0.00    -0.268 OA
ATOM     14  C   UNL     1       1.195   6.075  -2.068  0.00  0.00    +0.088 A 
ATOM     15  C   UNL     1       1.640   4.997  -1.418  0.00  0.00    +0.098 A 
ENDBRANCH   5   7
BRANCH   1  16
ATOM     16  C   UNL     1       4.419   1.247   0.588  0.00  0.00    +0.190 C 
BRANCH  16  17
ATOM     17  O   UNL     1       5.207   2.291   1.146  0.00  0.00    -0.392 OA
ATOM     18  H   UNL     1       6.119   1.964   1.235  0.00  0.00    +0.210 HD
ENDBRANCH  16  17
ENDBRANCH   1  16
BRANCH   2  19
ATOM     19  O   UNL     1       3.038   1.453   2.952  0.00  0.00    -0.278 OA
BRANCH  19  20
ATOM     20  P   UNL     1       2.551   1.671   4.452  0.00  0.00    +0.473 P 
ATOM     21  O   UNL     1       1.394   2.575   4.692  0.00  0.00    -0.228 OA
BRANCH  20  22
ATOM     22  O   UNL     1       3.879   1.901   5.295  0.00  0.00    -0.303 OA
ATOM     23  H   UNL     1       4.464   1.122   5.240  0.00  0.00    +0.222 HD
ENDBRANCH  20  22
BRANCH  20  24
ATOM     24  O   UNL     1       2.203   0.172   4.889  0.00  0.00    -0.303 OA
ATOM     25  H   UNL     1       1.268  -0.022   4.697  0.00  0.00    +0.222 HD
ENDBRANCH  20  24
ENDBRANCH  19  20
ENDBRANCH   2  19
TORSDOF 7
