REMARK  Name = 
REMARK  3 active torsions:
REMARK  status: ('A' for Active; 'I' for Inactive)
REMARK    1  A    between atoms: N_1  and  CA_2
REMARK    2  A    between atoms: CA_2  and  C_3
REMARK    3  A    between atoms: C_3  and  O_4
REMARK                            x       y       z     vdW  Elec       q    Type
REMARK                         _______ _______ _______ _____ _____    ______ ____
ROOT
ATOM      1  CA  GLY A   1       2.556  -0.010  -0.040  0.00  0.00    +0.105 C 
ENDROOT
BRANCH   1   2
ATOM      2  N   GLY A   1       1.088   0.003  -0.091  0.00  0.00    -0.328 NA
ATOM      3  H1  GLY A   1       0.734  -0.918   0.174  0.00  0.00    +0.118 HD
ATOM      4  H2  GLY A   1       0.741   0.647   0.621  0.00  0.00    +0.118 HD
ENDBRANCH   1   2
BRANCH   1   5
ATOM      5  C   GLY A   1       3.114  -0.952  -1.111  0.00  0.00    +0.170 C 
BRANCH   5   6
ATOM      6  O   GLY A   1       2.615  -0.573  -2.390  0.00  0.00    -0.394 OA
ATOM      7  H   GLY A   1       1.700  -0.267  -2.218  0.00  0.00    +0.209 HD
ENDBRANCH   5   6
ENDBRANCH   1   5
TORSDOF 3
