REMARK  Name = 
REMARK  19 active torsions:
REMARK  status: ('A' for Active; 'I' for Inactive)
REMARK    1  A    between atoms: O_1  and  C_2
REMARK    2  A    between atoms: C_2  and  C_3
REMARK    3  A    between atoms: C_6  and  O_8
REMARK    4  A    between atoms: O_8  and  C_9
REMARK    5  A    between atoms: C_11  and  O_13
REMARK    6  A    between atoms: C_14  and  O_16
REMARK    7  A    between atoms: C_17  and  O_19
REMARK    8  A    between atoms: O_19  and  C_20
REMARK    9  A    between atoms: C_20  and  C_21
REMARK   10  A    between atoms: C_21  and  C_22
REMARK   11  A    between atoms: C_22  and  C_23
REMARK   12  A    between atoms: C_23  and  C_24
REMARK   13  A    between atoms: C_24  and  C_25
REMARK   14  A    between atoms: C_25  and  C_26
REMARK   15  A    between atoms: C_33  and  C_35
REMARK   16  A    between atoms: C_35  and  O_36
REMARK   17  A    between atoms: C_37  and  O_39
REMARK   18  A    between atoms: C_40  and  O_42
REMARK   19  A    between atoms: C_43  and  O_45
REMARK                            x       y       z     vdW  Elec       q    Type
REMARK                         _______ _______ _______ _____ _____    ______ ____
ROOT
ATOM      1  C   UNL     1       1.571  -0.572  -2.638  0.00  0.00    +0.183 C 
ATOM      2  C   UNL     1       0.047  -0.643  -2.963  0.00  0.00    +0.178 C 
ATOM      3  O   UNL     1      -0.529  -1.873  -2.495  0.00  0.00    -0.341 OA
ATOM      4  C   UNL     1       0.029  -3.049  -3.126  0.00  0.00    +0.282 C 
ATOM      5  C   UNL     1       1.551  -3.170  -2.916  0.00  0.00    +0.201 C 
ATOM      6  C   UNL     1       2.232  -1.827  -3.271  0.00  0.00    +0.179 C 
ENDROOT
BRANCH   6   7
ATOM      7  O   UNL     1       2.190  -1.667  -4.713  0.00  0.00    -0.386 OA
ATOM      8  H   UNL     1       1.288  -1.901  -5.038  0.00  0.00    +0.210 HD
ENDBRANCH   6   7
BRANCH   5   9
ATOM      9  O   UNL     1       1.842  -3.726  -1.636  0.00  0.00    -0.384 OA
ATOM     10  H   UNL     1       1.111  -3.493  -1.026  0.00  0.00    +0.210 HD
ENDBRANCH   5   9
BRANCH   4  11
ATOM     11  O   UNL     1      -0.287  -3.063  -4.519  0.00  0.00    -0.349 OA
BRANCH  11  12
ATOM     12  C   UNL     1       0.089  -4.262  -5.223  0.00  0.00    +0.163 C 
BRANCH  12  13
ATOM     13  C   UNL     1      -0.436  -5.545  -4.585  0.00  0.00    +0.028 C 
BRANCH  13  14
ATOM     14  C   UNL     1      -1.947  -5.440  -4.490  0.00  0.00    +0.002 C 
BRANCH  14  15
ATOM     15  C   UNL     1      -2.585  -6.633  -3.806  0.00  0.00    +0.000 C 
BRANCH  15  16
ATOM     16  C   UNL     1      -4.091  -6.445  -3.903  0.00  0.00    +0.000 C 
BRANCH  16  17
ATOM     17  C   UNL     1      -4.862  -7.622  -3.308  0.00  0.00    +0.003 C 
BRANCH  17  18
ATOM     18  C   UNL     1      -6.375  -7.441  -3.468  0.00  0.00    -0.011 C 
ATOM     19  C   UNL     1      -7.116  -8.601  -2.788  0.00  0.00    +0.003 C 
ATOM     20  C   UNL     1      -6.953  -9.923  -3.537  0.00  0.00    +0.000 C 
ATOM     21  C   UNL     1      -7.303  -9.803  -5.020  0.00  0.00    +0.000 C 
ATOM     22  C   UNL     1      -6.601  -8.633  -5.703  0.00  0.00    +0.000 C 
ATOM     23  C   UNL     1      -6.832  -7.335  -4.935  0.00  0.00    +0.003 C 
ENDBRANCH  17  18
ENDBRANCH  16  17
ENDBRANCH  15  16
ENDBRANCH  14  15
ENDBRANCH  13  14
ENDBRANCH  12  13
ENDBRANCH  11  12
ENDBRANCH   4  11
BRANCH   2  24
ATOM     24  C   UNL     1      -0.790   0.579  -2.543  0.00  0.00    +0.190 C 
BRANCH  24  25
ATOM     25  O   UNL     1      -2.172   0.381  -2.861  0.00  0.00    -0.392 OA
ATOM     26  H   UNL     1      -2.395  -0.526  -2.575  0.00  0.00    +0.210 HD
ENDBRANCH  24  25
ENDBRANCH   2  24
BRANCH   1  27
ATOM     27  O   UNL     1       1.998  -0.245  -1.275  0.00  0.00    -0.340 OA
BRANCH  27  32
ATOM     28  C   UNL     1      -0.072  -0.681   0.556  0.00  0.00    +0.178 C 
ATOM     29  C   UNL     1       0.453  -0.258   1.931  0.00  0.00    +0.177 C 
ATOM     30  C   UNL     1       1.956   0.067   1.805  0.00  0.00    +0.179 C 
ATOM     31  C   UNL     1       2.671  -1.053   1.065  0.00  0.00    +0.201 C 
ATOM     32  C   UNL     1       2.018  -1.309  -0.315  0.00  0.00    +0.282 C 
ATOM     33  O   UNL     1       0.686  -1.748  -0.056  0.00  0.00    -0.341 OA
BRANCH  29  34
ATOM     34  O   UNL     1      -0.262   0.909   2.369  0.00  0.00    -0.386 OA
ATOM     35  H   UNL     1      -0.025   1.652   1.787  0.00  0.00    +0.210 HD
ENDBRANCH  29  34
BRANCH  30  36
ATOM     36  O   UNL     1       2.554   0.237   3.095  0.00  0.00    -0.386 OA
ATOM     37  H   UNL     1       3.505   0.038   2.981  0.00  0.00    +0.210 HD
ENDBRANCH  30  36
BRANCH  31  38
ATOM     38  O   UNL     1       4.079  -0.804   1.029  0.00  0.00    -0.384 OA
ATOM     39  H   UNL     1       4.262  -0.193   0.296  0.00  0.00    +0.210 HD
ENDBRANCH  31  38
BRANCH  28  40
ATOM     40  C   UNL     1      -1.578  -0.959   0.494  0.00  0.00    +0.190 C 
BRANCH  40  41
ATOM     41  O   UNL     1      -1.966  -2.062   1.296  0.00  0.00    -0.392 OA
ATOM     42  H   UNL     1      -2.913  -2.203   1.113  0.00  0.00    +0.210 HD
ENDBRANCH  40  41
ENDBRANCH  28  40
ENDBRANCH  27  32
ENDBRANCH   1  27
TORSDOF 19
