REMARK  Name = 
REMARK  8 active torsions:
REMARK  status: ('A' for Active; 'I' for Inactive)
REMARK    1  A    between atoms: C_1  and  C_2
REMARK    2  A    between atoms: C_2  and  O_4
REMARK    3  A    between atoms: C_2  and  C_5
REMARK    4  A    between atoms: C_5  and  N_7
REMARK    5  A    between atoms: C_5  and  C_8
REMARK    6  A    between atoms: C_11  and  C_12
REMARK    7  A    between atoms: N_23  and  C_24
REMARK    8  A    between atoms: C_24  and  C_25
REMARK                            x       y       z     vdW  Elec       q    Type
REMARK                         _______ _______ _______ _____ _____    ______ ____
ROOT
ATOM      1  C   UNL     1       4.686   0.050   1.549  0.00  0.00    +0.317 C 
ATOM      2  N   UNL     1       5.506   1.118   1.650  0.00  0.00    -0.145 N 
ATOM      3  C   UNL     1       6.797   0.675   1.532  0.00  0.00    +0.379 C 
ATOM      4  O   UNL     1       7.834   1.308   1.575  0.00  0.00    -0.237 OA
ATOM      5  C   UNL     1       6.628  -0.805   1.484  0.00  0.00    +0.263 C 
ATOM      6  C   UNL     1       7.652  -1.659   1.634  0.00  0.00    +0.073 C 
ATOM      7  N   UNL     1       5.284  -1.100   1.444  0.00  0.00    -0.037 NA
ENDROOT
BRANCH   6   8
ATOM      8  C   UNL     1       7.549  -3.067   1.884  0.00  0.00    +0.004 A 
ATOM      9  C   UNL     1       8.490  -4.094   1.559  0.00  0.00    +0.007 A 
ATOM     10  C   UNL     1       7.979  -5.292   2.068  0.00  0.00    +0.047 A 
ATOM     11  C   UNL     1       8.633  -6.522   1.931  0.00  0.00    +0.026 A 
ATOM     12  C   UNL     1       9.851  -6.536   1.248  0.00  0.00    +0.002 A 
ATOM     13  C   UNL     1      10.392  -5.362   0.729  0.00  0.00    +0.001 A 
ATOM     14  N   UNL     1       6.786  -5.000   2.685  0.00  0.00    -0.360 N 
ATOM     15  H   UNL     1       6.199  -5.677   3.150  0.00  0.00    +0.165 HD
ATOM     16  C   UNL     1       9.727  -4.137   0.880  0.00  0.00    +0.010 A 
ATOM     17  C   UNL     1       6.524  -3.662   2.591  0.00  0.00    +0.091 A 
ENDBRANCH   6   8
BRANCH   1  18
ATOM     18  C   UNL     1       3.161   0.105   1.608  0.00  0.00    +0.197 C 
BRANCH  18  19
ATOM     19  N   UNL     1       2.650   1.273   0.849  0.00  0.00    -0.316 NA
ATOM     20  H   UNL     1       3.084   1.263  -0.083  0.00  0.00    +0.119 HD
ATOM     21  H   UNL     1       1.658   1.102   0.653  0.00  0.00    +0.119 HD
ENDBRANCH  18  19
BRANCH  18  23
ATOM     22  C   UNL     1       3.097  -1.068   3.888  0.00  0.00    +0.040 C 
ATOM     23  C   UNL     1       2.652   0.135   3.066  0.00  0.00    +0.140 C 
BRANCH  23  24
ATOM     24  O   UNL     1       1.218   0.151   3.072  0.00  0.00    -0.390 OA
ATOM     25  H   UNL     1       0.955   1.013   2.704  0.00  0.00    +0.210 HD
ENDBRANCH  23  24
ENDBRANCH  18  23
ENDBRANCH   1  18
BRANCH   2  26
ATOM     26  C   UNL     1       5.191   2.494   1.981  0.00  0.00    +0.306 C 
BRANCH  26  27
ATOM     27  C   UNL     1       4.985   3.385   0.775  0.00  0.00    +0.267 C 
ATOM     28  O   UNL     1       5.064   3.023  -0.394  0.00  0.00    -0.297 OA
ENDBRANCH  26  27
ENDBRANCH   2  26
TORSDOF 7
