REMARK  Name = 
REMARK  17 active torsions:
REMARK  status: ('A' for Active; 'I' for Inactive)
REMARK    1  A    between atoms: O_1  and  C_2
REMARK    2  A    between atoms: C_2  and  C_3
REMARK    3  A    between atoms: C_6  and  O_8
REMARK    4  A    between atoms: O_8  and  P_9
REMARK    5  A    between atoms: P_9  and  O_10
REMARK    6  A    between atoms: P_9  and  O_12
REMARK    7  A    between atoms: O_12  and  P_13
REMARK    8  A    between atoms: P_13  and  O_14
REMARK    9  A    between atoms: P_13  and  O_16
REMARK   10  A    between atoms: O_16  and  C_17
REMARK   11  A    between atoms: C_17  and  C_18
REMARK   12  A    between atoms: C_21  and  N_29
REMARK   13  A    between atoms: C_23  and  O_25
REMARK   14  A    between atoms: C_26  and  O_28
REMARK   15  A    between atoms: C_37  and  O_39
REMARK   16  A    between atoms: C_40  and  O_42
REMARK   17  A    between atoms: C_43  and  O_45
REMARK                            x       y       z     vdW  Elec       q    Type
REMARK                         _______ _______ _______ _____ _____    ______ ____
ROOT
ATOM      1  P   UNL     1       1.673  -2.683  -9.191  0.00  0.00    +0.483 P 
ATOM      2  O   UNL     1       2.711  -3.736  -8.814  0.00  0.00    -0.227 OA
ENDROOT
BRANCH   1   3
ATOM      3  O   UNL     1       0.236  -3.378  -8.829  0.00  0.00    -0.302 OA
ATOM      4  H   UNL     1       0.458  -4.274  -8.492  0.00  0.00    +0.222 HD
ENDBRANCH   1   3
BRANCH   1   5
ATOM      5  O   UNL     1       1.585  -3.337 -10.790  0.00  0.00    -0.186 OA
BRANCH   5   6
ATOM      6  P   UNL     1       1.550  -2.046 -11.940  0.00  0.00    +0.486 P 
ATOM      7  O   UNL     1       1.574  -3.017 -13.116  0.00  0.00    -0.227 OA
BRANCH   6   8
ATOM      8  O   UNL     1       1.516  -0.754 -13.091  0.00  0.00    -0.302 OA
ATOM      9  H   UNL     1       1.047  -1.141 -13.863  0.00  0.00    +0.222 HD
ENDBRANCH   6   8
BRANCH   6  10
ATOM     10  O   UNL     1       0.009  -1.730 -11.502  0.00  0.00    -0.254 OA
BRANCH  10  15
ATOM     11  C   UNL     1      -2.379  -2.123 -14.178  0.00  0.00    +0.178 C 
ATOM     12  C   UNL     1      -2.550  -3.642 -14.310  0.00  0.00    +0.177 C 
ATOM     13  C   UNL     1      -2.463  -4.285 -12.918  0.00  0.00    +0.179 C 
ATOM     14  C   UNL     1      -1.220  -3.830 -12.135  0.00  0.00    +0.202 C 
ATOM     15  C   UNL     1      -1.097  -2.287 -12.199  0.00  0.00    +0.293 C 
ATOM     16  O   UNL     1      -1.128  -1.813 -13.541  0.00  0.00    -0.340 OA
BRANCH  12  17
ATOM     17  O   UNL     1      -3.806  -3.930 -14.938  0.00  0.00    -0.386 OA
ATOM     18  H   UNL     1      -4.518  -3.794 -14.290  0.00  0.00    +0.210 HD
ENDBRANCH  12  17
BRANCH  13  19
ATOM     19  O   UNL     1      -2.469  -5.716 -13.016  0.00  0.00    -0.386 OA
ATOM     20  H   UNL     1      -2.163  -6.042 -12.146  0.00  0.00    +0.210 HD
ENDBRANCH  13  19
BRANCH  14  21
ATOM     21  O   UNL     1      -1.403  -4.341 -10.801  0.00  0.00    -0.384 OA
ATOM     22  H   UNL     1      -1.106  -3.671 -10.154  0.00  0.00    +0.210 HD
ENDBRANCH  14  21
BRANCH  11  23
ATOM     23  C   UNL     1      -2.435  -1.424 -15.537  0.00  0.00    +0.190 C 
BRANCH  23  24
ATOM     24  O   UNL     1      -2.458  -0.009 -15.323  0.00  0.00    -0.392 OA
ATOM     25  H   UNL     1      -2.447   0.406 -16.200  0.00  0.00    +0.210 HD
ENDBRANCH  23  24
ENDBRANCH  11  23
ENDBRANCH  10  15
ENDBRANCH   6  10
ENDBRANCH   5   6
ENDBRANCH   1   5
BRANCH   1  26
ATOM     26  O   UNL     1       1.761  -2.029  -7.592  0.00  0.00    -0.284 OA
BRANCH  26  27
ATOM     27  C   UNL     1       1.285  -0.696  -7.541  0.00  0.00    +0.206 C 
BRANCH  27  28
ATOM     28  C   UNL     1       1.356  -0.119  -6.124  0.00  0.00    +0.178 C 
ATOM     29  C   UNL     1       2.780   0.056  -5.584  0.00  0.00    +0.178 C 
ATOM     30  C   UNL     1       3.124   1.531  -5.829  0.00  0.00    +0.195 C 
ATOM     31  C   UNL     1       1.864   2.095  -6.507  0.00  0.00    +0.255 C 
ATOM     32  O   UNL     1       0.791   1.207  -6.146  0.00  0.00    -0.346 OA
BRANCH  31  33
ATOM     33  N   UNL     1       1.541   3.485  -6.189  0.00  0.00    -0.271 N 
ATOM     34  C   UNL     1       2.428   4.456  -6.645  0.00  0.00    +0.331 A 
ATOM     35  O   UNL     1       3.508   4.188  -7.168  0.00  0.00    -0.246 OA
ATOM     36  N   UNL     1       2.022   5.754  -6.492  0.00  0.00    -0.275 N 
ATOM     37  H   UNL     1       2.625   6.466  -6.874  0.00  0.00    +0.173 HD
ATOM     38  C   UNL     1       0.798   6.160  -6.045  0.00  0.00    +0.254 A 
ATOM     39  O   UNL     1       0.424   7.321  -6.094  0.00  0.00    -0.268 OA
ATOM     40  C   UNL     1      -0.065   5.100  -5.505  0.00  0.00    +0.088 A 
ATOM     41  C   UNL     1       0.329   3.831  -5.614  0.00  0.00    +0.098 A 
ENDBRANCH  31  33
BRANCH  30  42
ATOM     42  O   UNL     1       4.270   1.639  -6.675  0.00  0.00    -0.385 OA
ATOM     43  H   UNL     1       4.410   2.598  -6.842  0.00  0.00    +0.210 HD
ENDBRANCH  30  42
BRANCH  29  44
ATOM     44  O   UNL     1       2.802  -0.204  -4.170  0.00  0.00    -0.386 OA
ATOM     45  H   UNL     1       2.059   0.267  -3.754  0.00  0.00    +0.210 HD
ENDBRANCH  29  44
ENDBRANCH  27  28
ENDBRANCH  26  27
ENDBRANCH   1  26
TORSDOF 17
