REMARK  Name = 
REMARK  93 active torsions:
REMARK  status: ('A' for Active; 'I' for Inactive)
REMARK    1  A    between atoms: C_1  and  C_2
REMARK    2  A    between atoms: C_2  and  C_3
REMARK    3  A    between atoms: C_3  and  C_4
REMARK    4  A    between atoms: C_4  and  C_5
REMARK    5  A    between atoms: C_5  and  C_6
REMARK    6  A    between atoms: C_6  and  C_7
REMARK    7  A    between atoms: C_7  and  C_8
REMARK    8  A    between atoms: C_8  and  C_9
REMARK    9  A    between atoms: C_9  and  C_10
REMARK   10  A    between atoms: C_10  and  C_11
REMARK   11  A    between atoms: C_11  and  C_12
REMARK   12  A    between atoms: C_12  and  C_13
REMARK   13  A    between atoms: C_13  and  C_14
REMARK   14  A    between atoms: C_14  and  C_15
REMARK   15  A    between atoms: C_15  and  C_16
REMARK   16  A    between atoms: C_16  and  C_17
REMARK   17  A    between atoms: C_17  and  C_18
REMARK   18  A    between atoms: C_18  and  O_20
REMARK   19  A    between atoms: O_20  and  C_21
REMARK   20  A    between atoms: C_21  and  C_22
REMARK   21  A    between atoms: C_22  and  C_24
REMARK   22  A    between atoms: C_22  and  O_83
REMARK   23  A    between atoms: C_24  and  O_25
REMARK   24  A    between atoms: O_25  and  P_26
REMARK   25  A    between atoms: P_26  and  O_27
REMARK   26  A    between atoms: P_26  and  O_29
REMARK   27  A    between atoms: O_29  and  C_30
REMARK   28  A    between atoms: C_30  and  C_31
REMARK   29  A    between atoms: C_31  and  O_32
REMARK   30  A    between atoms: C_31  and  C_33
REMARK   31  A    between atoms: C_33  and  O_34
REMARK   32  A    between atoms: O_34  and  P_35
REMARK   33  A    between atoms: P_35  and  O_36
REMARK   34  A    between atoms: P_35  and  O_38
REMARK   35  A    between atoms: O_38  and  C_39
REMARK   36  A    between atoms: C_39  and  C_40
REMARK   37  A    between atoms: C_40  and  C_42
REMARK   38  A    between atoms: C_40  and  O_63
REMARK   39  A    between atoms: C_42  and  O_43
REMARK   40  A    between atoms: O_43  and  C_44
REMARK   41  A    between atoms: C_44  and  C_46
REMARK   42  A    between atoms: C_46  and  C_47
REMARK   43  A    between atoms: C_47  and  C_48
REMARK   44  A    between atoms: C_48  and  C_49
REMARK   45  A    between atoms: C_49  and  C_50
REMARK   46  A    between atoms: C_50  and  C_51
REMARK   47  A    between atoms: C_51  and  C_52
REMARK   48  A    between atoms: C_52  and  C_53
REMARK   49  A    between atoms: C_53  and  C_54
REMARK   50  A    between atoms: C_54  and  C_55
REMARK   51  A    between atoms: C_55  and  C_56
REMARK   52  A    between atoms: C_56  and  C_57
REMARK   53  A    between atoms: C_57  and  C_58
REMARK   54  A    between atoms: C_58  and  C_59
REMARK   55  A    between atoms: C_59  and  C_60
REMARK   56  A    between atoms: C_60  and  C_61
REMARK   57  A    between atoms: C_61  and  C_62
REMARK   58  A    between atoms: O_63  and  C_64
REMARK   59  A    between atoms: C_64  and  C_66
REMARK   60  A    between atoms: C_66  and  C_67
REMARK   61  A    between atoms: C_67  and  C_68
REMARK   62  A    between atoms: C_68  and  C_69
REMARK   63  A    between atoms: C_69  and  C_70
REMARK   64  A    between atoms: C_70  and  C_71
REMARK   65  A    between atoms: C_71  and  C_72
REMARK   66  A    between atoms: C_72  and  C_73
REMARK   67  A    between atoms: C_73  and  C_74
REMARK   68  A    between atoms: C_74  and  C_75
REMARK   69  A    between atoms: C_75  and  C_76
REMARK   70  A    between atoms: C_76  and  C_77
REMARK   71  A    between atoms: C_77  and  C_78
REMARK   72  A    between atoms: C_78  and  C_79
REMARK   73  A    between atoms: C_79  and  C_80
REMARK   74  A    between atoms: C_80  and  C_81
REMARK   75  A    between atoms: C_81  and  C_82
REMARK   76  A    between atoms: O_83  and  C_84
REMARK   77  A    between atoms: C_84  and  C_86
REMARK   78  A    between atoms: C_86  and  C_87
REMARK   79  A    between atoms: C_87  and  C_88
REMARK   80  A    between atoms: C_88  and  C_89
REMARK   81  A    between atoms: C_89  and  C_90
REMARK   82  A    between atoms: C_90  and  C_91
REMARK   83  A    between atoms: C_91  and  C_92
REMARK   84  A    between atoms: C_92  and  C_93
REMARK   85  A    between atoms: C_93  and  C_94
REMARK   86  A    between atoms: C_94  and  C_95
REMARK   87  A    between atoms: C_95  and  C_96
REMARK   88  A    between atoms: C_96  and  C_97
REMARK   89  A    between atoms: C_97  and  C_98
REMARK   90  A    between atoms: C_98  and  C_99
REMARK   91  A    between atoms: C_99  and  C_100
REMARK   92  A    between atoms: C_100  and  C_101
REMARK   93  A    between atoms: C_101  and  C_102
REMARK                            x       y       z     vdW  Elec       q    Type
REMARK                         _______ _______ _______ _____ _____    ______ ____
ROOT
ATOM      1  C   UNL     1      19.763  13.524 -11.808  0.00  0.00    +0.167 C 
ENDROOT
BRANCH   1   2
ATOM      2  O   UNL     1      20.389  12.255 -12.014  0.00  0.00    -0.387 OA
ATOM      3  H   UNL     1      20.451  11.777 -11.173  0.00  0.00    +0.210 HD
ENDBRANCH   1   2
BRANCH   1   4
ATOM      4  C   UNL     1      18.229  13.413 -11.957  0.00  0.00    +0.206 C 
BRANCH   4   5
ATOM      5  O   UNL     1      17.724  12.717 -13.073  0.00  0.00    -0.284 OA
BRANCH   5   6
ATOM      6  P   UNL     1      17.589  13.338 -14.578  0.00  0.00    +0.475 P 
ATOM      7  O   UNL     1      18.888  14.065 -14.915  0.00  0.00    -0.227 OA
BRANCH   6   8
ATOM      8  O   UNL     1      18.347  11.891 -15.149  0.00  0.00    -0.302 OA
ATOM      9  H   UNL     1      19.298  12.133 -15.141  0.00  0.00    +0.222 HD
ENDBRANCH   6   8
BRANCH   6  10
ATOM     10  O   UNL     1      16.831  14.784 -14.007  0.00  0.00    -0.283 OA
BRANCH  10  11
ATOM     11  C   UNL     1      17.234  16.113 -14.272  0.00  0.00    +0.220 C 
BRANCH  11  12
ATOM     12  C   UNL     1      17.039  16.663 -15.691  0.00  0.00    +0.240 C 
BRANCH  12  13
ATOM     13  O   UNL     1      17.267  18.089 -15.605  0.00  0.00    -0.456 OA
BRANCH  13  14
ATOM     14  C   UNL     1      18.312  18.612 -16.288  0.00  0.00    +0.308 C 
ATOM     15  O   UNL     1      19.049  18.004 -17.045  0.00  0.00    -0.251 OA
BRANCH  14  16
ATOM     16  C   UNL     1      18.441  20.078 -15.988  0.00  0.00    +0.120 C 
BRANCH  16  17
ATOM     17  C   UNL     1      18.648  20.296 -14.494  0.00  0.00    +0.011 C 
BRANCH  17  18
ATOM     18  C   UNL     1      18.785  21.775 -14.156  0.00  0.00    +0.001 C 
BRANCH  18  19
ATOM     19  C   UNL     1      18.949  21.968 -12.646  0.00  0.00    +0.000 C 
BRANCH  19  20
ATOM     20  C   UNL     1      19.091  23.434 -12.243  0.00  0.00    +0.000 C 
BRANCH  20  21
ATOM     21  C   UNL     1      17.856  24.251 -12.606  0.00  0.00    +0.000 C 
BRANCH  21  22
ATOM     22  C   UNL     1      18.006  25.703 -12.180  0.00  0.00    -0.000 C 
BRANCH  22  23
ATOM     23  C   UNL     1      16.767  26.485 -12.595  0.00  0.00    -0.000 C 
BRANCH  23  24
ATOM     24  C   UNL     1      16.895  27.947 -12.199  0.00  0.00    -0.000 C 
BRANCH  24  25
ATOM     25  C   UNL     1      15.647  28.712 -12.614  0.00  0.00    -0.000 C 
BRANCH  25  26
ATOM     26  C   UNL     1      15.767  30.175 -12.218  0.00  0.00    -0.000 C 
BRANCH  26  27
ATOM     27  C   UNL     1      14.517  30.940 -12.628  0.00  0.00    -0.000 C 
BRANCH  27  28
ATOM     28  C   UNL     1      14.636  32.406 -12.232  0.00  0.00    -0.000 C 
BRANCH  28  29
ATOM     29  C   UNL     1      13.386  33.177 -12.637  0.00  0.00    -0.000 C 
BRANCH  29  30
ATOM     30  C   UNL     1      13.508  34.644 -12.241  0.00  0.00    -0.000 C 
BRANCH  30  31
ATOM     31  C   UNL     1      12.260  35.425 -12.641  0.00  0.00    -0.003 C 
ATOM     32  C   UNL     1      12.382  36.886 -12.246  0.00  0.00    +0.004 C 
ENDBRANCH  30  31
ENDBRANCH  29  30
ENDBRANCH  28  29
ENDBRANCH  27  28
ENDBRANCH  26  27
ENDBRANCH  25  26
ENDBRANCH  24  25
ENDBRANCH  23  24
ENDBRANCH  22  23
ENDBRANCH  21  22
ENDBRANCH  20  21
ENDBRANCH  19  20
ENDBRANCH  18  19
ENDBRANCH  17  18
ENDBRANCH  16  17
ENDBRANCH  14  16
ENDBRANCH  13  14
ENDBRANCH  12  13
BRANCH  12  33
ATOM     33  C   UNL     1      15.614  16.499 -16.226  0.00  0.00    +0.279 C 
BRANCH  33  34
ATOM     34  O   UNL     1      15.231  15.127 -16.321  0.00  0.00    -0.461 OA
BRANCH  34  35
ATOM     35  C   UNL     1      15.747  14.470 -17.392  0.00  0.00    +0.307 C 
ATOM     36  O   UNL     1      16.448  14.961 -18.260  0.00  0.00    -0.251 OA
BRANCH  35  37
ATOM     37  C   UNL     1      15.314  13.042 -17.359  0.00  0.00    +0.120 C 
BRANCH  37  38
ATOM     38  C   UNL     1      13.984  12.940 -18.070  0.00  0.00    +0.011 C 
BRANCH  38  39
ATOM     39  C   UNL     1      13.480  11.509 -18.044  0.00  0.00    +0.001 C 
BRANCH  39  40
ATOM     40  C   UNL     1      12.151  11.429 -18.775  0.00  0.00    +0.000 C 
BRANCH  40  41
ATOM     41  C   UNL     1      11.629  10.004 -18.769  0.00  0.00    +0.000 C 
BRANCH  41  42
ATOM     42  C   UNL     1      10.303   9.940 -19.508  0.00  0.00    +0.000 C 
BRANCH  42  43
ATOM     43  C   UNL     1       9.772   8.518 -19.509  0.00  0.00    -0.000 C 
BRANCH  43  44
ATOM     44  C   UNL     1       8.446   8.455 -20.250  0.00  0.00    -0.000 C 
BRANCH  44  45
ATOM     45  C   UNL     1       7.916   7.031 -20.253  0.00  0.00    -0.000 C 
BRANCH  45  46
ATOM     46  C   UNL     1       6.589   6.962 -20.993  0.00  0.00    -0.000 C 
BRANCH  46  47
ATOM     47  C   UNL     1       6.059   5.537 -20.995  0.00  0.00    -0.000 C 
BRANCH  47  48
ATOM     48  C   UNL     1       4.731   5.465 -21.736  0.00  0.00    -0.000 C 
BRANCH  48  49
ATOM     49  C   UNL     1       4.198   4.038 -21.739  0.00  0.00    -0.000 C 
BRANCH  49  50
ATOM     50  C   UNL     1       2.868   3.960 -22.479  0.00  0.00    -0.000 C 
BRANCH  50  51
ATOM     51  C   UNL     1       2.336   2.531 -22.482  0.00  0.00    -0.000 C 
BRANCH  51  52
ATOM     52  C   UNL     1       1.005   2.443 -23.221  0.00  0.00    -0.003 C 
ATOM     53  C   UNL     1       0.475   1.020 -23.226  0.00  0.00    +0.004 C 
ENDBRANCH  51  52
ENDBRANCH  50  51
ENDBRANCH  49  50
ENDBRANCH  48  49
ENDBRANCH  47  48
ENDBRANCH  46  47
ENDBRANCH  45  46
ENDBRANCH  44  45
ENDBRANCH  43  44
ENDBRANCH  42  43
ENDBRANCH  41  42
ENDBRANCH  40  41
ENDBRANCH  39  40
ENDBRANCH  38  39
ENDBRANCH  37  38
ENDBRANCH  35  37
ENDBRANCH  34  35
ENDBRANCH  33  34
ENDBRANCH  12  33
ENDBRANCH  11  12
ENDBRANCH  10  11
ENDBRANCH   6  10
ENDBRANCH   5   6
ENDBRANCH   4   5
ENDBRANCH   1   4
BRANCH   1  54
ATOM     54  C   UNL     1      20.003  14.065 -10.373  0.00  0.00    +0.206 C 
BRANCH  54  55
ATOM     55  O   UNL     1      21.339  14.461 -10.124  0.00  0.00    -0.284 OA
BRANCH  55  56
ATOM     56  P   UNL     1      21.741  15.167  -8.596  0.00  0.00    +0.475 P 
ATOM     57  O   UNL     1      23.056  15.679  -9.175  0.00  0.00    -0.227 OA
BRANCH  56  58
ATOM     58  O   UNL     1      20.597  16.307  -8.904  0.00  0.00    -0.302 OA
ATOM     59  H   UNL     1      19.717  16.082  -8.563  0.00  0.00    +0.222 HD
ENDBRANCH  56  58
BRANCH  56  60
ATOM     60  O   UNL     1      22.142  15.872  -7.069  0.00  0.00    -0.283 OA
BRANCH  60  61
ATOM     61  C   UNL     1      21.360  17.007  -6.680  0.00  0.00    +0.220 C 
BRANCH  61  62
ATOM     62  C   UNL     1      21.778  17.658  -5.370  0.00  0.00    +0.240 C 
BRANCH  62  63
ATOM     63  O   UNL     1      21.548  16.717  -4.312  0.00  0.00    -0.456 OA
BRANCH  63  64
ATOM     64  C   UNL     1      22.655  16.364  -3.607  0.00  0.00    +0.308 C 
ATOM     65  O   UNL     1      23.788  16.779  -3.793  0.00  0.00    -0.251 OA
BRANCH  64  66
ATOM     66  C   UNL     1      22.287  15.437  -2.491  0.00  0.00    +0.120 C 
BRANCH  66  67
ATOM     67  C   UNL     1      22.506  16.162  -1.177  0.00  0.00    +0.011 C 
BRANCH  67  68
ATOM     68  C   UNL     1      22.254  15.239   0.002  0.00  0.00    +0.001 C 
BRANCH  68  69
ATOM     69  C   UNL     1      22.511  15.988   1.300  0.00  0.00    +0.000 C 
BRANCH  69  70
ATOM     70  C   UNL     1      22.272  15.080   2.493  0.00  0.00    +0.000 C 
BRANCH  70  71
ATOM     71  C   UNL     1      22.540  15.836   3.785  0.00  0.00    +0.000 C 
BRANCH  71  72
ATOM     72  C   UNL     1      22.294  14.930   4.979  0.00  0.00    -0.000 C 
BRANCH  72  73
ATOM     73  C   UNL     1      22.557  15.681   6.273  0.00  0.00    -0.000 C 
BRANCH  73  74
ATOM     74  C   UNL     1      22.305  14.769   7.463  0.00  0.00    -0.000 C 
BRANCH  74  75
ATOM     75  C   UNL     1      22.564  15.514   8.763  0.00  0.00    -0.000 C 
BRANCH  75  76
ATOM     76  C   UNL     1      22.312  14.599   9.951  0.00  0.00    -0.000 C 
BRANCH  76  77
ATOM     77  C   UNL     1      22.571  15.341  11.254  0.00  0.00    -0.000 C 
BRANCH  77  78
ATOM     78  C   UNL     1      22.320  14.427  12.446  0.00  0.00    -0.000 C 
BRANCH  78  79
ATOM     79  C   UNL     1      22.579  15.166  13.754  0.00  0.00    -0.000 C 
BRANCH  79  80
ATOM     80  C   UNL     1      22.328  14.250  14.947  0.00  0.00    -0.000 C 
BRANCH  80  81
ATOM     81  C   UNL     1      22.584  14.981  16.261  0.00  0.00    -0.003 C 
ATOM     82  C   UNL     1      22.336  14.070  17.450  0.00  0.00    +0.004 C 
ENDBRANCH  80  81
ENDBRANCH  79  80
ENDBRANCH  78  79
ENDBRANCH  77  78
ENDBRANCH  76  77
ENDBRANCH  75  76
ENDBRANCH  74  75
ENDBRANCH  73  74
ENDBRANCH  72  73
ENDBRANCH  71  72
ENDBRANCH  70  71
ENDBRANCH  69  70
ENDBRANCH  68  69
ENDBRANCH  67  68
ENDBRANCH  66  67
ENDBRANCH  64  66
ENDBRANCH  63  64
ENDBRANCH  62  63
BRANCH  62  83
ATOM     83  C   UNL     1      20.881  18.885  -5.115  0.00  0.00    +0.279 C 
BRANCH  83  84
ATOM     84  O   UNL     1      21.046  19.873  -6.143  0.00  0.00    -0.461 OA
BRANCH  84  85
ATOM     85  C   UNL     1      22.177  20.620  -6.017  0.00  0.00    +0.307 C 
ATOM     86  O   UNL     1      22.921  20.592  -5.047  0.00  0.00    -0.251 OA
BRANCH  85  87
ATOM     87  C   UNL     1      22.388  21.469  -7.242  0.00  0.00    +0.120 C 
BRANCH  87  88
ATOM     88  C   UNL     1      23.877  21.570  -7.541  0.00  0.00    +0.011 C 
BRANCH  88  89
ATOM     89  C   UNL     1      24.155  22.439  -8.761  0.00  0.00    +0.001 C 
BRANCH  89  90
ATOM     90  C   UNL     1      25.658  22.523  -8.998  0.00  0.00    +0.000 C 
BRANCH  90  91
ATOM     91  C   UNL     1      25.981  23.398 -10.200  0.00  0.00    +0.000 C 
BRANCH  91  92
ATOM     92  C   UNL     1      27.489  23.465 -10.403  0.00  0.00    +0.000 C 
BRANCH  92  93
ATOM     93  C   UNL     1      27.832  24.338 -11.600  0.00  0.00    -0.000 C 
BRANCH  93  94
ATOM     94  C   UNL     1      29.340  24.400 -11.795  0.00  0.00    -0.000 C 
BRANCH  94  95
ATOM     95  C   UNL     1      29.684  25.274 -12.991  0.00  0.00    -0.000 C 
BRANCH  95  96
ATOM     96  C   UNL     1      31.192  25.339 -13.187  0.00  0.00    -0.000 C 
BRANCH  96  97
ATOM     97  C   UNL     1      31.536  26.216 -14.383  0.00  0.00    -0.000 C 
BRANCH  97  98
ATOM     98  C   UNL     1      33.044  26.281 -14.582  0.00  0.00    -0.000 C 
BRANCH  98  99
ATOM     99  C   UNL     1      33.388  27.158 -15.780  0.00  0.00    -0.000 C 
BRANCH  99 100
ATOM    100  C   UNL     1      34.897  27.226 -15.985  0.00  0.00    -0.000 C 
BRANCH 100 101
ATOM    101  C   UNL     1      35.238  28.105 -17.184  0.00  0.00    -0.000 C 
BRANCH 101 103
ATOM    102  C   UNL     1      37.085  29.055 -18.593  0.00  0.00    +0.004 C 
ATOM    103  C   UNL     1      36.746  28.179 -17.399  0.00  0.00    -0.003 C 
ENDBRANCH 101 103
ENDBRANCH 100 101
ENDBRANCH  99 100
ENDBRANCH  98  99
ENDBRANCH  97  98
ENDBRANCH  96  97
ENDBRANCH  95  96
ENDBRANCH  94  95
ENDBRANCH  93  94
ENDBRANCH  92  93
ENDBRANCH  91  92
ENDBRANCH  90  91
ENDBRANCH  89  90
ENDBRANCH  88  89
ENDBRANCH  87  88
ENDBRANCH  85  87
ENDBRANCH  84  85
ENDBRANCH  83  84
ENDBRANCH  62  83
ENDBRANCH  61  62
ENDBRANCH  60  61
ENDBRANCH  56  60
ENDBRANCH  55  56
ENDBRANCH  54  55
ENDBRANCH   1  54
TORSDOF 89
