REMARK  Name = 
REMARK  7 active torsions:
REMARK  status: ('A' for Active; 'I' for Inactive)
REMARK    1  A    between atoms: C_1  and  C_2
REMARK    2  A    between atoms: C_2  and  C_3
REMARK    3  A    between atoms: C_2  and  C_4
REMARK    4  A    between atoms: C_4  and  C_5
REMARK    5  A    between atoms: C_5  and  N_7
REMARK    6  A    between atoms: C_5  and  C_8
REMARK    7  A    between atoms: N_10  and  O_11
REMARK                            x       y       z     vdW  Elec       q    Type
REMARK                         _______ _______ _______ _____ _____    ______ ____
ROOT
ATOM      1  C   UNL     1       4.329  -0.392  -1.605  0.00  0.00    +0.140 C 
ENDROOT
BRANCH   1   2
ATOM      2  C   UNL     1       5.189  -1.431  -2.349  0.00  0.00    +0.252 C 
ATOM      3  N   UNL     1       5.681  -1.006  -3.565  0.00  0.00    -0.196 N 
ATOM      4  H   UNL     1       5.156  -0.347  -4.135  0.00  0.00    +0.182 HD
ATOM      5  O   UNL     1       5.446  -2.552  -1.906  0.00  0.00    -0.272 OA
BRANCH   3   6
ATOM      6  O   UNL     1       6.402  -1.994  -4.283  0.00  0.00    -0.295 OA
ATOM      7  H   UNL     1       6.416  -2.747  -3.650  0.00  0.00    +0.241 HD
ENDBRANCH   3   6
ENDBRANCH   1   2
BRANCH   1   8
ATOM      8  N   UNL     1       3.508  -1.054  -0.576  0.00  0.00    -0.320 NA
ATOM      9  H   UNL     1       3.431  -0.473   0.256  0.00  0.00    +0.119 HD
ATOM     10  H   UNL     1       3.986  -1.915  -0.288  0.00  0.00    +0.119 HD
ENDBRANCH   1   8
BRANCH   1  11
ATOM     11  C   UNL     1       5.132   0.817  -1.089  0.00  0.00    +0.031 C 
BRANCH  11  13
ATOM     12  C   UNL     1       7.207  -0.331  -0.068  0.00  0.00    +0.007 C 
ATOM     13  C   UNL     1       6.038   0.628   0.150  0.00  0.00    -0.015 C 
ATOM     14  C   UNL     1       6.605   1.995   0.565  0.00  0.00    +0.007 C 
ENDBRANCH  11  13
ENDBRANCH   1  11
TORSDOF 5
