REMARK  Name = 
REMARK  11 active torsions:
REMARK  status: ('A' for Active; 'I' for Inactive)
REMARK    1  A    between atoms: C_1  and  C_2
REMARK    2  A    between atoms: CA_3  and  C_25
REMARK    3  A    between atoms: CA_9  and  N_11
REMARK    4  A    between atoms: C_12  and  C_14
REMARK    5  A    between atoms: C_14  and  C_15
REMARK    6  A    between atoms: C_15  and  C_16
REMARK    7  A    between atoms: C_16  and  CA_17
REMARK    8  A    between atoms: CA_17  and  N_19
REMARK    9  A    between atoms: CA_17  and  C_20
REMARK   10  A    between atoms: C_20  and  O_21
REMARK   11  A    between atoms: C_25  and  O_26
REMARK                            x       y       z     vdW  Elec       q    Type
REMARK                         _______ _______ _______ _____ _____    ______ ____
ROOT
ATOM      1  N   UNL     1      14.267  -2.564  -3.709  0.00  0.00    -0.302 N 
ATOM      2  H   UNL     1      14.388  -2.188  -4.644  0.00  0.00    +0.150 HD
ATOM      3  C   UNL     1      14.174  -1.697  -2.648  0.00  0.00    +0.214 C 
ATOM      4  O   UNL     1      14.151  -2.103  -1.491  0.00  0.00    -0.276 OA
ENDROOT
BRANCH   1  10
ATOM      5  C   UNL     1      11.528  -8.734  -2.289  0.00  0.00    +0.042 C 
ATOM      6  C   UNL     1      12.220  -7.410  -2.553  0.00  0.00    -0.034 C 
ATOM      7  C   UNL     1      12.376  -6.675  -1.226  0.00  0.00    +0.103 C 
ATOM      8  S   UNL     1      13.822  -5.596  -1.176  0.00  0.00    -0.131 S 
ATOM      9  C   UNL     1      13.318  -4.750  -2.684  0.00  0.00    +0.169 C 
ATOM     10  CA  UNL     1      14.466  -4.020  -3.450  0.00  0.00    +0.191 C 
ATOM     11  C   UNL     1      14.073  -4.976  -4.606  0.00  0.00    +0.244 C 
ATOM     12  O   UNL     1      14.341  -5.111  -5.777  0.00  0.00    -0.273 OA
ATOM     13  N   UNL     1      13.315  -5.717  -3.776  0.00  0.00    -0.249 N 
ATOM     14  CA  UNL     1      12.675  -6.934  -3.751  0.00  0.00    +0.122 C 
BRANCH  14  15
ATOM     15  C   UNL     1      12.534  -7.754  -5.028  0.00  0.00    +0.351 C 
ATOM     16  OXT UNL     1      12.045  -8.872  -5.078  0.00  0.00    -0.244 OA
BRANCH  15  17
ATOM     17  O   UNL     1      12.929  -7.179  -6.179  0.00  0.00    -0.476 OA
ATOM     18  H   UNL     1      13.454  -6.353  -6.141  0.00  0.00    +0.295 HD
ENDBRANCH  15  17
ENDBRANCH  14  15
ENDBRANCH   1  10
BRANCH   3  19
ATOM     19  C   UNL     1      14.095  -0.231  -3.023  0.00  0.00    +0.096 C 
BRANCH  19  20
ATOM     20  C   UNL     1      13.938   0.594  -1.749  0.00  0.00    +0.011 C 
BRANCH  20  21
ATOM     21  C   UNL     1      13.816   2.101  -1.989  0.00  0.00    +0.030 C 
BRANCH  21  22
ATOM     22  CA  UNL     1      13.672   2.899  -0.682  0.00  0.00    +0.161 C 
BRANCH  22  23
ATOM     23  N   UNL     1      14.822   2.652   0.232  0.00  0.00    -0.318 NA
ATOM     24  H1  UNL     1      15.682   2.903  -0.262  0.00  0.00    +0.119 HD
ATOM     25  H2  UNL     1      14.765   3.321   1.006  0.00  0.00    +0.119 HD
ENDBRANCH  22  23
BRANCH  22  26
ATOM     26  C   UNL     1      12.374   2.509   0.045  0.00  0.00    +0.322 C 
ATOM     27  OXT UNL     1      11.263   2.918  -0.244  0.00  0.00    -0.249 OA
BRANCH  26  28
ATOM     28  O   UNL     1      12.608   1.603   1.030  0.00  0.00    -0.480 OA
ATOM     29  H   UNL     1      13.581   1.426   1.032  0.00  0.00    +0.295 HD
ENDBRANCH  26  28
ENDBRANCH  22  26
ENDBRANCH  21  22
ENDBRANCH  20  21
ENDBRANCH  19  20
ENDBRANCH   3  19
TORSDOF 10
