REMARK  Name = 
REMARK  3 active torsions:
REMARK  status: ('A' for Active; 'I' for Inactive)
REMARK    1  A    between atoms: C_1  and  C_2
REMARK    2  A    between atoms: CA_7  and  C_9
REMARK    3  A    between atoms: C_9  and  O_10
REMARK                            x       y       z     vdW  Elec       q    Type
REMARK                         _______ _______ _______ _____ _____    ______ ____
ROOT
ATOM      1  C   UNL     1       1.012  -0.086  -0.031  0.00  0.00    +0.014 C 
ATOM      2  C   UNL     1       2.534  -0.043   0.002  0.00  0.00    +0.041 C 
ATOM      3  CA  UNL     1       3.103   1.144  -0.810  0.00  0.00    +0.186 C 
ATOM      4  N   UNL     1       4.228   0.541  -1.608  0.00  0.00    -0.337 N 
ATOM      5  H   UNL     1       5.155   0.760  -1.229  0.00  0.00    +0.146 HD
ATOM      6  C   UNL     1       4.087  -0.835  -1.556  0.00  0.00    +0.064 C 
ATOM      7  C   UNL     1       3.150  -1.233  -0.693  0.00  0.00    -0.007 C 
ENDROOT
BRANCH   3   8
ATOM      8  C   UNL     1       3.592   2.314   0.036  0.00  0.00    +0.326 C 
ATOM      9  OXT UNL     1       3.167   2.625   1.137  0.00  0.00    -0.249 OA
BRANCH   8  10
ATOM     10  O   UNL     1       4.549   3.034  -0.613  0.00  0.00    -0.479 OA
ATOM     11  H   UNL     1       4.684   2.676  -1.518  0.00  0.00    +0.295 HD
ENDBRANCH   8  10
ENDBRANCH   3   8
TORSDOF 2
