REMARK  Name = 
REMARK  21 active torsions:
REMARK  status: ('A' for Active; 'I' for Inactive)
REMARK    1  A    between atoms: C_1  and  C_2
REMARK    2  A    between atoms: C_2  and  C_3
REMARK    3  A    between atoms: C_3  and  C_4
REMARK    4  A    between atoms: C_4  and  C_5
REMARK    5  A    between atoms: C_5  and  C_6
REMARK    6  A    between atoms: C_6  and  C_7
REMARK    7  A    between atoms: C_7  and  C_8
REMARK    8  A    between atoms: C_8  and  O_10
REMARK    9  A    between atoms: O_10  and  C_11
REMARK   10  A    between atoms: C_11  and  C_12
REMARK   11  A    between atoms: C_15  and  C_16
REMARK   12  A    between atoms: C_15  and  O_18
REMARK   13  A    between atoms: C_16  and  O_17
REMARK   14  A    between atoms: O_18  and  C_19
REMARK   15  A    between atoms: C_22  and  C_24
REMARK   16  A    between atoms: C_24  and  O_25
REMARK   17  A    between atoms: C_26  and  O_28
REMARK   18  A    between atoms: C_29  and  O_31
REMARK   19  A    between atoms: C_32  and  O_34
REMARK   20  A    between atoms: C_35  and  O_37
REMARK   21  A    between atoms: C_38  and  O_40
REMARK                            x       y       z     vdW  Elec       q    Type
REMARK                         _______ _______ _______ _____ _____    ______ ____
ROOT
ATOM      1  C   UNL     1      11.394   6.789  -2.124  0.00  0.00    +0.190 C 
ATOM      2  C   UNL     1      12.770   6.747  -1.465  0.00  0.00    +0.180 C 
ATOM      3  C   UNL     1      13.141   8.211  -1.206  0.00  0.00    +0.207 C 
ATOM      4  C   UNL     1      12.019   9.045  -1.873  0.00  0.00    +0.225 C 
ATOM      5  O   UNL     1      10.916   8.134  -1.982  0.00  0.00    -0.335 OA
ENDROOT
BRANCH   2   6
ATOM      6  O   UNL     1      12.679   6.055  -0.205  0.00  0.00    -0.386 OA
ATOM      7  H   UNL     1      12.000   6.487   0.346  0.00  0.00    +0.210 HD
ENDBRANCH   2   6
BRANCH   3   8
ATOM      8  O   UNL     1      14.455   8.522  -1.671  0.00  0.00    -0.384 OA
ATOM      9  H   UNL     1      14.724   9.330  -1.188  0.00  0.00    +0.210 HD
ENDBRANCH   3   8
BRANCH   1  10
ATOM     10  C   UNL     1      11.396   6.417  -3.608  0.00  0.00    +0.266 C 
BRANCH  10  11
ATOM     11  O   UNL     1      11.623   5.014  -3.790  0.00  0.00    -0.462 OA
BRANCH  11  12
ATOM     12  C   UNL     1      10.779   4.395  -4.660  0.00  0.00    +0.307 C 
ATOM     13  O   UNL     1       9.802   4.908  -5.187  0.00  0.00    -0.251 OA
BRANCH  12  14
ATOM     14  C   UNL     1      11.267   3.008  -4.976  0.00  0.00    +0.120 C 
BRANCH  14  15
ATOM     15  C   UNL     1      11.520   2.193  -3.716  0.00  0.00    +0.011 C 
BRANCH  15  16
ATOM     16  C   UNL     1      11.917   0.764  -4.067  0.00  0.00    +0.001 C 
BRANCH  16  17
ATOM     17  C   UNL     1      12.179  -0.050  -2.804  0.00  0.00    +0.000 C 
BRANCH  17  18
ATOM     18  C   UNL     1      12.575  -1.482  -3.151  0.00  0.00    -0.000 C 
BRANCH  18  20
ATOM     19  C   UNL     1      13.230  -3.727  -2.238  0.00  0.00    +0.004 C 
ATOM     20  C   UNL     1      12.836  -2.301  -1.890  0.00  0.00    -0.003 C 
ENDBRANCH  18  20
ENDBRANCH  17  18
ENDBRANCH  16  17
ENDBRANCH  15  16
ENDBRANCH  14  15
ENDBRANCH  12  14
ENDBRANCH  11  12
ENDBRANCH  10  11
ENDBRANCH   1  10
BRANCH   4  21
ATOM     21  C   UNL     1      12.423   9.598  -3.271  0.00  0.00    +0.223 C 
BRANCH  21  22
ATOM     22  O   UNL     1      13.501  10.528  -3.217  0.00  0.00    -0.390 OA
ATOM     23  H   UNL     1      14.315   9.988  -3.173  0.00  0.00    +0.210 HD
ENDBRANCH  21  22
ENDBRANCH   4  21
BRANCH   4  24
ATOM     24  O   UNL     1      11.700  10.108  -0.935  0.00  0.00    -0.313 OA
BRANCH  24  25
ATOM     25  C   UNL     1      10.560  10.904  -1.294  0.00  0.00    +0.285 C 
ATOM     26  C   UNL     1      10.467  12.222  -0.457  0.00  0.00    +0.201 C 
ATOM     27  C   UNL     1       9.597  12.137   0.818  0.00  0.00    +0.179 C 
ATOM     28  C   UNL     1       8.407  11.185   0.651  0.00  0.00    +0.177 C 
ATOM     29  C   UNL     1       8.803   9.848   0.027  0.00  0.00    +0.178 C 
ATOM     30  O   UNL     1       9.366  10.122  -1.262  0.00  0.00    -0.340 OA
BRANCH  28  31
ATOM     31  O   UNL     1       7.453  11.829  -0.232  0.00  0.00    -0.386 OA
ATOM     32  H   UNL     1       7.425  11.315  -1.062  0.00  0.00    +0.210 HD
ENDBRANCH  28  31
BRANCH  27  33
ATOM     33  O   UNL     1      10.372  11.856   1.984  0.00  0.00    -0.386 OA
ATOM     34  H   UNL     1      10.715  10.940   1.935  0.00  0.00    +0.210 HD
ENDBRANCH  27  33
BRANCH  26  35
ATOM     35  O   UNL     1       9.930  13.259  -1.313  0.00  0.00    -0.384 OA
ATOM     36  H   UNL     1       8.986  13.382  -1.097  0.00  0.00    +0.210 HD
ENDBRANCH  26  35
BRANCH  29  37
ATOM     37  C   UNL     1       9.608   8.898   0.936  0.00  0.00    +0.190 C 
BRANCH  37  38
ATOM     38  O   UNL     1      10.853   9.419   1.386  0.00  0.00    -0.392 OA
ATOM     39  H   UNL     1      11.413   9.523   0.588  0.00  0.00    +0.210 HD
ENDBRANCH  37  38
ENDBRANCH  29  37
ENDBRANCH  24  25
ENDBRANCH   4  24
TORSDOF 20
