REMARK  Name = 
REMARK  2 active torsions:
REMARK  status: ('A' for Active; 'I' for Inactive)
REMARK    1  A    between atoms: N_1  and  C_2
REMARK    2  A    between atoms: C_12  and  O_13
REMARK                            x       y       z     vdW  Elec       q    Type
REMARK                         _______ _______ _______ _____ _____    ______ ____
ROOT
ATOM      1  C   UNL     1       2.405  -0.027   0.096  0.00  0.00    +0.025 A 
ATOM      2  C   UNL     1       3.143   1.154   0.076  0.00  0.00    +0.025 A 
ATOM      3  C   UNL     1       4.539   1.127   0.198  0.00  0.00    +0.030 A 
ATOM      4  C   UNL     1       5.242  -0.066   0.295  0.00  0.00    +0.080 A 
ATOM      5  N   UNL     1       6.578  -0.051   0.410  0.00  0.00    -0.214 NA
ATOM      6  C   UNL     1       7.212  -1.225   0.484  0.00  0.00    +0.216 A 
ATOM      7  N   UNL     1       6.627  -2.421   0.415  0.00  0.00    -0.179 NA
ATOM      8  C   UNL     1       5.295  -2.392   0.306  0.00  0.00    +0.225 A 
ATOM      9  N   UNL     1       8.586  -1.194   0.595  0.00  0.00    -0.327 N 
ATOM     10  H   UNL     1       8.987  -2.036   0.209  0.00  0.00    +0.145 HD
ATOM     11  H   UNL     1       8.935  -0.312   0.249  0.00  0.00    +0.145 HD
ATOM     12  C   UNL     1       4.511  -1.250   0.246  0.00  0.00    +0.064 A 
ATOM     13  C   UNL     1       3.101  -1.233   0.131  0.00  0.00    +0.038 A 
ENDROOT
BRANCH   1  14
ATOM     14  N   UNL     1       1.031  -0.008  -0.153  0.00  0.00    -0.358 N 
ATOM     15  H   UNL     1       0.568   0.850   0.129  0.00  0.00    +0.142 HD
ATOM     16  H   UNL     1       0.539  -0.834   0.177  0.00  0.00    +0.142 HD
ENDBRANCH   1  14
BRANCH   8  17
ATOM     17  O   UNL     1       4.739  -3.633   0.247  0.00  0.00    -0.492 OA
ATOM     18  H   UNL     1       5.539  -4.185   0.306  0.00  0.00    +0.294 HD
ENDBRANCH   8  17
TORSDOF 2
