REMARK  Name = 
REMARK  5 active torsions:
REMARK  status: ('A' for Active; 'I' for Inactive)
REMARK    1  A    between atoms: C_1  and  C_2
REMARK    2  A    between atoms: C_5  and  O_7
REMARK    3  A    between atoms: C_8  and  O_10
REMARK    4  A    between atoms: C_11  and  O_13
REMARK    5  A    between atoms: C_14  and  O_16
REMARK                            x       y       z     vdW  Elec       q    Type
REMARK                         _______ _______ _______ _____ _____    ______ ____
ROOT
ATOM      1  C   UNL     1       1.024  -0.200   0.319  0.00  0.00    +0.041 C 
ATOM      2  C   UNL     1       2.521  -0.185   0.000  0.00  0.00    +0.149 C 
ATOM      3  C   UNL     1       2.974   0.911  -0.987  0.00  0.00    +0.174 C 
ATOM      4  C   UNL     1       2.589   0.567  -2.431  0.00  0.00    +0.179 C 
ATOM      5  C   UNL     1       3.042  -0.842  -2.791  0.00  0.00    +0.201 C 
ATOM      6  C   UNL     1       2.569  -1.849  -1.723  0.00  0.00    +0.279 C 
ATOM      7  O   UNL     1       2.973  -1.484  -0.412  0.00  0.00    -0.343 OA
ENDROOT
BRANCH   3   8
ATOM      8  O   UNL     1       2.438   2.188  -0.629  0.00  0.00    -0.387 OA
ATOM      9  H   UNL     1       1.584   2.259  -1.101  0.00  0.00    +0.210 HD
ENDBRANCH   3   8
BRANCH   4  10
ATOM     10  O   UNL     1       1.164   0.714  -2.579  0.00  0.00    -0.386 OA
ATOM     11  H   UNL     1       0.916   0.398  -3.467  0.00  0.00    +0.210 HD
ENDBRANCH   4  10
BRANCH   5  12
ATOM     12  O   UNL     1       4.473  -0.867  -2.901  0.00  0.00    -0.384 OA
ATOM     13  H   UNL     1       4.720  -1.797  -2.711  0.00  0.00    +0.210 HD
ENDBRANCH   5  12
BRANCH   6  14
ATOM     14  O   UNL     1       3.193  -3.094  -2.015  0.00  0.00    -0.365 OA
ATOM     15  H   UNL     1       2.900  -3.681  -1.297  0.00  0.00    +0.213 HD
ENDBRANCH   6  14
TORSDOF 4
