REMARK  Name = 
REMARK  3 active torsions:
REMARK  status: ('A' for Active; 'I' for Inactive)
REMARK    1  A    between atoms: C_1  and  C_2
REMARK    2  A    between atoms: C_5  and  O_7
REMARK    3  A    between atoms: C_10  and  O_12
REMARK                            x       y       z     vdW  Elec       q    Type
REMARK                         _______ _______ _______ _____ _____    ______ ____
ROOT
ATOM      1  C   UNL     1       2.970   0.211   1.347  0.00  0.00    +0.040 C 
ATOM      2  C   UNL     1       2.474  -0.068  -0.068  0.00  0.00    +0.147 C 
ATOM      3  C   UNL     1       2.956   1.012  -1.056  0.00  0.00    +0.143 C 
ATOM      4  C   UNL     1       2.567   0.638  -2.486  0.00  0.00    +0.039 C 
ATOM      5  C   UNL     1       3.002  -0.785  -2.803  0.00  0.00    +0.064 C 
ATOM      6  C   UNL     1       2.496  -1.752  -1.738  0.00  0.00    +0.247 C 
ATOM      7  O   UNL     1       2.946  -1.366  -0.448  0.00  0.00    -0.346 OA
ENDROOT
BRANCH   3   8
ATOM      8  O   UNL     1       2.417   2.292  -0.739  0.00  0.00    -0.389 OA
ATOM      9  H   UNL     1       1.450   2.254  -0.839  0.00  0.00    +0.210 HD
ENDBRANCH   3   8
BRANCH   6  10
ATOM     10  O   UNL     1       3.018  -3.035  -2.017  0.00  0.00    -0.367 OA
ATOM     11  H   UNL     1       2.719  -3.587  -1.275  0.00  0.00    +0.212 HD
ENDBRANCH   6  10
TORSDOF 2
