REMARK  Name = 
REMARK  5 active torsions:
REMARK  status: ('A' for Active; 'I' for Inactive)
REMARK    1  A    between atoms: N_1  and  CA_2
REMARK    2  A    between atoms: CA_2  and  CB_4
REMARK    3  A    between atoms: CA_2  and  C_8
REMARK    4  A    between atoms: CB_4  and  CG_5
REMARK    5  A    between atoms: C_8  and  O_9
REMARK                            x       y       z     vdW  Elec       q    Type
REMARK                         _______ _______ _______ _____ _____    ______ ____
ROOT
ATOM      1  CA  ASN A   1       2.601  -0.032  -0.017  0.00  0.00    +0.169 C 
ENDROOT
BRANCH   1   2
ATOM      2  N   ASN A   1       3.172   1.347  -0.035  0.00  0.00    -0.318 NA
ATOM      3  H1  ASN A   1       2.836   1.840   0.801  0.00  0.00    +0.119 HD
ATOM      4  H2  ASN A   1       4.184   1.280   0.125  0.00  0.00    +0.119 HD
ENDBRANCH   1   2
BRANCH   1   5
ATOM      5  C   ASN A   1       3.028  -0.731  -1.320  0.00  0.00    +0.322 C 
ATOM      6  OXT ASN A   1       3.070  -1.937  -1.499  0.00  0.00    -0.249 OA
BRANCH   5   7
ATOM      7  O   ASN A   1       3.328   0.180  -2.283  0.00  0.00    -0.480 OA
ATOM      8  H   ASN A   1       3.236   1.070  -1.860  0.00  0.00    +0.295 HD
ENDBRANCH   5   7
ENDBRANCH   1   5
BRANCH   1   9
ATOM      9  CB  ASN A   1       3.030  -0.867   1.186  0.00  0.00    +0.125 C 
BRANCH   9  10
ATOM     10  CG  ASN A   1       2.570  -0.280   2.495  0.00  0.00    +0.213 C 
ATOM     11  OD1 ASN A   1       3.345   0.169   3.330  0.00  0.00    -0.276 OA
ATOM     12  ND2 ASN A   1       1.224  -0.239   2.700  0.00  0.00    -0.329 N 
ATOM     13 HD21 ASN A   1       0.919   0.080   3.610  0.00  0.00    +0.145 HD
ATOM     14 HD22 ASN A   1       0.572  -0.789   2.160  0.00  0.00    +0.145 HD
ENDBRANCH   9  10
ENDBRANCH   1   9
TORSDOF 5
