REMARK  Name = 
REMARK  9 active torsions:
REMARK  status: ('A' for Active; 'I' for Inactive)
REMARK    1  A    between atoms: C_1  and  N_2
REMARK    2  A    between atoms: N_4  and  C_5
REMARK    3  A    between atoms: C_8  and  C_10
REMARK    4  A    between atoms: C_10  and  O_11
REMARK    5  A    between atoms: O_11  and  P_12
REMARK    6  A    between atoms: P_12  and  O_13
REMARK    7  A    between atoms: P_12  and  O_14
REMARK    8  A    between atoms: C_16  and  O_18
REMARK    9  A    between atoms: C_19  and  O_21
REMARK                            x       y       z     vdW  Elec       q    Type
REMARK                         _______ _______ _______ _____ _____    ______ ____
ROOT
ATOM      1  C   UNL     1       5.660   1.745  -0.122  0.00  0.00    +0.257 C 
ATOM      2  C   UNL     1       6.569   1.118   0.949  0.00  0.00    +0.195 C 
ATOM      3  C   UNL     1       7.309   2.306   1.570  0.00  0.00    +0.178 C 
ATOM      4  C   UNL     1       6.814   3.522   0.791  0.00  0.00    +0.178 C 
ATOM      5  O   UNL     1       5.574   3.144   0.185  0.00  0.00    -0.346 OA
ENDROOT
BRANCH   1  19
ATOM      6  C   UNL     1       8.725   1.509  -3.995  0.00  0.00    +0.441 C 
ATOM      7  N   UNL     1       7.509   1.553  -3.198  0.00  0.00    -0.178 N 
ATOM      8  C   UNL     1       6.215   1.559  -3.696  0.00  0.00    +0.316 A 
ATOM      9  C   UNL     1       5.708   1.537  -5.033  0.00  0.00    +0.327 A 
ATOM     10  N   UNL     1       4.323   1.552  -5.017  0.00  0.00    -0.290 N 
ATOM     11  H   UNL     1       3.886   1.505  -5.928  0.00  0.00    +0.172 HD
ATOM     12  C   UNL     1       3.534   1.566  -3.885  0.00  0.00    +0.195 A 
ATOM     13  N   UNL     1       3.999   1.592  -2.666  0.00  0.00    -0.192 NA
ATOM     14  N   UNL     1       2.200   1.548  -4.105  0.00  0.00    -0.329 N 
ATOM     15  H   UNL     1       1.608   1.730  -3.300  0.00  0.00    +0.145 HD
ATOM     16  H   UNL     1       1.808   1.862  -4.986  0.00  0.00    +0.145 HD
ATOM     17  O   UNL     1       6.331   1.510  -6.089  0.00  0.00    -0.260 OA
ATOM     18  C   UNL     1       5.354   1.592  -2.626  0.00  0.00    +0.221 A 
ATOM     19  N   UNL     1       6.158   1.637  -1.494  0.00  0.00    -0.244 N 
ATOM     20  C   UNL     1       7.448   1.594  -1.860  0.00  0.00    +0.412 A 
ENDBRANCH   1  19
BRANCH   2  21
ATOM     21  O   UNL     1       5.822   0.393   1.934  0.00  0.00    -0.385 OA
ATOM     22  H   UNL     1       5.279   1.003   2.465  0.00  0.00    +0.210 HD
ENDBRANCH   2  21
BRANCH   3  23
ATOM     23  O   UNL     1       8.715   2.155   1.366  0.00  0.00    -0.386 OA
ATOM     24  H   UNL     1       9.156   2.826   1.929  0.00  0.00    +0.210 HD
ENDBRANCH   3  23
BRANCH   4  25
ATOM     25  C   UNL     1       6.647   4.781   1.641  0.00  0.00    +0.206 C 
BRANCH  25  26
ATOM     26  O   UNL     1       7.905   5.226   2.150  0.00  0.00    -0.284 OA
BRANCH  26  27
ATOM     27  P   UNL     1       7.733   6.652   3.113  0.00  0.00    +0.472 P 
ATOM     28  O   UNL     1       7.578   7.929   3.976  0.00  0.00    -0.228 OA
BRANCH  27  29
ATOM     29  O   UNL     1       9.365   6.706   3.131  0.00  0.00    -0.303 OA
ATOM     30  H   UNL     1       9.623   7.632   3.322  0.00  0.00    +0.222 HD
ENDBRANCH  27  29
BRANCH  27  31
ATOM     31  O   UNL     1       7.608   5.611   4.368  0.00  0.00    -0.303 OA
ATOM     32  H   UNL     1       8.511   5.385   4.654  0.00  0.00    +0.222 HD
ENDBRANCH  27  31
ENDBRANCH  26  27
ENDBRANCH  25  26
ENDBRANCH   4  25
TORSDOF 8
