REMARK  Name = 
REMARK  5 active torsions:
REMARK  status: ('A' for Active; 'I' for Inactive)
REMARK    1  A    between atoms: N_1  and  C_2
REMARK    2  A    between atoms: C_2  and  C_4
REMARK    3  A    between atoms: C_2  and  C_7
REMARK    4  A    between atoms: C_4  and  S_5
REMARK    5  A    between atoms: C_7  and  O_8
REMARK                            x       y       z     vdW  Elec       q    Type
REMARK                         _______ _______ _______ _____ _____    ______ ____
ROOT
ATOM      1  C   UNK     1       2.428   0.036   0.167  0.00  0.00    +0.174 C 
ENDROOT
BRANCH   1   2
ATOM      2  N   UNK     1       0.938  -0.093   0.322  0.00  0.00    -0.318 NA
ATOM      3  H   UNK     1       0.659   0.400   1.183  0.00  0.00    +0.119 HD
ATOM      4  H   UNK     1       0.514   0.524  -0.389  0.00  0.00    +0.119 HD
ENDBRANCH   1   2
BRANCH   1   5
ATOM      5  C   UNK     1       3.073  -1.188   0.832  0.00  0.00    +0.323 C 
ATOM      6  O   UNK     1       4.270  -1.327   1.023  0.00  0.00    -0.249 OA
BRANCH   5   7
ATOM      7  O   UNK     1       2.140  -2.106   1.191  0.00  0.00    -0.480 OA
ATOM      8  H   UNK     1       1.266  -1.732   0.907  0.00  0.00    +0.295 HD
ENDBRANCH   5   7
ENDBRANCH   1   5
BRANCH   1   9
ATOM      9  C   UNK     1       3.067   1.280   0.795  0.00  0.00    +0.147 C 
BRANCH   9  10
ATOM     10  S   UNK     1       2.464   2.773   0.071  0.00  0.00    +0.113 S 
ATOM     11  O   UNK     1       0.976   2.874   0.109  0.00  0.00    -0.244 OA
ENDBRANCH   9  10
ENDBRANCH   1   9
TORSDOF 5
