REMARK  Name = 
REMARK  4 active torsions:
REMARK  status: ('A' for Active; 'I' for Inactive)
REMARK    1  A    between atoms: C_1  and  C_2
REMARK    2  A    between atoms: C_2  and  C_3
REMARK    3  A    between atoms: C_2  and  C_4
REMARK    4  A    between atoms: C_2  and  O_5
REMARK                            x       y       z     vdW  Elec       q    Type
REMARK                         _______ _______ _______ _____ _____    ______ ____
ROOT
ATOM      1  C   UNL     1       1.067   0.057  -0.011  0.00  0.00    +0.041 C 
ATOM      2  C   UNL     1       2.595   0.055   0.021  0.00  0.00    +0.058 C 
ATOM      3  C   UNL     1       3.122  -1.315   0.444  0.00  0.00    +0.041 C 
ATOM      4  C   UNL     1       3.122   1.145   0.953  0.00  0.00    +0.041 C 
ENDROOT
BRANCH   2   5
ATOM      5  O   UNL     1       3.077   0.313  -1.299  0.00  0.00    -0.389 OA
ATOM      6  H   UNL     1       2.745   1.184  -1.574  0.00  0.00    +0.210 HD
ENDBRANCH   2   5
TORSDOF 1
