REMARK  Name = 
REMARK  5 active torsions:
REMARK  status: ('A' for Active; 'I' for Inactive)
REMARK    1  A    between atoms: O_1  and  C_2
REMARK    2  A    between atoms: C_2  and  C_3
REMARK    3  A    between atoms: N_6  and  C_7
REMARK    4  A    between atoms: C_7  and  C_8
REMARK    5  A    between atoms: C_21  and  O_23
REMARK                            x       y       z     vdW  Elec       q    Type
REMARK                         _______ _______ _______ _____ _____    ______ ____
ROOT
ATOM      1  C   UNL     1       5.297   4.906   1.465  0.00  0.00    -0.016 C 
ATOM      2  C   UNL     1       5.491   6.233   2.204  0.00  0.00    +0.164 C 
ATOM      3  N   UNL     1       4.727   7.257   1.479  0.00  0.00    -0.266 NA
ATOM      4  C   UNL     1       5.331   8.232   0.910  0.00  0.00    +0.182 C 
ATOM      5  N   UNL     1       6.660   8.485   0.968  0.00  0.00    -0.275 N 
ATOM      6  H   UNL     1       7.045   9.329   0.556  0.00  0.00    +0.156 HD
ATOM      7  C   UNL     1       7.522   7.759   1.734  0.00  0.00    +0.241 C 
ATOM      8  O   UNL     1       8.653   8.182   1.979  0.00  0.00    -0.273 OA
ATOM      9  C   UNL     1       7.029   6.397   2.190  0.00  0.00    +0.186 C 
ATOM     10  N   UNL     1       7.507   5.372   1.219  0.00  0.00    -0.337 N 
ATOM     11  H   UNL     1       8.095   4.702   1.723  0.00  0.00    +0.146 HD
ATOM     12  C   UNL     1       6.395   4.669   0.713  0.00  0.00    +0.070 C 
ENDROOT
BRANCH   1  13
ATOM     13  C   UNL     1       4.676   3.724   2.190  0.00  0.00    +0.118 C 
BRANCH  13  17
ATOM     14  C   UNL     1       2.387   2.150   3.551  0.00  0.00    +0.058 C 
ATOM     15  C   UNL     1       1.597   3.446   3.421  0.00  0.00    +0.135 C 
ATOM     16  C   UNL     1       2.286   4.219   2.280  0.00  0.00    +0.116 C 
ATOM     17  N   UNL     1       3.339   3.350   1.714  0.00  0.00    -0.295 NA
ATOM     18  C   UNL     1       2.958   1.985   2.149  0.00  0.00    +0.093 C 
BRANCH  15  19
ATOM     19  O   UNL     1       1.647   4.150   4.659  0.00  0.00    -0.390 OA
ATOM     20  H   UNL     1       1.032   4.900   4.579  0.00  0.00    +0.210 HD
ENDBRANCH  15  19
BRANCH  14  21
ATOM     21  C   UNL     1       1.547   0.972   4.038  0.00  0.00    +0.163 C 
BRANCH  21  22
ATOM     22  O   UNL     1       0.450   0.713   3.171  0.00  0.00    -0.395 OA
ATOM     23  H   UNL     1      -0.065  -0.009   3.572  0.00  0.00    +0.209 HD
ENDBRANCH  21  22
ENDBRANCH  14  21
ENDBRANCH  13  17
ENDBRANCH   1  13
TORSDOF 5
