REMARK  Name = 
REMARK  4 active torsions:
REMARK  status: ('A' for Active; 'I' for Inactive)
REMARK    1  A    between atoms: N_1  and  C_2
REMARK    2  A    between atoms: C_2  and  C_4
REMARK    3  A    between atoms: C_2  and  C_6
REMARK    4  A    between atoms: C_4  and  S_5
REMARK                            x       y       z     vdW  Elec       q    Type
REMARK                         _______ _______ _______ _____ _____    ______ ____
ROOT
ATOM      1  C   UNL     1       2.434  -0.128  -0.034  0.00  0.00    +0.147 C 
ENDROOT
BRANCH   1   2
ATOM      2  C   UNL     1       2.957  -1.316  -0.862  0.00  0.00    +0.228 C 
ATOM      3  O   UNL     1       3.613  -2.249  -0.411  0.00  0.00    -0.274 OA
ATOM      4  N   UNL     1       2.608  -1.266  -2.184  0.00  0.00    -0.328 N 
ATOM      5  H   UNL     1       3.021  -1.951  -2.801  0.00  0.00    +0.145 HD
ATOM      6  H   UNL     1       2.351  -0.361  -2.565  0.00  0.00    +0.145 HD
ENDBRANCH   1   2
BRANCH   1   7
ATOM      7  N   UNL     1       2.838   1.133  -0.715  0.00  0.00    -0.319 NA
ATOM      8  H   UNL     1       2.484   1.914  -0.161  0.00  0.00    +0.119 HD
ATOM      9  H   UNL     1       3.857   1.208  -0.679  0.00  0.00    +0.119 HD
ENDBRANCH   1   7
BRANCH   1  10
ATOM     10  C   UNL     1       2.931  -0.241   1.415  0.00  0.00    +0.093 C 
BRANCH  10  11
ATOM     11  S   UNL     1       2.326   1.122   2.470  0.00  0.00    -0.176 S 
ATOM     12  H   UNL     1       3.155   2.065   2.001  0.00  0.00    +0.102 HD
ENDBRANCH  10  11
ENDBRANCH   1  10
TORSDOF 4
