REMARK  Name = 
REMARK  13 active torsions:
REMARK  status: ('A' for Active; 'I' for Inactive)
REMARK    1  A    between atoms: N_1  and  CA_2
REMARK    2  A    between atoms: CA_2  and  C_4
REMARK    3  A    between atoms: CA_2  and  C_23
REMARK    4  A    between atoms: C_4  and  C_5
REMARK    5  A    between atoms: C_5  and  C_6
REMARK    6  A    between atoms: C_6  and  O_8
REMARK    7  A    between atoms: C_6  and  O_9
REMARK    8  A    between atoms: O_9  and  C_10
REMARK    9  A    between atoms: C_13  and  C_15
REMARK   10  A    between atoms: C_15  and  O_16
REMARK   11  A    between atoms: C_17  and  O_19
REMARK   12  A    between atoms: C_20  and  O_21
REMARK   13  A    between atoms: C_23  and  O_24
REMARK                            x       y       z     vdW  Elec       q    Type
REMARK                         _______ _______ _______ _____ _____    ______ ____
ROOT
ATOM      1  O   UNL     1       2.739  -2.666  -4.102  0.00  0.00    -0.317 OA
ENDROOT
BRANCH   1   2
ATOM      2  C   UNL     1       3.291  -2.829  -5.407  0.00  0.00    +0.321 C 
ATOM      3  C   UNL     1       3.036  -1.640  -6.358  0.00  0.00    +0.288 C 
ATOM      4  F   UNL     1       1.949  -0.923  -5.950  0.00  0.00    -0.203 F 
ATOM      5  C   UNL     1       2.709  -2.263  -7.715  0.00  0.00    +0.215 C 
ATOM      6  C   UNL     1       2.824  -3.768  -7.480  0.00  0.00    +0.181 C 
ATOM      7  O   UNL     1       2.734  -3.987  -6.054  0.00  0.00    -0.338 OA
BRANCH   3   8
ATOM      8  O   UNL     1       4.122  -0.722  -6.392  0.00  0.00    -0.355 OA
ATOM      9  H   UNL     1       4.880  -1.162  -6.812  0.00  0.00    +0.213 HD
ENDBRANCH   3   8
BRANCH   5  10
ATOM     10  O   UNL     1       1.371  -1.947  -8.136  0.00  0.00    -0.383 OA
ATOM     11  H   UNL     1       0.878  -1.650  -7.344  0.00  0.00    +0.210 HD
ENDBRANCH   5  10
BRANCH   6  12
ATOM     12  C   UNL     1       4.171  -4.303  -7.986  0.00  0.00    +0.190 C 
BRANCH  12  13
ATOM     13  O   UNL     1       4.283  -5.699  -7.739  0.00  0.00    -0.392 OA
ATOM     14  H   UNL     1       3.971  -5.854  -6.828  0.00  0.00    +0.210 HD
ENDBRANCH  12  13
ENDBRANCH   6  12
ENDBRANCH   1   2
BRANCH   1  15
ATOM     15  C   UNL     1       3.261  -1.534  -3.417  0.00  0.00    +0.250 C 
BRANCH  15  16
ATOM     16  O   UNL     1       4.663  -1.651  -3.256  0.00  0.00    -0.367 OA
ATOM     17  H   UNL     1       5.059  -0.873  -3.686  0.00  0.00    +0.212 HD
ENDBRANCH  15  16
BRANCH  15  18
ATOM     18  C   UNL     1       2.601  -1.422  -2.041  0.00  0.00    +0.063 C 
BRANCH  18  19
ATOM     19  C   UNL     1       3.095  -0.169  -1.308  0.00  0.00    +0.035 C 
BRANCH  19  20
ATOM     20  CA  UNL     1       2.463   0.060   0.065  0.00  0.00    +0.161 C 
BRANCH  20  21
ATOM     21  N   UNL     1       0.984   0.251  -0.020  0.00  0.00    -0.318 NA
ATOM     22  H1  UNL     1       0.760   0.678  -0.925  0.00  0.00    +0.119 HD
ATOM     23  H2  UNL     1       0.555  -0.678  -0.073  0.00  0.00    +0.119 HD
ENDBRANCH  20  21
BRANCH  20  24
ATOM     24  C   UNL     1       3.083   1.320   0.707  0.00  0.00    +0.322 C 
ATOM     25  OXT UNL     1       4.277   1.554   0.808  0.00  0.00    -0.249 OA
BRANCH  24  26
ATOM     26  O   UNL     1       2.115   2.172   1.143  0.00  0.00    -0.480 OA
ATOM     27  H   UNL     1       1.258   1.717   0.943  0.00  0.00    +0.295 HD
ENDBRANCH  24  26
ENDBRANCH  20  24
ENDBRANCH  19  20
ENDBRANCH  18  19
ENDBRANCH  15  18
ENDBRANCH   1  15
TORSDOF 13
