REMARK  Name = 
REMARK  5 active torsions:
REMARK  status: ('A' for Active; 'I' for Inactive)
REMARK    1  A    between atoms: C_1  and  C_2
REMARK    2  A    between atoms: C_5  and  O_7
REMARK    3  A    between atoms: C_8  and  O_10
REMARK    4  A    between atoms: C_11  and  O_13
REMARK    5  A    between atoms: C_14  and  O_16
REMARK                            x       y       z     vdW  Elec       q    Type
REMARK                         _______ _______ _______ _____ _____    ______ ____
ROOT
ATOM      1  C   UNL     1       3.099   0.139   1.357  0.00  0.00    +0.041 C 
ATOM      2  C   UNL     1       2.548  -0.104  -0.044  0.00  0.00    +0.149 C 
ATOM      3  C   UNL     1       2.927   1.026  -1.014  0.00  0.00    +0.174 C 
ATOM      4  C   UNL     1       2.496   0.681  -2.438  0.00  0.00    +0.179 C 
ATOM      5  C   UNL     1       2.930  -0.724  -2.839  0.00  0.00    +0.201 C 
ATOM      6  C   UNL     1       2.501  -1.723  -1.756  0.00  0.00    +0.279 C 
ATOM      7  O   UNL     1       3.049  -1.370  -0.497  0.00  0.00    -0.343 OA
ENDROOT
BRANCH   3   8
ATOM      8  O   UNL     1       2.269   2.239  -0.613  0.00  0.00    -0.387 OA
ATOM      9  H   UNL     1       2.236   2.801  -1.414  0.00  0.00    +0.210 HD
ENDBRANCH   3   8
BRANCH   4  10
ATOM     10  O   UNL     1       3.036   1.651  -3.351  0.00  0.00    -0.386 OA
ATOM     11  H   UNL     1       2.932   1.258  -4.241  0.00  0.00    +0.210 HD
ENDBRANCH   4  10
BRANCH   5  12
ATOM     12  O   UNL     1       2.325  -1.035  -4.106  0.00  0.00    -0.384 OA
ATOM     13  H   UNL     1       2.404  -2.007  -4.200  0.00  0.00    +0.210 HD
ENDBRANCH   5  12
BRANCH   6  14
ATOM     14  O   UNL     1       3.000  -3.003  -2.117  0.00  0.00    -0.365 OA
ATOM     15  H   UNL     1       2.835  -3.554  -1.331  0.00  0.00    +0.213 HD
ENDBRANCH   6  14
TORSDOF 4
