REMARK  Name = 
REMARK  13 active torsions:
REMARK  status: ('A' for Active; 'I' for Inactive)
REMARK    1  A    between atoms: C_1  and  N_2
REMARK    2  A    between atoms: N_2  and  C_3
REMARK    3  A    between atoms: N_2  and  C_4
REMARK    4  A    between atoms: N_2  and  C_5
REMARK    5  A    between atoms: C_5  and  C_7
REMARK    6  A    between atoms: C_5  and  C_21
REMARK    7  A    between atoms: C_7  and  C_8
REMARK    8  A    between atoms: C_8  and  C_9
REMARK    9  A    between atoms: C_12  and  C_13
REMARK   10  A    between atoms: C_13  and  CA_14
REMARK   11  A    between atoms: CA_14  and  N_16
REMARK   12  A    between atoms: CA_14  and  C_17
REMARK   13  A    between atoms: C_17  and  O_18
REMARK                            x       y       z     vdW  Elec       q    Type
REMARK                         _______ _______ _______ _____ _____    ______ ____
ROOT
ATOM      1  C   UNL     1      -0.199   4.404   0.205  0.00  0.00    +0.108 A 
ATOM      2  N   UNL     1       0.329   3.869   1.289  0.00  0.00    -0.237 NA
ATOM      3  C   UNL     1      -0.440   2.760   1.571  0.00  0.00    +0.061 A 
ATOM      4  C   UNL     1      -1.556   2.749   0.759  0.00  0.00    +0.107 A 
ATOM      5  N   UNL     1      -1.377   3.780  -0.120  0.00  0.00    -0.348 N 
ATOM      6  H   UNL     1      -1.976   3.998  -0.908  0.00  0.00    +0.166 HD
ENDROOT
BRANCH   1   7
ATOM      7  C   UNL     1       0.371   5.538  -0.570  0.00  0.00    +0.080 C 
BRANCH   7   8
ATOM      8  C   UNL     1      -0.412   6.842  -0.395  0.00  0.00    +0.072 C 
BRANCH   8   9
ATOM      9  C   UNL     1      -0.602   7.294   1.067  0.00  0.00    +0.153 C 
BRANCH   9  10
ATOM     10  C   UNL     1       0.762   7.442   1.787  0.00  0.00    +0.259 C 
ATOM     11  O   UNL     1       1.390   8.496   1.823  0.00  0.00    -0.270 OA
ATOM     12  N   UNL     1       1.249   6.340   2.435  0.00  0.00    -0.325 N 
ATOM     13  H   UNL     1       2.191   6.413   2.810  0.00  0.00    +0.145 HD
ATOM     14  H   UNL     1       0.963   5.385   2.196  0.00  0.00    +0.145 HD
ENDBRANCH   9  10
BRANCH   9  16
ATOM     15  C   UNL     1      -2.897   8.376   0.535  0.00  0.00    +0.192 C 
ATOM     16  N   UNL     1      -1.514   8.625   1.128  0.00  0.00    +0.246 N 
ATOM     17  C   UNL     1      -1.701   9.005   2.603  0.00  0.00    +0.192 C 
ATOM     18  C   UNL     1      -0.882   9.815   0.404  0.00  0.00    +0.192 C 
ENDBRANCH   9  16
ENDBRANCH   8   9
ENDBRANCH   7   8
ENDBRANCH   1   7
BRANCH   3  19
ATOM     19  C   UNL     1       0.006   1.729   2.557  0.00  0.00    +0.086 C 
BRANCH  19  20
ATOM     20  CA  UNL     1      -0.967   1.513   3.724  0.00  0.00    +0.166 C 
BRANCH  20  21
ATOM     21  N   UNL     1      -1.096   2.679   4.645  0.00  0.00    -0.318 NA
ATOM     22  H1  UNL     1      -0.535   3.444   4.260  0.00  0.00    +0.119 HD
ATOM     23  H2  UNL     1      -0.619   2.465   5.528  0.00  0.00    +0.119 HD
ENDBRANCH  20  21
BRANCH  20  24
ATOM     24  C   UNL     1      -0.552   0.280   4.541  0.00  0.00    +0.322 C 
ATOM     25  OXT UNL     1       0.435  -0.406   4.340  0.00  0.00    -0.249 OA
BRANCH  24  26
ATOM     26  O   UNL     1      -1.408   0.057   5.572  0.00  0.00    -0.480 OA
ATOM     27  H   UNL     1      -2.122   0.728   5.592  0.00  0.00    +0.295 HD
ENDBRANCH  24  26
ENDBRANCH  20  24
ENDBRANCH  19  20
ENDBRANCH   3  19
TORSDOF 10
