REMARK  Name = 
REMARK  24 active torsions:
REMARK  status: ('A' for Active; 'I' for Inactive)
REMARK    1  A    between atoms: C_1  and  N_2
REMARK    2  A    between atoms: N_2  and  C_3
REMARK    3  A    between atoms: N_2  and  C_4
REMARK    4  A    between atoms: C_9  and  C_10
REMARK    5  A    between atoms: N_20  and  C_21
REMARK    6  A    between atoms: C_21  and  C_22
REMARK    7  A    between atoms: C_22  and  O_24
REMARK    8  A    between atoms: C_22  and  C_25
REMARK    9  A    between atoms: C_25  and  O_27
REMARK   10  A    between atoms: C_25  and  C_28
REMARK   11  A    between atoms: C_28  and  O_30
REMARK   12  A    between atoms: C_28  and  C_31
REMARK   13  A    between atoms: C_31  and  O_32
REMARK   14  A    between atoms: O_32  and  P_33
REMARK   15  A    between atoms: P_33  and  O_34
REMARK   16  A    between atoms: P_33  and  O_36
REMARK   17  A    between atoms: O_36  and  P_37
REMARK   18  A    between atoms: P_37  and  O_38
REMARK   19  A    between atoms: P_37  and  O_40
REMARK   20  A    between atoms: O_40  and  C_41
REMARK   21  A    between atoms: C_41  and  C_42
REMARK   22  A    between atoms: C_45  and  N_53
REMARK   23  A    between atoms: C_47  and  O_49
REMARK   24  A    between atoms: C_50  and  O_52
REMARK                            x       y       z     vdW  Elec       q    Type
REMARK                         _______ _______ _______ _____ _____    ______ ____
ROOT
ATOM      1  O   UNL     1     -12.671 -14.236  -3.973  0.00  0.00    -0.284 OA
ENDROOT
BRANCH   1   2
ATOM      2  P   UNL     1     -12.459 -14.344  -2.348  0.00  0.00    +0.483 P 
ATOM      3  O   UNL     1     -12.140 -12.944  -1.818  0.00  0.00    -0.227 OA
BRANCH   2   4
ATOM      4  O   UNL     1     -14.137 -13.986  -2.123  0.00  0.00    -0.302 OA
ATOM      5  H   UNL     1     -14.179 -13.010  -2.152  0.00  0.00    +0.222 HD
ENDBRANCH   2   4
BRANCH   2   6
ATOM      6  O   UNL     1     -10.782 -14.703  -2.574  0.00  0.00    -0.186 OA
BRANCH   6   7
ATOM      7  P   UNL     1     -10.695 -15.974  -1.499  0.00  0.00    +0.483 P 
ATOM      8  O   UNL     1     -11.789 -15.940  -0.470  0.00  0.00    -0.227 OA
BRANCH   7   9
ATOM      9  O   UNL     1      -9.306 -15.773  -0.734  0.00  0.00    -0.302 OA
ATOM     10  H   UNL     1      -9.498 -15.661   0.218  0.00  0.00    +0.222 HD
ENDBRANCH   7   9
BRANCH   7  11
ATOM     11  O   UNL     1     -10.544 -17.502  -2.105  0.00  0.00    -0.284 OA
BRANCH  11  12
ATOM     12  C   UNL     1     -10.968 -18.468  -1.097  0.00  0.00    +0.206 C 
BRANCH  12  13
ATOM     13  C   UNL     1     -10.583 -19.966  -1.015  0.00  0.00    +0.178 C 
ATOM     14  C   UNL     1     -11.117 -20.934  -2.063  0.00  0.00    +0.178 C 
ATOM     15  C   UNL     1      -9.915 -21.279  -2.931  0.00  0.00    +0.195 C 
ATOM     16  C   UNL     1      -8.750 -20.524  -2.275  0.00  0.00    +0.253 C 
ATOM     17  O   UNL     1      -9.165 -20.155  -0.953  0.00  0.00    -0.346 OA
BRANCH  16  18
ATOM     18  N   UNL     1      -7.535 -21.310  -2.199  0.00  0.00    -0.286 N 
ATOM     19  C   UNL     1      -6.811 -21.705  -3.290  0.00  0.00    +0.167 A 
ATOM     20  N   UNL     1      -7.089 -21.470  -4.584  0.00  0.00    -0.216 NA
ATOM     21  C   UNL     1      -6.122 -21.988  -5.373  0.00  0.00    +0.225 A 
ATOM     22  N   UNL     1      -5.021 -22.682  -5.009  0.00  0.00    -0.219 NA
ATOM     23  C   UNL     1      -4.816 -22.922  -3.693  0.00  0.00    +0.147 A 
ATOM     24  N   UNL     1      -3.697 -23.653  -3.317  0.00  0.00    -0.341 N 
ATOM     25  H   UNL     1      -3.433 -23.511  -2.348  0.00  0.00    +0.144 HD
ATOM     26  H   UNL     1      -2.965 -23.624  -4.014  0.00  0.00    +0.144 HD
ATOM     27  C   UNL     1      -5.735 -22.403  -2.768  0.00  0.00    +0.147 A 
ATOM     28  N   UNL     1      -5.790 -22.432  -1.390  0.00  0.00    -0.231 NA
ATOM     29  C   UNL     1      -6.881 -21.759  -1.083  0.00  0.00    +0.203 A 
ENDBRANCH  16  18
BRANCH  15  30
ATOM     30  O   UNL     1     -10.137 -20.844  -4.273  0.00  0.00    -0.385 OA
ATOM     31  H   UNL     1      -9.347 -21.106  -4.789  0.00  0.00    +0.210 HD
ENDBRANCH  15  30
BRANCH  14  32
ATOM     32  O   UNL     1     -11.582 -22.138  -1.411  0.00  0.00    -0.386 OA
ATOM     33  H   UNL     1     -10.886 -22.484  -0.822  0.00  0.00    +0.210 HD
ENDBRANCH  14  32
ENDBRANCH  12  13
ENDBRANCH  11  12
ENDBRANCH   7  11
ENDBRANCH   6   7
ENDBRANCH   2   6
ENDBRANCH   1   2
BRANCH   1  34
ATOM     34  C   UNL     1     -12.606 -12.946  -4.592  0.00  0.00    +0.206 C 
BRANCH  34  35
ATOM     35  C   UNL     1     -12.844 -13.154  -6.087  0.00  0.00    +0.172 C 
BRANCH  35  36
ATOM     36  O   UNL     1     -14.144 -13.746  -6.264  0.00  0.00    -0.387 OA
ATOM     37  H   UNL     1     -14.147 -14.541  -5.699  0.00  0.00    +0.210 HD
ENDBRANCH  35  36
BRANCH  35  38
ATOM     38  C   UNL     1     -12.729 -11.858  -6.926  0.00  0.00    +0.175 C 
BRANCH  38  39
ATOM     39  O   UNL     1     -13.663 -10.873  -6.465  0.00  0.00    -0.387 OA
ATOM     40  H   UNL     1     -13.249  -9.996  -6.547  0.00  0.00    +0.210 HD
ENDBRANCH  38  39
BRANCH  38  41
ATOM     41  C   UNL     1     -12.969 -12.184  -8.418  0.00  0.00    +0.165 C 
BRANCH  41  42
ATOM     42  O   UNL     1     -12.038 -13.203  -8.812  0.00  0.00    -0.387 OA
ATOM     43  H   UNL     1     -12.367 -13.570  -9.651  0.00  0.00    +0.210 HD
ENDBRANCH  41  42
BRANCH  41  44
ATOM     44  C   UNL     1     -12.797 -10.953  -9.330  0.00  0.00    +0.158 C 
BRANCH  44  53
ATOM     45  C   UNL     1     -16.967 -10.710 -10.629  0.00  0.00    +0.034 A 
ATOM     46  C   UNL     1     -17.247 -10.964 -11.993  0.00  0.00    -0.027 A 
ATOM     47  C   UNL     1     -18.607 -10.929 -12.638  0.00  0.00    +0.046 C 
ATOM     48  C   UNL     1     -16.205 -11.310 -12.882  0.00  0.00    +0.035 A 
ATOM     49  C   UNL     1     -14.873 -11.410 -12.471  0.00  0.00    +0.089 A 
ATOM     50  N   UNL     1     -13.926 -11.768 -13.441  0.00  0.00    -0.237 NA
ATOM     51  C   UNL     1     -12.682 -11.867 -13.088  0.00  0.00    +0.171 A 
ATOM     52  C   UNL     1     -12.222 -11.616 -11.675  0.00  0.00    +0.170 A 
ATOM     53  N   UNL     1     -13.182 -11.255 -10.726  0.00  0.00    -0.319 N 
ATOM     54  N   UNL     1     -10.962 -11.751 -11.395  0.00  0.00    -0.173 NA
ATOM     55  C   UNL     1     -10.025 -12.117 -12.314  0.00  0.00    +0.351 A 
ATOM     56  O   UNL     1      -8.829 -12.163 -12.048  0.00  0.00    -0.245 OA
ATOM     57  N   UNL     1     -10.408 -12.428 -13.589  0.00  0.00    -0.272 N 
ATOM     58  H   UNL     1      -9.657 -12.656 -14.229  0.00  0.00    +0.174 HD
ATOM     59  C   UNL     1     -11.649 -12.260 -14.113  0.00  0.00    +0.282 A 
ATOM     60  O   UNL     1     -11.909 -12.399 -15.295  0.00  0.00    -0.265 OA
ATOM     61  C   UNL     1     -14.536 -11.163 -11.120  0.00  0.00    +0.071 A 
ATOM     62  C   UNL     1     -15.596 -10.831 -10.255  0.00  0.00    +0.051 A 
BRANCH  45  64
ATOM     63  C   UNL     1     -17.493 -10.154  -8.257  0.00  0.00    +0.129 C 
ATOM     64  N   UNL     1     -17.906 -10.366  -9.650  0.00  0.00    -0.336 N 
ATOM     65  C   UNL     1     -19.311 -10.093  -9.921  0.00  0.00    +0.129 C 
ENDBRANCH  45  64
ENDBRANCH  44  53
ENDBRANCH  41  44
ENDBRANCH  38  41
ENDBRANCH  35  38
ENDBRANCH  34  35
ENDBRANCH   1  34
TORSDOF 21
