REMARK  Name = 
REMARK  14 active torsions:
REMARK  status: ('A' for Active; 'I' for Inactive)
REMARK    1  A    between atoms: N_1  and  C_2
REMARK    2  A    between atoms: C_2  and  C_4
REMARK    3  A    between atoms: C_2  and  C_23
REMARK    4  A    between atoms: C_4  and  C_5
REMARK    5  A    between atoms: C_5  and  C_6
REMARK    6  A    between atoms: N_8  and  C_9
REMARK    7  A    between atoms: C_9  and  C_11
REMARK    8  A    between atoms: C_9  and  C_16
REMARK    9  A    between atoms: C_11  and  S_12
REMARK   10  A    between atoms: S_12  and  O_13
REMARK   11  A    between atoms: N_18  and  CA_19
REMARK   12  A    between atoms: CA_19  and  C_20
REMARK   13  A    between atoms: C_20  and  O_21
REMARK   14  A    between atoms: C_23  and  O_24
REMARK                            x       y       z     vdW  Elec       q    Type
REMARK                         _______ _______ _______ _____ _____    ______ ____
ROOT
ATOM      1  C   UNK A   1       3.032   6.338   0.344  0.00  0.00    +0.182 C 
ENDROOT
BRANCH   1   3
ATOM      2  C   UNK A   1       1.298   6.439   2.119  0.00  0.00    +0.214 C 
ATOM      3  N   UNK A   1       2.525   6.807   1.634  0.00  0.00    -0.303 N 
ATOM      4  H   UNK A   1       3.066   7.500   2.142  0.00  0.00    +0.149 HD
ATOM      5  O   UNK A   1       0.486   5.809   1.448  0.00  0.00    -0.276 OA
BRANCH   2   6
ATOM      6  C   UNK A   1       1.015   6.867   3.548  0.00  0.00    +0.098 C 
BRANCH   6   7
ATOM      7  C   UNK A   1       0.966   8.381   3.782  0.00  0.00    +0.039 C 
BRANCH   7   8
ATOM      8  C   UNK A   1      -0.083   9.169   2.981  0.00  0.00    +0.161 C 
BRANCH   8   9
ATOM      9  N   UNK A   1      -1.477   8.702   3.205  0.00  0.00    -0.318 NA
ATOM     10  H   UNK A   1      -1.486   7.712   3.465  0.00  0.00    +0.119 HD
ATOM     11  H   UNK A   1      -1.833   9.178   4.041  0.00  0.00    +0.119 HD
ENDBRANCH   8   9
BRANCH   8  12
ATOM     12  C   UNK A   1       0.220   9.156   1.476  0.00  0.00    +0.322 C 
ATOM     13  O   UNK A   1       1.289   9.478   0.982  0.00  0.00    -0.249 OA
BRANCH  12  14
ATOM     14  O   UNK A   1      -0.827   8.685   0.754  0.00  0.00    -0.480 OA
ATOM     15  H   UNK A   1      -1.556   8.536   1.410  0.00  0.00    +0.295 HD
ENDBRANCH  12  14
ENDBRANCH   8  12
ENDBRANCH   7   8
ENDBRANCH   6   7
ENDBRANCH   2   6
ENDBRANCH   1   3
BRANCH   1  16
ATOM     16  C   UNK A   1       2.566   7.234  -0.821  0.00  0.00    +0.235 C 
ATOM     17  N   GLY A   2       1.286   6.980  -1.282  0.00  0.00    -0.303 N 
ATOM     18  H   GLY A   2       0.629   6.682  -0.557  0.00  0.00    +0.149 HD
ATOM     19  O   UNK A   1       3.302   8.080  -1.325  0.00  0.00    -0.274 OA
BRANCH  17  20
ATOM     20  CA  GLY A   2       0.745   7.809  -2.368  0.00  0.00    +0.224 C 
BRANCH  20  21
ATOM     21  C   GLY A   2      -0.091   6.999  -3.356  0.00  0.00    +0.322 C 
ATOM     22  OXT GLY A   2      -0.717   7.482  -4.289  0.00  0.00    -0.249 OA
BRANCH  21  23
ATOM     23  O   GLY A   2      -0.039   5.662  -3.128  0.00  0.00    -0.480 OA
ATOM     24  H   GLY A   2       0.576   5.484  -2.385  0.00  0.00    +0.295 HD
ENDBRANCH  21  23
ENDBRANCH  20  21
ENDBRANCH  17  20
ENDBRANCH   1  16
BRANCH   1  25
ATOM     25  C   UNK A   1       4.554   6.322   0.296  0.00  0.00    +0.229 C 
BRANCH  25  26
ATOM     26  S   UNK A   1       5.221   5.202   1.489  0.00  0.00    +0.082 S 
ATOM     27  O   UNK A   1       4.805   3.856   1.183  0.00  0.00    -0.147 OA
ATOM     28  O   UNK A   1       5.103   5.782   2.809  0.00  0.00    -0.147 OA
BRANCH  26  29
ATOM     29  O   UNK A   1       6.775   5.354   1.085  0.00  0.00    -0.254 OA
ATOM     30  H   UNK A   1       7.258   5.739   1.847  0.00  0.00    +0.244 HD
ENDBRANCH  26  29
ENDBRANCH  25  26
ENDBRANCH   1  25
TORSDOF 14
