REMARK  Name = 
REMARK  6 active torsions:
REMARK  status: ('A' for Active; 'I' for Inactive)
REMARK    1  A    between atoms: O_1  and  C_2
REMARK    2  A    between atoms: C_6  and  O_8
REMARK    3  A    between atoms: O_8  and  C_9
REMARK    4  A    between atoms: C_16  and  O_18
REMARK    5  A    between atoms: C_19  and  O_21
REMARK    6  A    between atoms: C_22  and  O_24
REMARK                            x       y       z     vdW  Elec       q    Type
REMARK                         _______ _______ _______ _____ _____    ______ ____
ROOT
ATOM      1  C   UNL     1       3.690   0.369  -0.662  0.00  0.00    +0.171 C 
ATOM      2  C   UNL     1       3.121   1.394  -1.649  0.00  0.00    +0.178 C 
ATOM      3  C   UNL     1       3.117   0.822  -3.075  0.00  0.00    +0.201 C 
ATOM      4  C   UNL     1       4.517   0.272  -3.419  0.00  0.00    +0.282 C 
ATOM      5  O   UNL     1       4.976  -0.675  -2.457  0.00  0.00    -0.346 OA
ATOM      6  C   UNL     1       5.059  -0.112  -1.145  0.00  0.00    +0.197 C 
ENDROOT
BRANCH   1   7
ATOM      7  O   UNL     1       2.763  -0.728  -0.580  0.00  0.00    -0.387 OA
ATOM      8  H   UNL     1       3.203  -1.457  -0.108  0.00  0.00    +0.210 HD
ENDBRANCH   1   7
BRANCH   2   9
ATOM      9  O   UNL     1       1.797   1.753  -1.230  0.00  0.00    -0.386 OA
ATOM     10  H   UNL     1       1.321   0.907  -1.119  0.00  0.00    +0.210 HD
ENDBRANCH   2   9
BRANCH   3  11
ATOM     11  O   UNL     1       2.765   1.849  -4.019  0.00  0.00    -0.384 OA
ATOM     12  H   UNL     1       2.840   1.428  -4.899  0.00  0.00    +0.210 HD
ENDBRANCH   3  11
BRANCH   4  13
ATOM     13  O   UNL     1       4.429  -0.323  -4.719  0.00  0.00    -0.342 OA
BRANCH  13  14
ATOM     14  C   UNL     1       5.664  -0.844  -5.235  0.00  0.00    +0.160 C 
ATOM     15  C   UNL     1       5.371  -1.588  -6.552  0.00  0.00    +0.229 C 
ATOM     16  C   UNL     1       6.659  -2.083  -7.213  0.00  0.00    +0.244 C 
ATOM     17  O   UNL     1       6.673  -3.054  -7.967  0.00  0.00    -0.273 OA
ATOM     18  N   UNL     1       7.780  -1.310  -7.076  0.00  0.00    -0.313 N 
ATOM     19  H   UNL     1       8.591  -1.674  -7.563  0.00  0.00    +0.149 HD
ATOM     20  C   UNL     1       7.983  -0.376  -5.997  0.00  0.00    +0.107 C 
ATOM     21  C   UNL     1       6.696   0.256  -5.499  0.00  0.00    +0.053 C 
BRANCH  15  22
ATOM     22  O   UNL     1       4.703  -0.733  -7.491  0.00  0.00    -0.380 OA
ATOM     23  H   UNL     1       4.558  -1.274  -8.288  0.00  0.00    +0.211 HD
ENDBRANCH  15  22
ENDBRANCH  13  14
ENDBRANCH   4  13
TORSDOF 6
