REMARK  Name = 
REMARK  6 active torsions:
REMARK  status: ('A' for Active; 'I' for Inactive)
REMARK    1  A    between atoms: O_1  and  N_2
REMARK    2  A    between atoms: N_2  and  C_3
REMARK    3  A    between atoms: C_3  and  C_4
REMARK    4  A    between atoms: C_4  and  P_5
REMARK    5  A    between atoms: P_5  and  O_6
REMARK    6  A    between atoms: P_5  and  O_7
REMARK                            x       y       z     vdW  Elec       q    Type
REMARK                         _______ _______ _______ _____ _____    ______ ____
ROOT
ATOM      1  C   UNL     1       2.103  -1.728  -1.761  0.00  0.00    +0.148 C 
ENDROOT
BRANCH   1   2
ATOM      2  P   UNL     1       0.928  -0.649  -2.658  0.00  0.00    +0.329 P 
ATOM      3  O   UNL     1      -0.066   0.263  -3.417  0.00  0.00    -0.259 OA
BRANCH   2   4
ATOM      4  O   UNL     1       0.054  -2.005  -2.955  0.00  0.00    -0.324 OA
ATOM      5  H   UNL     1      -0.610  -1.759  -3.631  0.00  0.00    +0.220 HD
ENDBRANCH   2   4
BRANCH   2   6
ATOM      6  O   UNL     1       1.922  -0.815  -3.965  0.00  0.00    -0.324 OA
ATOM      7  H   UNL     1       2.855  -0.564  -3.851  0.00  0.00    +0.220 HD
ENDBRANCH   2   6
ENDBRANCH   1   2
BRANCH   1   8
ATOM      8  C   UNL     1       3.070  -0.903  -0.927  0.00  0.00    +0.151 C 
BRANCH   8   9
ATOM      9  N   UNL     1       2.404  -0.089   0.082  0.00  0.00    -0.186 N 
ATOM     10  C   UNL     1       1.884  -0.681   1.227  0.00  0.00    +0.352 C 
ATOM     11  O   UNL     1       1.544  -1.853   1.331  0.00  0.00    -0.277 OA
BRANCH   9  12
ATOM     12  O   UNL     1       3.160   1.070   0.389  0.00  0.00    -0.293 OA
ATOM     13  H   UNL     1       2.581   1.789   0.069  0.00  0.00    +0.242 HD
ENDBRANCH   9  12
ENDBRANCH   8   9
ENDBRANCH   1   8
TORSDOF 6
