REMARK  Name = 
REMARK  5 active torsions:
REMARK  status: ('A' for Active; 'I' for Inactive)
REMARK    1  A    between atoms: O_1  and  N_2
REMARK    2  A    between atoms: C_3  and  C_5
REMARK    3  A    between atoms: C_5  and  P_6
REMARK    4  A    between atoms: P_6  and  O_7
REMARK    5  A    between atoms: P_6  and  O_8
REMARK                            x       y       z     vdW  Elec       q    Type
REMARK                         _______ _______ _______ _____ _____    ______ ____
ROOT
ATOM      1  C   UNL     1       4.671  -1.207  -0.578  0.00  0.00    +0.224 C 
ENDROOT
BRANCH   1   4
ATOM      2  N   UNL     1       2.717  -0.521  -1.878  0.00  0.00    -0.197 N 
ATOM      3  H   UNL     1       1.726  -0.578  -2.094  0.00  0.00    +0.182 HD
ATOM      4  C   UNL     1       3.193  -1.207  -0.792  0.00  0.00    +0.247 C 
ATOM      5  O   UNL     1       2.423  -1.828  -0.065  0.00  0.00    -0.273 OA
BRANCH   2   6
ATOM      6  O   UNL     1       3.627  -0.193  -2.896  0.00  0.00    -0.295 OA
ATOM      7  H   UNL     1       3.059  -0.015  -3.669  0.00  0.00    +0.241 HD
ENDBRANCH   2   6
ENDBRANCH   1   4
BRANCH   1   8
ATOM      8  P   UNL     1       5.281  -2.727  -1.394  0.00  0.00    +0.337 P 
ATOM      9  O   UNL     1       5.797  -4.013  -2.085  0.00  0.00    -0.258 OA
BRANCH   8  10
ATOM     10  O   UNL     1       5.163  -3.436   0.089  0.00  0.00    -0.324 OA
ATOM     11  H   UNL     1       4.381  -4.016   0.168  0.00  0.00    +0.220 HD
ENDBRANCH   8  10
BRANCH   8  12
ATOM     12  O   UNL     1       6.804  -2.146  -1.193  0.00  0.00    -0.324 OA
ATOM     13  H   UNL     1       7.407  -2.894  -1.385  0.00  0.00    +0.220 HD
ENDBRANCH   8  12
ENDBRANCH   1   8
TORSDOF 5
