REMARK  Name = 
REMARK  2 active torsions:
REMARK  status: ('A' for Active; 'I' for Inactive)
REMARK    1  A    between atoms: N_1  and  C_2
REMARK    2  A    between atoms: C_3  and  N_10
REMARK                            x       y       z     vdW  Elec       q    Type
REMARK                         _______ _______ _______ _____ _____    ______ ____
ROOT
ATOM      1  C   UNL     1       2.431   0.112   0.188  0.00  0.00    +0.187 A 
ATOM      2  C   UNL     1       3.215  -1.181   0.119  0.00  0.00    +0.282 A 
ATOM      3  O   UNL     1       2.632  -2.260   0.026  0.00  0.00    -0.265 OA
ATOM      4  N   UNL     1       4.575  -1.106   0.133  0.00  0.00    -0.273 N 
ATOM      5  H   UNL     1       5.089  -1.973   0.091  0.00  0.00    +0.173 HD
ATOM      6  C   UNL     1       5.292   0.046   0.072  0.00  0.00    +0.332 A 
ATOM      7  O   UNL     1       6.515   0.055   0.020  0.00  0.00    -0.247 OA
ATOM      8  N   UNL     1       4.562   1.187   0.055  0.00  0.00    -0.248 N 
ATOM      9  H   UNL     1       5.067   2.068   0.017  0.00  0.00    +0.176 HD
ATOM     10  C   UNL     1       3.187   1.228   0.114  0.00  0.00    +0.376 A 
ENDROOT
BRANCH   1  11
ATOM     11  N   UNL     1       1.056  -0.050   0.300  0.00  0.00    -0.347 N 
ATOM     12  H   UNL     1       0.730  -0.956  -0.047  0.00  0.00    +0.143 HD
ATOM     13  H   UNL     1       0.498   0.752  -0.003  0.00  0.00    +0.143 HD
ENDBRANCH   1  11
BRANCH  10  14
ATOM     14  N   UNL     1       2.497   2.533   0.098  0.00  0.00    +0.101 N 
ATOM     15  O   UNL     1       1.264   2.585  -0.003  0.00  0.00    +0.043 OA
ATOM     16  O   UNL     1       3.244   3.523   0.141  0.00  0.00    -0.575 OA
ENDBRANCH  10  14
TORSDOF 2
