REMARK  Name = 
REMARK  4 active torsions:
REMARK  status: ('A' for Active; 'I' for Inactive)
REMARK    1  A    between atoms: C_6  and  N_7
REMARK    2  A    between atoms: N_7  and  C_8
REMARK    3  A    between atoms: C_11  and  S_14
REMARK    4  A    between atoms: S_14  and  N_15
REMARK                            x       y       z     vdW  Elec       q    Type
REMARK                         _______ _______ _______ _____ _____    ______ ____
ROOT
ATOM      1  C   UNL     1       4.478  -3.862  -0.485  0.00  0.00    +0.032 A 
ATOM      2  C   UNL     1       3.112  -3.944  -0.798  0.00  0.00    +0.025 A 
ATOM      3  C   UNL     1       2.479  -5.178  -0.942  0.00  0.00    +0.030 A 
ATOM      4  C   UNL     1       3.212  -6.347  -0.747  0.00  0.00    +0.105 A 
ATOM      5  C   UNL     1       4.565  -6.294  -0.420  0.00  0.00    +0.030 A 
ATOM      6  C   UNL     1       5.192  -5.059  -0.277  0.00  0.00    +0.025 A 
ENDROOT
BRANCH   4   7
ATOM      7  S   UNL     1       2.396  -7.908  -0.779  0.00  0.00    +0.056 S 
ATOM      8  O   UNL     1       3.372  -8.945  -1.024  0.00  0.00    -0.153 OA
ATOM      9  O   UNL     1       1.171  -7.793  -1.532  0.00  0.00    -0.153 OA
BRANCH   7  10
ATOM     10  N   UNL     1       1.980  -7.980   0.837  0.00  0.00    -0.204 NA
ATOM     11  H   UNL     1       2.559  -8.578   1.419  0.00  0.00    +0.144 HD
ATOM     12  H   UNL     1       0.988  -7.874   1.035  0.00  0.00    +0.144 HD
ENDBRANCH   7  10
ENDBRANCH   4   7
BRANCH   1  13
ATOM     13  N   UNL     1       5.133  -2.631  -0.268  0.00  0.00    -0.299 N 
ATOM     14  H   UNL     1       6.134  -2.730  -0.145  0.00  0.00    +0.154 HD
BRANCH  13  20
ATOM     15  N   UNL     1       5.575   2.143  -0.150  0.00  0.00    -0.343 N 
ATOM     16  H   UNL     1       5.473   2.159   0.859  0.00  0.00    +0.144 HD
ATOM     17  H   UNL     1       5.101   2.931  -0.586  0.00  0.00    +0.144 HD
ATOM     18  C   UNL     1       5.033   0.982  -0.702  0.00  0.00    +0.121 A 
ATOM     19  C   UNL     1       5.425  -0.254  -0.242  0.00  0.00    +0.087 A 
ATOM     20  C   UNL     1       4.816  -1.361  -0.808  0.00  0.00    +0.128 A 
ATOM     21  N   UNL     1       3.917  -1.228  -1.794  0.00  0.00    -0.221 NA
ATOM     22  C   UNL     1       3.639   0.017  -2.197  0.00  0.00    +0.225 A 
ATOM     23  N   UNL     1       4.152   1.144  -1.691  0.00  0.00    -0.221 NA
ENDBRANCH  13  20
ENDBRANCH   1  13
TORSDOF 4
