REMARK  Name = 
REMARK  25 active torsions:
REMARK  status: ('A' for Active; 'I' for Inactive)
REMARK    1  A    between atoms: N_10  and  C_11
REMARK    2  A    between atoms: C_14  and  C_16
REMARK    3  A    between atoms: C_16  and  O_17
REMARK    4  A    between atoms: O_17  and  P_18
REMARK    5  A    between atoms: P_18  and  O_19
REMARK    6  A    between atoms: P_18  and  O_21
REMARK    7  A    between atoms: O_21  and  P_22
REMARK    8  A    between atoms: P_22  and  O_23
REMARK    9  A    between atoms: P_22  and  O_25
REMARK   10  A    between atoms: O_25  and  P_26
REMARK   11  A    between atoms: P_26  and  O_27
REMARK   12  A    between atoms: P_26  and  O_29
REMARK   13  A    between atoms: O_29  and  P_30
REMARK   14  A    between atoms: P_30  and  O_31
REMARK   15  A    between atoms: P_30  and  O_33
REMARK   16  A    between atoms: O_33  and  P_34
REMARK   17  A    between atoms: P_34  and  O_35
REMARK   18  A    between atoms: P_34  and  O_37
REMARK   19  A    between atoms: O_37  and  C_38
REMARK   20  A    between atoms: C_38  and  C_39
REMARK   21  A    between atoms: C_42  and  N_50
REMARK   22  A    between atoms: C_44  and  O_46
REMARK   23  A    between atoms: C_47  and  O_49
REMARK   24  A    between atoms: C_58  and  O_60
REMARK   25  A    between atoms: C_61  and  O_63
REMARK                            x       y       z     vdW  Elec       q    Type
REMARK                         _______ _______ _______ _____ _____    ______ ____
ROOT
ATOM      1  P   UNL     1       7.070  -5.783  11.905  0.00  0.00    +0.492 P 
ATOM      2  O   UNL     1       6.554  -6.866  12.852  0.00  0.00    -0.226 OA
ENDROOT
BRANCH   1   3
ATOM      3  O   UNL     1       6.527  -6.813  10.626  0.00  0.00    -0.302 OA
ATOM      4  H   UNL     1       6.487  -7.669  11.130  0.00  0.00    +0.222 HD
ENDBRANCH   1   3
BRANCH   1   5
ATOM      5  O   UNL     1       7.613  -4.753  13.185  0.00  0.00    -0.186 OA
BRANCH   5   6
ATOM      6  P   UNL     1       7.531  -3.103  12.671  0.00  0.00    +0.492 P 
ATOM      7  O   UNL     1       8.956  -2.548  12.700  0.00  0.00    -0.226 OA
BRANCH   6   8
ATOM      8  O   UNL     1       7.818  -3.597  11.038  0.00  0.00    -0.302 OA
ATOM      9  H   UNL     1       8.266  -2.828  10.622  0.00  0.00    +0.222 HD
ENDBRANCH   6   8
BRANCH   6  10
ATOM     10  O   UNL     1       7.244  -2.609  14.304  0.00  0.00    -0.186 OA
BRANCH  10  11
ATOM     11  P   UNL     1       5.861  -1.749  14.089  0.00  0.00    +0.483 P 
ATOM     12  O   UNL     1       5.130  -2.085  12.831  0.00  0.00    -0.227 OA
BRANCH  11  13
ATOM     13  O   UNL     1       6.415  -0.247  14.038  0.00  0.00    -0.302 OA
ATOM     14  H   UNL     1       6.919  -0.010  14.848  0.00  0.00    +0.222 HD
ENDBRANCH  11  13
BRANCH  11  15
ATOM     15  O   UNL     1       4.908  -1.706  15.396  0.00  0.00    -0.284 OA
BRANCH  15  16
ATOM     16  C   UNL     1       3.548  -1.316  15.091  0.00  0.00    +0.206 C 
BRANCH  16  17
ATOM     17  C   UNL     1       2.577  -1.108  16.280  0.00  0.00    +0.178 C 
ATOM     18  C   UNL     1       2.589  -2.246  17.297  0.00  0.00    +0.178 C 
ATOM     19  C   UNL     1       3.638  -1.815  18.319  0.00  0.00    +0.195 C 
ATOM     20  C   UNL     1       3.955  -0.355  17.927  0.00  0.00    +0.255 C 
ATOM     21  O   UNL     1       2.899   0.075  17.061  0.00  0.00    -0.346 OA
BRANCH  20  22
ATOM     22  N   UNL     1       4.168   0.505  19.086  0.00  0.00    -0.271 N 
ATOM     23  C   UNL     1       5.407   0.339  19.692  0.00  0.00    +0.331 A 
ATOM     24  O   UNL     1       6.258  -0.454  19.286  0.00  0.00    -0.246 OA
ATOM     25  N   UNL     1       5.630   1.077  20.813  0.00  0.00    -0.275 N 
ATOM     26  H   UNL     1       6.504   0.915  21.286  0.00  0.00    +0.173 HD
ATOM     27  C   UNL     1       4.671   1.758  21.499  0.00  0.00    +0.254 A 
ATOM     28  O   UNL     1       4.847   2.196  22.633  0.00  0.00    -0.268 OA
ATOM     29  C   UNL     1       3.375   1.923  20.807  0.00  0.00    +0.088 A 
ATOM     30  C   UNL     1       3.185   1.295  19.642  0.00  0.00    +0.098 A 
ENDBRANCH  20  22
BRANCH  19  31
ATOM     31  O   UNL     1       4.795  -2.648  18.261  0.00  0.00    -0.385 OA
ATOM     32  H   UNL     1       5.520  -2.169  18.717  0.00  0.00    +0.210 HD
ENDBRANCH  19  31
BRANCH  18  33
ATOM     33  O   UNL     1       1.301  -2.328  17.936  0.00  0.00    -0.386 OA
ATOM     34  H   UNL     1       1.046  -1.438  18.238  0.00  0.00    +0.210 HD
ENDBRANCH  18  33
ENDBRANCH  16  17
ENDBRANCH  15  16
ENDBRANCH  11  15
ENDBRANCH  10  11
ENDBRANCH   6  10
ENDBRANCH   5   6
ENDBRANCH   1   5
BRANCH   1  35
ATOM     35  O   UNL     1       5.743  -4.714  11.608  0.00  0.00    -0.186 OA
BRANCH  35  36
ATOM     36  P   UNL     1       4.420  -5.622  10.962  0.00  0.00    +0.492 P 
ATOM     37  O   UNL     1       3.522  -4.388  11.080  0.00  0.00    -0.226 OA
BRANCH  36  38
ATOM     38  O   UNL     1       5.045  -5.531   9.434  0.00  0.00    -0.302 OA
ATOM     39  H   UNL     1       5.790  -6.173   9.382  0.00  0.00    +0.222 HD
ENDBRANCH  36  38
BRANCH  36  40
ATOM     40  O   UNL     1       3.097  -6.530  10.316  0.00  0.00    -0.186 OA
BRANCH  40  41
ATOM     41  P   UNL     1       3.487  -8.216  10.343  0.00  0.00    +0.483 P 
ATOM     42  O   UNL     1       2.858  -8.405  11.717  0.00  0.00    -0.227 OA
BRANCH  41  43
ATOM     43  O   UNL     1       3.876  -9.901  10.371  0.00  0.00    -0.302 OA
ATOM     44  H   UNL     1       3.347 -10.231  11.131  0.00  0.00    +0.222 HD
ENDBRANCH  41  43
BRANCH  41  45
ATOM     45  O   UNL     1       2.372  -8.523   9.175  0.00  0.00    -0.284 OA
BRANCH  45  46
ATOM     46  C   UNL     1       2.910  -8.427   7.861  0.00  0.00    +0.206 C 
BRANCH  46  50
ATOM     47  C   UNL     1       1.360  -8.799   4.586  0.00  0.00    +0.253 C 
ATOM     48  C   UNL     1       0.280  -7.952   5.282  0.00  0.00    +0.195 C 
ATOM     49  C   UNL     1       0.624  -8.041   6.777  0.00  0.00    +0.178 C 
ATOM     50  C   UNL     1       1.908  -8.871   6.810  0.00  0.00    +0.178 C 
ATOM     51  O   UNL     1       2.489  -8.749   5.499  0.00  0.00    -0.346 OA
BRANCH  47  59
ATOM     52  N   UNL     1      -0.461 -14.566   4.046  0.00  0.00    -0.341 N 
ATOM     53  H   UNL     1       0.234 -14.691   3.320  0.00  0.00    +0.144 HD
ATOM     54  H   UNL     1      -1.355 -15.030   3.938  0.00  0.00    +0.144 HD
ATOM     55  C   UNL     1      -0.630 -13.233   4.413  0.00  0.00    +0.147 A 
ATOM     56  C   UNL     1       0.343 -12.241   4.187  0.00  0.00    +0.147 A 
ATOM     57  N   UNL     1       1.593 -12.275   3.618  0.00  0.00    -0.231 NA
ATOM     58  C   UNL     1       2.036 -11.037   3.715  0.00  0.00    +0.203 A 
ATOM     59  N   UNL     1       1.111 -10.198   4.296  0.00  0.00    -0.286 N 
ATOM     60  C   UNL     1       0.020 -10.958   4.600  0.00  0.00    +0.167 A 
ATOM     61  N   UNL     1      -1.117 -10.570   5.188  0.00  0.00    -0.216 NA
ATOM     62  C   UNL     1      -1.967 -11.596   5.361  0.00  0.00    +0.225 A 
ATOM     63  N   UNL     1      -1.794 -12.884   5.004  0.00  0.00    -0.219 NA
ENDBRANCH  47  59
BRANCH  49  64
ATOM     64  O   UNL     1      -0.411  -8.672   7.522  0.00  0.00    -0.386 OA
ATOM     65  H   UNL     1      -0.050  -8.901   8.399  0.00  0.00    +0.210 HD
ENDBRANCH  49  64
BRANCH  48  66
ATOM     66  O   UNL     1       0.391  -6.579   4.835  0.00  0.00    -0.385 OA
ATOM     67  H   UNL     1       1.232  -6.210   5.157  0.00  0.00    +0.210 HD
ENDBRANCH  48  66
ENDBRANCH  46  50
ENDBRANCH  45  46
ENDBRANCH  41  45
ENDBRANCH  40  41
ENDBRANCH  36  40
ENDBRANCH  35  36
ENDBRANCH   1  35
TORSDOF 25
