REMARK  Name = 
REMARK  1 active torsions:
REMARK  status: ('A' for Active; 'I' for Inactive)
REMARK    1  A    between atoms: C_25  and  C_27
REMARK                            x       y       z     vdW  Elec       q    Type
REMARK                         _______ _______ _______ _____ _____    ______ ____
ROOT
ATOM      1  C   UNL     1      -0.000  -0.000  -0.000  0.00  0.00    +0.148 C 
ATOM      2  O   UNL     1      -0.000  -0.000  -0.000  0.00  0.00    -0.368 OA
ATOM      3  C   UNL     1      -0.000  -0.000  -0.000  0.00  0.00    +0.151 C 
ATOM      4  C   UNL     1      -0.000  -0.000   0.000  0.00  0.00    +0.078 C 
ATOM      5  C   UNL     1      -0.000  -0.000  -0.000  0.00  0.00    +0.176 C 
ATOM      6  C   UNL     1      -0.000  -0.000   0.000  0.00  0.00    +0.052 C 
ATOM      7  O   UNL     1      -0.000  -0.000  -0.000  0.00  0.00    -0.461 OA
ATOM      8  C   UNL     1      -0.000  -0.000  -0.000  0.00  0.00    +0.318 C 
ATOM      9  O   UNL     1      -0.000  -0.000  -0.000  0.00  0.00    -0.250 OA
ATOM     10  C   UNL     1      -0.000  -0.000  -0.000  0.00  0.00    +0.169 C 
ATOM     11  C   UNL     1      -0.000  -0.000   0.000  0.00  0.00    +0.042 C 
ATOM     12  C   UNL     1      -0.000  -0.000  -0.000  0.00  0.00    +0.151 C 
ATOM     13 CL   UNL     1      -0.000  -0.000  -0.000  0.00  0.00    -0.113 Cl
ATOM     14  C   UNL     1      -0.000  -0.000   0.000  0.00  0.00    +0.158 C 
ATOM     15  O   UNL     1      -0.000  -0.000  -0.000  0.00  0.00    -0.295 OA
ATOM     16  C   UNL     1      -0.000  -0.000  -0.000  0.00  0.00    +0.151 C 
ATOM     17  C   UNL     1      -0.000  -0.000  -0.000  0.00  0.00    +0.081 C 
ATOM     18  C   UNL     1      -0.000  -0.000  -0.000  0.00  0.00    +0.134 C 
ATOM     19  O   UNL     1      -0.000  -0.000   0.000  0.00  0.00    -0.297 OA
ATOM     20  C   UNL     1      -0.000  -0.000  -0.000  0.00  0.00    +0.074 C 
ATOM     21  C   UNL     1      -0.000  -0.000  -0.000  0.00  0.00    +0.008 C 
ATOM     22  C   UNL     1      -0.000  -0.000  -0.000  0.00  0.00    +0.003 C 
ATOM     23  C   UNL     1      -0.000  -0.000  -0.000  0.00  0.00    +0.154 C 
ATOM     24  O   UNL     1      -0.000  -0.000  -0.000  0.00  0.00    -0.296 OA
ATOM     25  C   UNL     1      -0.000  -0.000  -0.000  0.00  0.00    +0.034 C 
ENDROOT
TORSDOF 0
