REMARK  Name = 
REMARK  2 active torsions:
REMARK  status: ('A' for Active; 'I' for Inactive)
REMARK    1  A    between atoms: N_1  and  C_2
REMARK    2  A    between atoms: C_2  and  C_3
REMARK                            x       y       z     vdW  Elec       q    Type
REMARK                         _______ _______ _______ _____ _____    ______ ____
ROOT
ATOM      1  C   UNL     1       2.982   1.169   0.867  0.00  0.00    +0.224 C 
ATOM      2  O   UNL     1       4.181   1.397   0.983  0.00  0.00    -0.275 OA
ATOM      3  N   UNL     1       2.045   1.987   1.432  0.00  0.00    -0.328 N 
ATOM      4  H   UNL     1       2.364   2.710   2.061  0.00  0.00    +0.145 HD
ATOM      5  H   UNL     1       1.108   1.610   1.534  0.00  0.00    +0.145 HD
ENDROOT
BRANCH   1   6
ATOM      6  C   UNL     1       2.422  -0.030   0.096  0.00  0.00    +0.174 C 
BRANCH   6   7
ATOM      7  N   UNL     1       0.943   0.000   0.044  0.00  0.00    -0.322 NA
ATOM      8  H   UNL     1       0.671   0.784  -0.552  0.00  0.00    +0.119 HD
ATOM      9  H   UNL     1       0.628  -0.837  -0.448  0.00  0.00    +0.119 HD
ENDBRANCH   6   7
ENDBRANCH   1   6
TORSDOF 2
