REMARK  Name = 
REMARK  2 active torsions:
REMARK  status: ('A' for Active; 'I' for Inactive)
REMARK    1  A    between atoms: C_2  and  C_3
REMARK    2  A    between atoms: C_3  and  C_4
REMARK                            x       y       z     vdW  Elec       q    Type
REMARK                         _______ _______ _______ _____ _____    ______ ____
ROOT
ATOM      1  C   UNL     1       3.075  -1.365   0.237  0.00  0.00    +0.141 C 
ENDROOT
BRANCH   1   3
ATOM      2  O   UNL     1       1.181   0.065   0.545  0.00  0.00    -0.301 OA
ATOM      3  C   UNL     1       2.285  -0.110   0.034  0.00  0.00    +0.230 C 
ENDBRANCH   1   3
BRANCH   1   4
ATOM      4  C   UNL     1       4.556  -1.150   0.222  0.00  0.00    +0.230 C 
ATOM      5  O   UNL     1       5.094  -0.077  -0.029  0.00  0.00    -0.301 OA
ENDBRANCH   1   4
TORSDOF 2
