REMARK  Name = 
REMARK  5 active torsions:
REMARK  status: ('A' for Active; 'I' for Inactive)
REMARK    1  A    between atoms: N_1  and  CA_2
REMARK    2  A    between atoms: CA_2  and  CB_4
REMARK    3  A    between atoms: CA_2  and  C_6
REMARK    4  A    between atoms: CB_4  and  SG_5
REMARK    5  A    between atoms: C_6  and  O_7
REMARK                            x       y       z     vdW  Elec       q    Type
REMARK                         _______ _______ _______ _____ _____    ______ ____
ROOT
ATOM      1  CA  CYS A   1       2.339  -0.003  -0.108  0.00  0.00    +0.170 C 
ENDROOT
BRANCH   1   2
ATOM      2  N   CYS A   1       0.843   0.097  -0.200  0.00  0.00    -0.318 NA
ATOM      3  H1  CYS A   1       0.577  -0.075  -1.177  0.00  0.00    +0.119 HD
ATOM      4  H2  CYS A   1       0.466  -0.731   0.277  0.00  0.00    +0.119 HD
ENDBRANCH   1   2
BRANCH   1   5
ATOM      5  C   CYS A   1       2.937   1.378  -0.410  0.00  0.00    +0.323 C 
ATOM      6  OXT CYS A   1       4.124   1.610  -0.566  0.00  0.00    -0.249 OA
BRANCH   5   7
ATOM      7  O   CYS A   1       1.971   2.331  -0.471  0.00  0.00    -0.480 OA
ATOM      8  H   CYS A   1       1.117   1.862  -0.288  0.00  0.00    +0.295 HD
ENDBRANCH   5   7
ENDBRANCH   1   5
BRANCH   1   9
ATOM      9  CB  CYS A   1       2.939  -1.029  -1.078  0.00  0.00    +0.095 C 
BRANCH   9  10
ATOM     10  SG  CYS A   1       2.271  -2.703  -0.798  0.00  0.00    -0.176 S 
ATOM     11  HG  CYS A   1       2.899  -2.929   0.366  0.00  0.00    +0.102 HD
ENDBRANCH   9  10
ENDBRANCH   1   9
TORSDOF 5
