REMARK  Name = 
REMARK  3 active torsions:
REMARK  status: ('A' for Active; 'I' for Inactive)
REMARK    1  A    between atoms: O_1  and  N_2
REMARK    2  A    between atoms: C_3  and  C_5
REMARK    3  A    between atoms: C_10  and  O_11
REMARK                            x       y       z     vdW  Elec       q    Type
REMARK                         _______ _______ _______ _____ _____    ______ ____
ROOT
ATOM      1  C   UNL     1       4.572   0.277  -1.112  0.00  0.00    +0.080 A 
ATOM      2  C   UNL     1       5.309   0.569   0.048  0.00  0.00    +0.129 A 
ATOM      3  C   UNL     1       6.707   0.501   0.039  0.00  0.00    +0.046 A 
ATOM      4  C   UNL     1       7.382   0.149  -1.130  0.00  0.00    +0.004 A 
ATOM      5  C   UNL     1       6.666  -0.132  -2.291  0.00  0.00    +0.001 A 
ATOM      6  C   UNL     1       5.271  -0.069  -2.281  0.00  0.00    +0.017 A 
ENDROOT
BRANCH   1   9
ATOM      7  N   UNL     1       2.417   0.655  -0.044  0.00  0.00    -0.193 N 
ATOM      8  H   UNL     1       2.920   0.886   0.810  0.00  0.00    +0.183 HD
ATOM      9  C   UNL     1       3.075   0.298  -1.193  0.00  0.00    +0.270 C 
ATOM     10  O   UNL     1       2.518   0.000  -2.245  0.00  0.00    -0.268 OA
BRANCH   7  11
ATOM     11  O   UNL     1       1.011   0.657  -0.059  0.00  0.00    -0.295 OA
ATOM     12  H   UNL     1       0.775   0.965   0.832  0.00  0.00    +0.241 HD
ENDBRANCH   7  11
ENDBRANCH   1   9
BRANCH   2  13
ATOM     13  O   UNL     1       4.681   0.928   1.214  0.00  0.00    -0.506 OA
ATOM     14  H   UNL     1       5.362   1.117   1.885  0.00  0.00    +0.292 HD
ENDBRANCH   2  13
TORSDOF 3
