REMARK  Name = 
REMARK  27 active torsions:
REMARK  status: ('A' for Active; 'I' for Inactive)
REMARK    1  A    between atoms: C_1  and  O_2
REMARK    2  A    between atoms: O_2  and  C_3
REMARK    3  A    between atoms: C_3  and  C_5
REMARK    4  A    between atoms: C_3  and  C_49
REMARK    5  A    between atoms: C_5  and  C_6
REMARK    6  A    between atoms: C_12  and  O_14
REMARK    7  A    between atoms: C_21  and  C_23
REMARK    8  A    between atoms: C_41  and  O_43
REMARK    9  A    between atoms: O_43  and  C_44
REMARK   10  A    between atoms: C_45  and  C_47
REMARK   11  A    between atoms: C_49  and  C_51
REMARK   12  A    between atoms: C_49  and  C_52
REMARK   13  A    between atoms: C_52  and  C_53
REMARK   14  A    between atoms: C_53  and  C_54
REMARK   15  A    between atoms: C_54  and  C_56
REMARK   16  A    between atoms: C_56  and  C_58
REMARK   17  A    between atoms: C_56  and  C_59
REMARK   18  A    between atoms: C_59  and  O_61
REMARK   19  A    between atoms: C_59  and  C_65
REMARK   20  A    between atoms: O_61  and  C_62
REMARK   21  A    between atoms: C_62  and  C_63
REMARK   22  A    between atoms: C_65  and  C_67
REMARK   23  A    between atoms: C_65  and  C_68
REMARK   24  A    between atoms: C_69  and  N_70
REMARK   25  A    between atoms: N_70  and  C_71
REMARK   26  A    between atoms: N_70  and  C_72
REMARK   27  A    between atoms: C_72  and  O_73
REMARK                            x       y       z     vdW  Elec       q    Type
REMARK                         _______ _______ _______ _____ _____    ______ ____
ROOT
ATOM      1  C   UNL     1       5.571   1.195  -5.959  0.00  0.00    +0.184 C 
ATOM      2  C   UNL     1       5.244   1.904  -7.951  0.00  0.00    +0.056 C 
ATOM      3  C   UNL     1       4.107   0.709  -8.228  0.00  0.00    +0.014 C 
ATOM      4  C   UNL     1       5.556   2.762  -9.914  0.00  0.00    +0.128 C 
ATOM      5  C   UNL     1       5.564   4.297 -11.442  0.00  0.00    +0.059 C 
ATOM      6  C   UNL     1       5.891   5.714 -12.697  0.00  0.00    -0.019 C 
ATOM      7  C   UNL     1       5.954   6.644 -14.142  0.00  0.00    +0.063 C 
ATOM      8  C   UNL     1       6.245   8.116 -14.821  0.00  0.00    +0.220 A 
ATOM      9  N   UNL     1       7.116   9.118 -14.575  0.00  0.00    -0.205 NA
ATOM     10  C   UNL     1       6.783  10.405 -15.226  0.00  0.00    +0.164 A 
ATOM     11  C   UNL     1       6.252  10.180 -16.458  0.00  0.00    +0.230 A 
ATOM     12  C   UNL     1       6.552  11.485 -14.232  0.00  0.00    +0.250 A 
ATOM     13  N   UNL     1       6.219  10.838 -13.162  0.00  0.00    -0.203 NA
ATOM     14  C   UNL     1       6.316  11.658 -12.151  0.00  0.00    +0.164 A 
ATOM     15  C   UNL     1       6.394  12.940 -12.611  0.00  0.00    +0.230 A 
ATOM     16  C   UNL     1       6.302  10.955 -10.880  0.00  0.00    +0.249 A 
ATOM     17  N   UNL     1       6.267   9.623 -10.859  0.00  0.00    -0.212 NA
ATOM     18  C   UNL     1       6.303   9.315  -9.549  0.00  0.00    +0.083 A 
ATOM     19  C   UNL     1       6.326  10.486  -8.825  0.00  0.00    +0.221 A 
ATOM     20  C   UNL     1       6.269   7.909  -9.061  0.00  0.00    +0.045 C 
ATOM     21  C   UNL     1       7.685   7.340  -8.925  0.00  0.00    +0.014 C 
ATOM     22  C   UNL     1       5.556   7.967  -7.734  0.00  0.00    +0.083 C 
ATOM     23  C   UNL     1       5.360   6.652  -7.106  0.00  0.00    +0.134 C 
ATOM     24  O   UNL     1       5.579   5.583  -7.667  0.00  0.00    -0.297 OA
ATOM     25  C   UNL     1       4.813   6.810  -5.726  0.00  0.00    +0.074 C 
ATOM     26  C   UNL     1       4.842   5.487  -5.119  0.00  0.00    +0.010 C 
ATOM     27  C   UNL     1       4.274   5.559  -3.687  0.00  0.00    +0.032 C 
ATOM     28  C   UNL     1       4.478   4.143  -3.371  0.00  0.00    +0.125 C 
ATOM     29  C   UNL     1       3.865   3.152  -2.498  0.00  0.00    +0.151 C 
ATOM     30  C   UNL     1       4.523   1.902  -3.272  0.00  0.00    +0.310 C 
ATOM     31  O   UNL     1       4.999   1.038  -2.540  0.00  0.00    -0.251 OA
ATOM     32  O   UNL     1       6.337  11.540  -9.667  0.00  0.00    -0.442 OA
ATOM     33  O   UNL     1       6.494  12.858 -14.023  0.00  0.00    -0.442 OA
ATOM     34  O   UNL     1       5.739   8.788 -16.317  0.00  0.00    -0.443 OA
ATOM     35  O   UNL     1       4.710   2.015  -4.765  0.00  0.00    -0.461 OA
ENDROOT
BRANCH  28  36
ATOM     36  O   UNL     1       5.904   3.970  -3.303  0.00  0.00    -0.391 OA
ATOM     37  H   UNL     1       6.172   3.630  -2.430  0.00  0.00    +0.210 HD
ENDBRANCH  28  36
BRANCH   4  38
ATOM     38  O   UNL     1       5.662   1.480 -11.056  0.00  0.00    -0.379 OA
ATOM     39  C   UNL     1       5.600   1.552 -12.599  0.00  0.00    +0.194 C 
ENDBRANCH   4  38
BRANCH   1  40
ATOM     40  C   UNL     1       5.976  -0.439  -4.612  0.00  0.00    +0.076 C 
BRANCH  40  41
ATOM     41  C   UNL     1       5.987  -1.446  -2.894  0.00  0.00    +0.124 C 
BRANCH  41  43
ATOM     42  C   UNL     1       4.542  -3.588  -2.684  0.00  0.00    +0.194 C 
ATOM     43  O   UNL     1       5.489  -2.798  -3.394  0.00  0.00    -0.379 OA
ENDBRANCH  41  43
BRANCH  41  44
ATOM     44  C   UNL     1       6.892  -2.356  -1.255  0.00  0.00    +0.015 C 
ATOM     45  C   UNL     1       7.674  -1.702   0.118  0.00  0.00    +0.010 C 
BRANCH  44  46
ATOM     46  C   UNL     1       7.500  -4.024  -0.906  0.00  0.00    +0.013 C 
BRANCH  46  47
ATOM     47  C   UNL     1       7.066  -5.540  -1.214  0.00  0.00    +0.075 C 
BRANCH  47  48
ATOM     48  C   UNL     1       8.007  -6.796  -0.724  0.00  0.00    +0.140 C 
ATOM     49  O   UNL     1       8.900  -6.663   0.116  0.00  0.00    -0.297 OA
BRANCH  48  50
ATOM     50  C   UNL     1       7.724  -8.243  -1.326  0.00  0.00    +0.093 C 
ATOM     51  C   UNL     1       7.373  -9.299  -0.257  0.00  0.00    +0.019 C 
BRANCH  50  52
ATOM     52  C   UNL     1       8.893  -8.809  -2.213  0.00  0.00    +0.193 C 
BRANCH  52  53
ATOM     53  C   UNL     1       9.343  -7.749  -3.258  0.00  0.00    +0.051 C 
ATOM     54  C   UNL     1       8.226  -7.385  -4.240  0.00  0.00    +0.015 C 
BRANCH  53  55
ATOM     55  C   UNL     1      10.555  -8.175  -4.053  0.00  0.00    -0.005 C 
ATOM     56  C   UNL     1      11.733  -7.534  -4.029  0.00  0.00    +0.068 C 
BRANCH  56  57
ATOM     57  N   UNL     1      12.886  -7.835  -4.733  0.00  0.00    -0.317 N 
ATOM     58  C   UNL     1      13.133  -9.152  -5.322  0.00  0.00    +0.131 C 
BRANCH  57  59
ATOM     59  C   UNL     1      13.807  -6.793  -5.166  0.00  0.00    +0.263 C 
BRANCH  59  60
ATOM     60  O   UNL     1      15.096  -7.092  -4.680  0.00  0.00    -0.377 OA
ATOM     61  H   UNL     1      14.944  -7.262  -3.736  0.00  0.00    +0.211 HD
ENDBRANCH  59  60
ENDBRANCH  57  59
ENDBRANCH  56  57
ENDBRANCH  53  55
ENDBRANCH  52  53
BRANCH  52  62
ATOM     62  O   UNL     1       8.393 -10.010  -2.908  0.00  0.00    -0.460 OA
BRANCH  62  63
ATOM     63  C   UNL     1       8.686 -11.241  -2.384  0.00  0.00    +0.304 C 
ATOM     64  O   UNL     1       9.498 -11.462  -1.496  0.00  0.00    -0.251 OA
ATOM     65  C   UNL     1       7.768 -12.308  -2.929  0.00  0.00    +0.136 C 
ENDBRANCH  62  63
ENDBRANCH  52  62
ENDBRANCH  50  52
ENDBRANCH  48  50
ENDBRANCH  47  48
ENDBRANCH  46  47
ENDBRANCH  44  46
ENDBRANCH  41  44
ENDBRANCH  40  41
ENDBRANCH   1  40
TORSDOF 18
