REMARK  Name = 
REMARK  8 active torsions:
REMARK  status: ('A' for Active; 'I' for Inactive)
REMARK    1  A    between atoms: C_1  and  C_2
REMARK    2  A    between atoms: C_2  and  C_3
REMARK    3  A    between atoms: C_2  and  C_4
REMARK    4  A    between atoms: C_2  and  C_5
REMARK    5  A    between atoms: C_6  and  C_7
REMARK    6  A    between atoms: C_7  and  CA_8
REMARK    7  A    between atoms: CA_8  and  N_10
REMARK    8  A    between atoms: CA_8  and  C_14
REMARK                            x       y       z     vdW  Elec       q    Type
REMARK                         _______ _______ _______ _____ _____    ______ ____
ROOT
ATOM      1  C   UNL     1       2.820   0.901  -1.134  0.00  0.00    +0.145 A 
ATOM      2  O   UNL     1       3.465   0.245  -2.150  0.00  0.00    -0.359 OA
ATOM      3  N   UNL     1       3.963   1.147  -3.064  0.00  0.00    -0.094 NA
ATOM      4  C   UNL     1       3.553   2.328  -2.631  0.00  0.00    +0.035 A 
ATOM      5  O   UNL     1       3.962   3.457  -3.174  0.00  0.00    -0.858 OA
ATOM      6  C   UNL     1       2.798   2.259  -1.431  0.00  0.00    +0.013 A 
ENDROOT
BRANCH   1   8
ATOM      7  C   UNL     1       0.946  -0.556  -0.396  0.00  0.00    +0.019 C 
ATOM      8  C   UNL     1       2.334  -0.008  -0.029  0.00  0.00    +0.023 C 
ATOM      9  C   UNL     1       3.306  -1.203   0.141  0.00  0.00    +0.019 C 
ATOM     10  C   UNL     1       2.262   0.706   1.330  0.00  0.00    +0.019 C 
ENDBRANCH   1   8
BRANCH   6  11
ATOM     11  C   UNL     1       2.221   3.436  -0.688  0.00  0.00    +0.100 C 
BRANCH  11  12
ATOM     12  CA  UNL     1       3.278   4.205   0.109  0.00  0.00    +0.112 C 
BRANCH  12  13
ATOM     13  N   UNL     1       4.390   4.672  -0.809  0.00  0.00    +0.225 N 
ATOM     14  H1  UNL     1       4.674   3.962  -1.514  0.00  0.00    +0.200 HD
ATOM     15  H2  UNL     1       5.152   5.083  -0.272  0.00  0.00    +0.200 HD
ATOM     16  H3  UNL     1       4.004   5.419  -1.395  0.00  0.00    +0.200 HD
ENDBRANCH  12  13
BRANCH  12  17
ATOM     17  C   UNL     1       2.702   5.396   0.928  0.00  0.00    +0.090 C 
ATOM     18  OXT UNL     1       3.536   6.359   1.017  0.00  0.00    -0.544 OA
ATOM     19  O   UNL     1       1.539   5.288   1.378  0.00  0.00    -0.544 OA
ENDBRANCH  12  17
ENDBRANCH  11  12
ENDBRANCH   6  11
TORSDOF 5
