REMARK  Name = 
REMARK  5 active torsions:
REMARK  status: ('A' for Active; 'I' for Inactive)
REMARK    1  A    between atoms: O_1  and  C_2
REMARK    2  A    between atoms: N_5  and  S_8
REMARK    3  A    between atoms: S_8  and  C_11
REMARK    4  A    between atoms: C_29  and  C_30
REMARK    5  A    between atoms: C_29  and  O_31
REMARK                            x       y       z     vdW  Elec       q    Type
REMARK                         _______ _______ _______ _____ _____    ______ ____
ROOT
ATOM      1  C   UNL     1       5.482   0.148  -4.047  0.00  0.00    +0.106 A 
ATOM      2  C   UNL     1       5.869  -0.120  -5.367  0.00  0.00    +0.030 A 
ATOM      3  C   UNL     1       6.075   0.943  -6.262  0.00  0.00    +0.026 A 
ATOM      4  C   UNL     1       5.817   2.231  -5.815  0.00  0.00    +0.042 A 
ATOM      5  N   UNL     1       5.882   3.416  -6.548  0.00  0.00    -0.281 N 
ATOM      6  H   UNL     1       6.145   3.494  -7.520  0.00  0.00    +0.155 HD
ATOM      7  C   UNL     1       5.482   4.510  -5.787  0.00  0.00    +0.250 C 
ATOM      8  C   UNL     1       5.137   3.943  -4.433  0.00  0.00    +0.066 C 
ATOM      9  C   UNL     1       4.615   4.679  -3.429  0.00  0.00    +0.057 C 
ATOM     10  C   UNL     1       4.183   4.135  -2.039  0.00  0.00    +0.128 C 
ATOM     11  C   UNL     1       2.952   3.221  -2.074  0.00  0.00    +0.053 C 
ATOM     12  C   UNL     1       3.768   5.397  -1.314  0.00  0.00    +0.010 A 
ATOM     13  C   UNL     1       3.302   5.528  -0.014  0.00  0.00    +0.008 A 
ATOM     14  C   UNL     1       2.816   6.771   0.372  0.00  0.00    +0.000 A 
ATOM     15  C   UNL     1       2.829   7.847  -0.532  0.00  0.00    +0.002 A 
ATOM     16  C   UNL     1       3.345   7.704  -1.831  0.00  0.00    +0.023 A 
ATOM     17  C   UNL     1       3.812   6.466  -2.217  0.00  0.00    +0.038 A 
ATOM     18  N   UNL     1       4.354   6.051  -3.430  0.00  0.00    -0.314 N 
ATOM     19  H   UNL     1       4.435   6.612  -4.270  0.00  0.00    +0.152 HD
ATOM     20  O   UNL     1       5.407   5.670  -6.145  0.00  0.00    -0.270 OA
ATOM     21  C   UNL     1       5.409   2.500  -4.509  0.00  0.00    +0.012 A 
ATOM     22  C   UNL     1       5.295   1.462  -3.610  0.00  0.00    +0.039 A 
ENDROOT
BRANCH   1  23
ATOM     23  S   UNL     1       5.015  -1.150  -2.915  0.00  0.00    +0.061 S 
ATOM     24  O   UNL     1       4.038  -0.595  -2.006  0.00  0.00    -0.153 OA
ATOM     25  O   UNL     1       4.689  -2.321  -3.705  0.00  0.00    -0.153 OA
BRANCH  23  29
ATOM     26  C   UNL     1       6.336  -0.896   0.831  0.00  0.00    +0.117 C 
ATOM     27  C   UNL     1       5.666  -2.140   0.247  0.00  0.00    +0.048 C 
ATOM     28  C   UNL     1       6.317  -2.603  -1.057  0.00  0.00    +0.112 C 
ATOM     29  N   UNL     1       6.436  -1.488  -2.043  0.00  0.00    -0.176 NA
ATOM     30  C   UNL     1       7.222  -0.372  -1.462  0.00  0.00    +0.112 C 
ATOM     31  C   UNL     1       6.568   0.193  -0.210  0.00  0.00    +0.048 C 
BRANCH  26  32
ATOM     32  O   UNL     1       7.589  -1.275   1.401  0.00  0.00    -0.392 OA
ATOM     33  H   UNL     1       7.872  -0.546   1.983  0.00  0.00    +0.210 HD
ENDBRANCH  26  32
ENDBRANCH  23  29
ENDBRANCH   1  23
BRANCH  10  34
ATOM     34  O   UNL     1       5.295   3.575  -1.353  0.00  0.00    -0.378 OA
ATOM     35  H   UNL     1       5.942   4.301  -1.283  0.00  0.00    +0.211 HD
ENDBRANCH  10  34
TORSDOF 4
