REMARK  Name = 
REMARK  16 active torsions:
REMARK  status: ('A' for Active; 'I' for Inactive)
REMARK    1  A    between atoms: O_1  and  C_2
REMARK    2  A    between atoms: C_2  and  C_3
REMARK    3  A    between atoms: C_6  and  O_8
REMARK    4  A    between atoms: O_8  and  P_9
REMARK    5  A    between atoms: P_9  and  O_10
REMARK    6  A    between atoms: P_9  and  O_12
REMARK    7  A    between atoms: O_12  and  P_13
REMARK    8  A    between atoms: P_13  and  O_14
REMARK    9  A    between atoms: P_13  and  O_16
REMARK   10  A    between atoms: O_16  and  C_17
REMARK   11  A    between atoms: C_17  and  C_18
REMARK   12  A    between atoms: C_21  and  N_29
REMARK   13  A    between atoms: C_23  and  O_25
REMARK   14  A    between atoms: C_26  and  O_28
REMARK   15  A    between atoms: C_40  and  O_42
REMARK   16  A    between atoms: C_43  and  O_45
REMARK                            x       y       z     vdW  Elec       q    Type
REMARK                         _______ _______ _______ _____ _____    ______ ____
ROOT
ATOM      1  P   UNL     1      11.098  -6.504  -6.553  0.00  0.00    +0.483 P 
ATOM      2  O   UNL     1      10.744  -6.429  -8.010  0.00  0.00    -0.227 OA
ENDROOT
BRANCH   1   3
ATOM      3  O   UNL     1      11.645  -5.084  -6.038  0.00  0.00    -0.302 OA
ATOM      4  H   UNL     1      11.856  -4.496  -6.789  0.00  0.00    +0.222 HD
ENDBRANCH   1   3
BRANCH   1   5
ATOM      5  O   UNL     1      12.318  -7.445  -6.179  0.00  0.00    -0.186 OA
BRANCH   5   6
ATOM      6  P   UNL     1      12.375  -9.022  -6.083  0.00  0.00    +0.486 P 
ATOM      7  O   UNL     1      13.706  -9.634  -6.312  0.00  0.00    -0.227 OA
BRANCH   6   8
ATOM      8  O   UNL     1      11.259  -9.539  -7.102  0.00  0.00    -0.302 OA
ATOM      9  H   UNL     1      11.673  -9.996  -7.853  0.00  0.00    +0.222 HD
ENDBRANCH   6   8
BRANCH   6  10
ATOM     10  O   UNL     1      11.769  -9.280  -4.649  0.00  0.00    -0.253 OA
BRANCH  10  16
ATOM     11  C   UNL     1      11.358  -8.954  -1.796  0.00  0.00    +0.178 C 
ATOM     12  C   UNL     1      12.740  -8.706  -1.201  0.00  0.00    +0.177 C 
ATOM     13  C   UNL     1      13.834  -8.829  -2.283  0.00  0.00    +0.184 C 
ATOM     14  C   UNL     1      13.640 -10.058  -3.180  0.00  0.00    +0.253 C 
ATOM     15  F   UNL     1      13.969 -11.167  -2.448  0.00  0.00    -0.237 F 
ATOM     16  C   UNL     1      12.201 -10.226  -3.693  0.00  0.00    +0.298 C 
ATOM     17  O   UNL     1      11.307 -10.174  -2.574  0.00  0.00    -0.340 OA
BRANCH  12  18
ATOM     18  O   UNL     1      12.949  -9.645  -0.145  0.00  0.00    -0.386 OA
ATOM     19  H   UNL     1      13.857  -9.532   0.182  0.00  0.00    +0.210 HD
ENDBRANCH  12  18
BRANCH  13  20
ATOM     20  O   UNL     1      13.986  -7.612  -3.027  0.00  0.00    -0.386 OA
ATOM     21  H   UNL     1      13.536  -7.675  -3.888  0.00  0.00    +0.210 HD
ENDBRANCH  13  20
BRANCH  11  22
ATOM     22  C   UNL     1      10.969  -7.709  -2.581  0.00  0.00    +0.190 C 
BRANCH  22  23
ATOM     23  O   UNL     1       9.889  -8.020  -3.411  0.00  0.00    -0.392 OA
ATOM     24  H   UNL     1       9.944  -7.375  -4.131  0.00  0.00    +0.210 HD
ENDBRANCH  22  23
ENDBRANCH  11  22
ENDBRANCH  10  16
ENDBRANCH   6  10
ENDBRANCH   5   6
ENDBRANCH   1   5
BRANCH   1  25
ATOM     25  O   UNL     1       9.883  -6.737  -5.521  0.00  0.00    -0.284 OA
BRANCH  25  26
ATOM     26  C   UNL     1       8.630  -7.239  -6.000  0.00  0.00    +0.206 C 
BRANCH  26  27
ATOM     27  C   UNL     1       7.418  -6.957  -5.052  0.00  0.00    +0.178 C 
ATOM     28  C   UNL     1       7.263  -7.717  -3.707  0.00  0.00    +0.178 C 
ATOM     29  C   UNL     1       7.508  -6.651  -2.610  0.00  0.00    +0.195 C 
ATOM     30  C   UNL     1       8.051  -5.457  -3.409  0.00  0.00    +0.255 C 
ATOM     31  O   UNL     1       7.432  -5.549  -4.708  0.00  0.00    -0.346 OA
BRANCH  30  32
ATOM     32  N   UNL     1       7.771  -4.178  -2.771  0.00  0.00    -0.271 N 
ATOM     33  C   UNL     1       8.593  -3.817  -1.711  0.00  0.00    +0.331 A 
ATOM     34  O   UNL     1       9.476  -4.552  -1.261  0.00  0.00    -0.246 OA
ATOM     35  N   UNL     1       8.356  -2.589  -1.159  0.00  0.00    -0.275 N 
ATOM     36  H   UNL     1       8.950  -2.307  -0.397  0.00  0.00    +0.173 HD
ATOM     37  C   UNL     1       7.340  -1.750  -1.502  0.00  0.00    +0.254 A 
ATOM     38  O   UNL     1       7.140  -0.677  -0.945  0.00  0.00    -0.268 OA
ATOM     39  C   UNL     1       6.453  -2.223  -2.578  0.00  0.00    +0.088 A 
ATOM     40  C   UNL     1       6.704  -3.396  -3.151  0.00  0.00    +0.098 A 
ENDBRANCH  30  32
BRANCH  29  41
ATOM     41  O   UNL     1       8.312  -7.076  -1.511  0.00  0.00    -0.385 OA
ATOM     42  H   UNL     1       8.797  -6.298  -1.162  0.00  0.00    +0.210 HD
ENDBRANCH  29  41
BRANCH  28  43
ATOM     43  O   UNL     1       5.900  -8.199  -3.630  0.00  0.00    -0.386 OA
ATOM     44  H   UNL     1       5.446  -7.760  -2.891  0.00  0.00    +0.210 HD
ENDBRANCH  28  43
ENDBRANCH  26  27
ENDBRANCH  25  26
ENDBRANCH   1  25
TORSDOF 16
