REMARK  Name = 
REMARK  2 active torsions:
REMARK  status: ('A' for Active; 'I' for Inactive)
REMARK    1  A    between atoms: N_1  and  C_2
REMARK    2  A    between atoms: C_3  and  N_4
REMARK                            x       y       z     vdW  Elec       q    Type
REMARK                         _______ _______ _______ _____ _____    ______ ____
ROOT
ATOM      1  C   UNL     1       2.488   0.090  -0.018  0.00  0.00    +0.124 A 
ATOM      2  N   UNL     1       3.236  -1.048  -0.082  0.00  0.00    -0.295 N 
ATOM      3  H   UNL     1       2.775  -1.937  -0.208  0.00  0.00    +0.172 HD
ATOM      4  C   UNL     1       4.595  -1.097  -0.008  0.00  0.00    +0.328 A 
ATOM      5  O   UNL     1       5.210  -2.157  -0.068  0.00  0.00    -0.247 OA
ATOM      6  N   UNL     1       5.230   0.098   0.131  0.00  0.00    -0.273 N 
ATOM      7  H   UNL     1       6.237   0.093   0.136  0.00  0.00    +0.173 HD
ATOM      8  C   UNL     1       4.601   1.308   0.143  0.00  0.00    +0.277 A 
ATOM      9  O   UNL     1       5.219   2.371   0.141  0.00  0.00    -0.266 OA
ATOM     10  C   UNL     1       3.096   1.289   0.121  0.00  0.00    +0.128 A 
ENDROOT
BRANCH   1  11
ATOM     11  N   UNL     1       1.112  -0.021  -0.075  0.00  0.00    -0.343 N 
ATOM     12  H   UNL     1       0.779  -0.893   0.324  0.00  0.00    +0.144 HD
ATOM     13  H   UNL     1       0.667   0.778   0.378  0.00  0.00    +0.144 HD
ENDBRANCH   1  11
BRANCH  10  14
ATOM     14  N   UNL     1       2.434   2.515   0.195  0.00  0.00    -0.351 N 
ATOM     15  H   UNL     1       3.094   3.271  -0.010  0.00  0.00    +0.143 HD
ATOM     16  H   UNL     1       1.637   2.537  -0.437  0.00  0.00    +0.143 HD
ENDBRANCH  10  14
TORSDOF 2
