REMARK  Name = 
REMARK  9 active torsions:
REMARK  status: ('A' for Active; 'I' for Inactive)
REMARK    1  A    between atoms: N_1  and  CA_2
REMARK    2  A    between atoms: CA_2  and  C_4
REMARK    3  A    between atoms: CA_2  and  C_11
REMARK    4  A    between atoms: C_4  and  C_5
REMARK    5  A    between atoms: C_5  and  C_6
REMARK    6  A    between atoms: C_6  and  C_7
REMARK    7  A    between atoms: C_7  and  C_8
REMARK    8  A    between atoms: C_8  and  O_9
REMARK    9  A    between atoms: C_11  and  O_12
REMARK                            x       y       z     vdW  Elec       q    Type
REMARK                         _______ _______ _______ _____ _____    ______ ____
ROOT
ATOM      1  CA  UNL     1       2.353   0.051  -0.012  0.00  0.00    +0.161 C 
ENDROOT
BRANCH   1   2
ATOM      2  N   UNL     1       2.833  -1.365  -0.055  0.00  0.00    -0.318 NA
ATOM      3  H1  UNL     1       2.910  -1.669  -1.028  0.00  0.00    +0.119 HD
ATOM      4  H2  UNL     1       3.804  -1.365   0.274  0.00  0.00    +0.119 HD
ENDBRANCH   1   2
BRANCH   1   5
ATOM      5  C   UNL     1       0.814   0.058   0.038  0.00  0.00    +0.322 C 
ATOM      6  OXT UNL     1       0.110   1.055   0.011  0.00  0.00    -0.249 OA
BRANCH   5   7
ATOM      7  O   UNL     1       0.320  -1.206   0.105  0.00  0.00    -0.480 OA
ATOM      8  H   UNL     1       1.114  -1.795   0.161  0.00  0.00    +0.295 HD
ENDBRANCH   5   7
ENDBRANCH   1   5
BRANCH   1   9
ATOM      9  C   UNL     1       2.879   0.893  -1.183  0.00  0.00    +0.030 C 
BRANCH   9  10
ATOM     10  C   UNL     1       2.411   0.416  -2.565  0.00  0.00    +0.003 C 
BRANCH  10  11
ATOM     11  C   UNL     1       2.939   1.310  -3.687  0.00  0.00    +0.011 C 
BRANCH  11  12
ATOM     12  C   UNL     1       2.471   0.799  -5.050  0.00  0.00    +0.120 C 
BRANCH  12  13
ATOM     13  C   UNL     1       2.996   1.643  -6.186  0.00  0.00    +0.305 C 
ATOM     14  O   UNL     1       3.729   2.612  -6.066  0.00  0.00    -0.251 OA
BRANCH  13  15
ATOM     15  O   UNL     1       2.572   1.199  -7.392  0.00  0.00    -0.481 OA
ATOM     16  H   UNL     1       1.989   0.418  -7.343  0.00  0.00    +0.295 HD
ENDBRANCH  13  15
ENDBRANCH  12  13
ENDBRANCH  11  12
ENDBRANCH  10  11
ENDBRANCH   9  10
ENDBRANCH   1   9
TORSDOF 9
