REMARK  Name = 
REMARK  31 active torsions:
REMARK  status: ('A' for Active; 'I' for Inactive)
REMARK    1  A    between atoms: C_1  and  C_2
REMARK    2  A    between atoms: C_2  and  C_3
REMARK    3  A    between atoms: C_3  and  C_4
REMARK    4  A    between atoms: C_4  and  C_5
REMARK    5  A    between atoms: C_5  and  C_7
REMARK    6  A    between atoms: C_5  and  C_36
REMARK    7  A    between atoms: C_7  and  N_8
REMARK    8  A    between atoms: N_8  and  N_9
REMARK    9  A    between atoms: N_9  and  C_10
REMARK   10  A    between atoms: C_10  and  C_11
REMARK   11  A    between atoms: C_11  and  C_13
REMARK   12  A    between atoms: C_11  and  C_17
REMARK   13  A    between atoms: C_13  and  C_14
REMARK   14  A    between atoms: C_14  and  C_15
REMARK   15  A    between atoms: C_15  and  C_16
REMARK   16  A    between atoms: N_19  and  C_20
REMARK   17  A    between atoms: C_20  and  C_22
REMARK   18  A    between atoms: C_20  and  C_27
REMARK   19  A    between atoms: C_22  and  C_23
REMARK   20  A    between atoms: C_23  and  C_24
REMARK   21  A    between atoms: C_24  and  C_25
REMARK   22  A    between atoms: C_25  and  N_26
REMARK   23  A    between atoms: N_29  and  C_30
REMARK   24  A    between atoms: N_38  and  C_39
REMARK   25  A    between atoms: C_39  and  C_41
REMARK   26  A    between atoms: C_39  and  C_46
REMARK   27  A    between atoms: C_41  and  C_42
REMARK   28  A    between atoms: C_42  and  C_43
REMARK   29  A    between atoms: C_43  and  C_44
REMARK   30  A    between atoms: C_44  and  N_45
REMARK   31  A    between atoms: N_48  and  C_49
REMARK                            x       y       z     vdW  Elec       q    Type
REMARK                         _______ _______ _______ _____ _____    ______ ____
ROOT
ATOM      1  N   UNL     1       6.622   0.485   0.057  0.00  0.00    -0.256 NA
ATOM      2  H   UNL     1       6.484   0.041  -0.858  0.00  0.00    +0.141 HD
ENDROOT
BRANCH   1   3
ATOM      3  N   UNL     1       5.357   0.935   0.613  0.00  0.00    -0.256 NA
ATOM      4  H   UNL     1       5.524   1.388   1.520  0.00  0.00    +0.141 HD
BRANCH   3   5
ATOM      5  C   UNL     1       4.756   1.970  -0.257  0.00  0.00    +0.111 C 
BRANCH   5   6
ATOM      6  C   UNL     1       4.330   1.497  -1.660  0.00  0.00    +0.090 C 
BRANCH   6   7
ATOM      7  C   UNL     1       3.815   2.694  -2.465  0.00  0.00    +0.218 C 
ATOM      8  N   UNL     1       3.665   2.445  -3.803  0.00  0.00    -0.304 N 
ATOM      9  H   UNL     1       3.962   1.548  -4.185  0.00  0.00    +0.149 HD
ATOM     10  O   UNL     1       3.537   3.779  -1.965  0.00  0.00    -0.275 OA
BRANCH   8  11
ATOM     11  C   UNL     1       3.046   3.367  -4.766  0.00  0.00    +0.159 C 
BRANCH  11  12
ATOM     12  C   UNL     1       2.779   2.480  -6.008  0.00  0.00    +0.238 C 
ATOM     13  N   UNL     1       1.976   3.048  -6.980  0.00  0.00    -0.284 N 
ATOM     14  H   UNL     1       1.572   3.955  -6.784  0.00  0.00    +0.155 HD
ATOM     15  O   UNL     1       3.311   1.369  -6.087  0.00  0.00    -0.273 OA
BRANCH  13  16
ATOM     16  C   UNL     1       1.719   2.532  -8.270  0.00  0.00    +0.033 A 
ATOM     17  C   UNL     1       1.113   3.382  -9.205  0.00  0.00    +0.023 A 
ATOM     18  C   UNL     1       0.800   2.919 -10.486  0.00  0.00    +0.002 A 
ATOM     19  C   UNL     1       1.079   1.601 -10.840  0.00  0.00    +0.000 A 
ATOM     20  C   UNL     1       1.701   0.759  -9.925  0.00  0.00    +0.002 A 
ATOM     21  C   UNL     1       2.029   1.225  -8.651  0.00  0.00    +0.023 A 
ENDBRANCH  13  16
ENDBRANCH  11  12
BRANCH  11  22
ATOM     22  C   UNL     1       3.985   4.549  -5.076  0.00  0.00    +0.032 C 
BRANCH  22  23
ATOM     23  C   UNL     1       3.388   5.608  -6.013  0.00  0.00    +0.003 C 
BRANCH  23  24
ATOM     24  C   UNL     1       4.319   6.781  -6.326  0.00  0.00    +0.015 C 
BRANCH  24  25
ATOM     25  C   UNL     1       5.590   6.323  -7.042  0.00  0.00    +0.077 C 
BRANCH  25  26
ATOM     26  N   UNL     1       6.388   7.466  -7.460  0.00  0.00    -0.330 NA
ATOM     27  H   UNL     1       7.227   7.129  -7.931  0.00  0.00    +0.118 HD
ATOM     28  H   UNL     1       5.874   8.010  -8.152  0.00  0.00    +0.118 HD
ENDBRANCH  25  26
ENDBRANCH  24  25
ENDBRANCH  23  24
ENDBRANCH  22  23
ENDBRANCH  11  22
ENDBRANCH   8  11
ENDBRANCH   6   7
BRANCH   6  29
ATOM     29  C   UNL     1       3.348   0.302  -1.650  0.00  0.00    +0.014 C 
BRANCH  29  30
ATOM     30  C   UNL     1       2.013   0.470  -0.907  0.00  0.00    +0.001 C 
BRANCH  30  31
ATOM     31  C   UNL     1       1.066   1.493  -1.533  0.00  0.00    -0.003 C 
ATOM     32  C   UNL     1      -0.258   1.579  -0.794  0.00  0.00    +0.004 C 
ENDBRANCH  30  31
ENDBRANCH  29  30
ENDBRANCH   6  29
ENDBRANCH   5   6
ENDBRANCH   3   5
ENDBRANCH   1   3
BRANCH   1  33
ATOM     33  C   UNL     1       7.204  -0.518   0.966  0.00  0.00    +0.111 C 
BRANCH  33  34
ATOM     34  C   UNL     1       8.528  -1.108   0.431  0.00  0.00    +0.090 C 
BRANCH  34  35
ATOM     35  C   UNL     1       8.218  -2.038  -0.762  0.00  0.00    +0.218 C 
ATOM     36  N   UNL     1       7.437  -3.135  -0.432  0.00  0.00    -0.304 N 
ATOM     37  H   UNL     1       7.318  -3.358   0.547  0.00  0.00    +0.149 HD
ATOM     38  O   UNL     1       8.633  -1.859  -1.902  0.00  0.00    -0.275 OA
BRANCH  36  39
ATOM     39  C   UNL     1       6.923  -4.126  -1.397  0.00  0.00    +0.159 C 
BRANCH  39  40
ATOM     40  C   UNL     1       7.995  -5.152  -1.841  0.00  0.00    +0.238 C 
ATOM     41  N   UNL     1       9.261  -4.640  -2.020  0.00  0.00    -0.284 N 
ATOM     42  H   UNL     1       9.310  -3.658  -2.287  0.00  0.00    +0.155 HD
ATOM     43  O   UNL     1       7.691  -6.310  -2.139  0.00  0.00    -0.273 OA
BRANCH  41  44
ATOM     44  C   UNL     1      10.366  -5.463  -2.282  0.00  0.00    +0.033 A 
ATOM     45  C   UNL     1      10.514  -6.710  -1.659  0.00  0.00    +0.023 A 
ATOM     46  C   UNL     1      11.608  -7.519  -1.955  0.00  0.00    +0.002 A 
ATOM     47  C   UNL     1      12.538  -7.099  -2.899  0.00  0.00    +0.000 A 
ATOM     48  C   UNL     1      12.400  -5.851  -3.513  0.00  0.00    +0.002 A 
ATOM     49  C   UNL     1      11.329  -5.021  -3.183  0.00  0.00    +0.023 A 
ENDBRANCH  41  44
ENDBRANCH  39  40
BRANCH  39  50
ATOM     50  C   UNL     1       5.787  -4.979  -0.778  0.00  0.00    +0.032 C 
BRANCH  50  51
ATOM     51  C   UNL     1       4.545  -4.252  -0.274  0.00  0.00    +0.003 C 
BRANCH  51  52
ATOM     52  C   UNL     1       3.739  -3.531  -1.353  0.00  0.00    +0.015 C 
BRANCH  52  53
ATOM     53  C   UNL     1       3.211  -4.470  -2.440  0.00  0.00    +0.077 C 
BRANCH  53  54
ATOM     54  N   UNL     1       2.394  -3.732  -3.393  0.00  0.00    -0.330 NA
ATOM     55  H   UNL     1       2.142  -4.348  -4.166  0.00  0.00    +0.118 HD
ATOM     56  H   UNL     1       1.516  -3.458  -2.954  0.00  0.00    +0.118 HD
ENDBRANCH  53  54
ENDBRANCH  52  53
ENDBRANCH  51  52
ENDBRANCH  50  51
ENDBRANCH  39  50
ENDBRANCH  36  39
ENDBRANCH  34  35
BRANCH  34  57
ATOM     57  C   UNL     1       9.604  -0.017   0.151  0.00  0.00    +0.014 C 
BRANCH  57  58
ATOM     58  C   UNL     1       9.974   0.764   1.432  0.00  0.00    +0.001 C 
BRANCH  58  60
ATOM     59  C   UNL     1      10.556   3.030   0.392  0.00  0.00    +0.004 C 
ATOM     60  C   UNL     1      11.010   1.883   1.282  0.00  0.00    -0.003 C 
ENDBRANCH  58  60
ENDBRANCH  57  58
ENDBRANCH  34  57
ENDBRANCH  33  34
ENDBRANCH   1  33
TORSDOF 29
