REMARK  Name = 
REMARK  13 active torsions:
REMARK  status: ('A' for Active; 'I' for Inactive)
REMARK    1  A    between atoms: O_1  and  C_2
REMARK    2  A    between atoms: C_2  and  C_3
REMARK    3  A    between atoms: C_3  and  O_5
REMARK    4  A    between atoms: C_3  and  C_6
REMARK    5  A    between atoms: C_6  and  O_8
REMARK    6  A    between atoms: C_6  and  C_9
REMARK    7  A    between atoms: C_9  and  O_11
REMARK    8  A    between atoms: C_9  and  C_12
REMARK    9  A    between atoms: C_12  and  N_13
REMARK   10  A    between atoms: C_16  and  C_17
REMARK   11  A    between atoms: C_17  and  C_18
REMARK   12  A    between atoms: C_18  and  C_19
REMARK   13  A    between atoms: C_19  and  O_20
REMARK                            x       y       z     vdW  Elec       q    Type
REMARK                         _______ _______ _______ _____ _____    ______ ____
ROOT
ATOM      1  N   UNL     1       6.885   3.492  -2.493  0.00  0.00    -0.289 N 
ATOM      2  C   UNL     1       6.615   4.830  -2.175  0.00  0.00    +0.149 A 
ATOM      3  N   UNL     1       5.980   5.166  -1.006  0.00  0.00    -0.292 N 
ATOM      4  H   UNL     1       5.753   4.482  -0.300  0.00  0.00    +0.172 HD
ATOM      5  C   UNL     1       5.584   6.425  -0.668  0.00  0.00    +0.328 A 
ATOM      6  N   UNL     1       5.886   7.404  -1.554  0.00  0.00    -0.273 N 
ATOM      7  H   UNL     1       5.610   8.348  -1.326  0.00  0.00    +0.173 HD
ATOM      8  C   UNL     1       6.564   7.219  -2.722  0.00  0.00    +0.282 A 
ATOM      9  O   UNL     1       6.838   8.164  -3.456  0.00  0.00    -0.265 OA
ATOM     10  O   UNL     1       4.992   6.650   0.379  0.00  0.00    -0.247 OA
ATOM     11  C   UNL     1       6.948   5.803  -3.058  0.00  0.00    +0.169 A 
ATOM     12  N   UNL     1       7.628   5.606  -4.244  0.00  0.00    -0.238 NA
ATOM     13  C   UNL     1       7.886   4.375  -4.563  0.00  0.00    +0.107 A 
ATOM     14  C   UNL     1       7.387   3.188  -3.765  0.00  0.00    +0.274 A 
ATOM     15  O   UNL     1       7.405   2.096  -4.311  0.00  0.00    -0.266 OA
ENDROOT
BRANCH   1  16
ATOM     16  C   UNL     1       6.409   2.354  -1.692  0.00  0.00    +0.161 C 
BRANCH  16  17
ATOM     17  C   UNL     1       7.514   1.467  -1.062  0.00  0.00    +0.165 C 
BRANCH  17  18
ATOM     18  O   UNL     1       8.281   0.807  -2.081  0.00  0.00    -0.387 OA
ATOM     19  H   UNL     1       9.162   0.622  -1.709  0.00  0.00    +0.210 HD
ENDBRANCH  17  18
BRANCH  17  20
ATOM     20  C   UNL     1       6.897   0.350  -0.187  0.00  0.00    +0.175 C 
BRANCH  20  21
ATOM     21  O   UNL     1       7.954  -0.501   0.293  0.00  0.00    -0.387 OA
ATOM     22  H   UNL     1       8.325  -0.940  -0.495  0.00  0.00    +0.210 HD
ENDBRANCH  20  21
BRANCH  20  23
ATOM     23  C   UNL     1       6.061   0.881   0.989  0.00  0.00    +0.171 C 
BRANCH  23  24
ATOM     24  O   UNL     1       6.806   1.846   1.745  0.00  0.00    -0.387 OA
ATOM     25  H   UNL     1       6.352   1.893   2.612  0.00  0.00    +0.210 HD
ENDBRANCH  23  24
BRANCH  23  26
ATOM     26  C   UNL     1       5.566  -0.237   1.910  0.00  0.00    +0.189 C 
BRANCH  26  27
ATOM     27  O   UNL     1       4.763   0.366   2.929  0.00  0.00    -0.392 OA
ATOM     28  H   UNL     1       4.403  -0.361   3.469  0.00  0.00    +0.210 HD
ENDBRANCH  26  27
ENDBRANCH  23  26
ENDBRANCH  20  23
ENDBRANCH  17  20
ENDBRANCH  16  17
ENDBRANCH   1  16
BRANCH  13  29
ATOM     29  C   UNL     1       8.675   4.117  -5.822  0.00  0.00    +0.072 C 
BRANCH  29  30
ATOM     30  C   UNL     1       7.775   3.867  -7.019  0.00  0.00    +0.127 C 
BRANCH  30  31
ATOM     31  C   UNL     1       6.916   4.999  -7.540  0.00  0.00    +0.305 C 
ATOM     32  O   UNL     1       6.252   4.864  -8.563  0.00  0.00    -0.251 OA
BRANCH  31  33
ATOM     33  O   UNL     1       6.881   6.148  -6.849  0.00  0.00    -0.481 OA
ATOM     34  H   UNL     1       7.353   6.220  -5.990  0.00  0.00    +0.295 HD
ENDBRANCH  31  33
ENDBRANCH  30  31
ENDBRANCH  29  30
ENDBRANCH  13  29
TORSDOF 13
