REMARK  Name = 
REMARK  18 active torsions:
REMARK  status: ('A' for Active; 'I' for Inactive)
REMARK    1  A    between atoms: C_2  and  O_3
REMARK    2  A    between atoms: C_2  and  C_4
REMARK    3  A    between atoms: C_2  and  C_31
REMARK    4  A    between atoms: C_4  and  C_5
REMARK    5  A    between atoms: C_5  and  C_6
REMARK    6  A    between atoms: C_8  and  C_10
REMARK    7  A    between atoms: C_15  and  C_17
REMARK    8  A    between atoms: C_19  and  O_21
REMARK    9  A    between atoms: O_21  and  C_22
REMARK   10  A    between atoms: C_22  and  C_24
REMARK   11  A    between atoms: C_24  and  C_26
REMARK   12  A    between atoms: C_24  and  C_27
REMARK   13  A    between atoms: C_27  and  C_28
REMARK   14  A    between atoms: C_31  and  C_32
REMARK   15  A    between atoms: C_32  and  O_34
REMARK   16  A    between atoms: C_32  and  C_35
REMARK   17  A    between atoms: C_35  and  C_36
REMARK   18  A    between atoms: C_36  and  O_37
REMARK                            x       y       z     vdW  Elec       q    Type
REMARK                         _______ _______ _______ _____ _____    ______ ____
ROOT
ATOM      1  C   UNL     1       2.541   3.556   1.374  0.00  0.00    +0.007 C 
ATOM      2  C   UNL     1       2.387   4.880   0.538  0.00  0.00    +0.063 C 
ATOM      3  C   UNL     1       2.730   6.057   1.484  0.00  0.00    -0.044 C 
ATOM      4  C   UNL     1       2.036   7.206   1.510  0.00  0.00    -0.020 C 
ATOM      5  C   UNL     1       0.799   7.425   0.692  0.00  0.00    +0.012 C 
ATOM      6  C   UNL     1       0.120   6.089   0.382  0.00  0.00    +0.052 C 
ATOM      7  C   UNL     1      -0.164   8.354   1.420  0.00  0.00    +0.012 C 
ATOM      8  C   UNL     1       3.813   5.899   2.440  0.00  0.00    -0.000 C 
ATOM      9  C   UNL     1       4.410   4.721   2.647  0.00  0.00    -0.023 C 
ATOM     10  C   UNL     1       1.100   5.160  -0.337  0.00  0.00    +0.185 C 
ATOM     11  C   UNL     1       4.033   3.491   1.871  0.00  0.00    +0.012 C 
ATOM     12  C   UNL     1       5.105   3.370   0.776  0.00  0.00    +0.012 C 
ENDROOT
BRANCH   1  13
ATOM     13  C   UNL     1       2.036   2.266   0.690  0.00  0.00    +0.007 C 
BRANCH  13  14
ATOM     14  C   UNL     1       2.010   0.967   1.511  0.00  0.00    +0.032 C 
BRANCH  14  15
ATOM     15  C   UNL     1       3.325   0.226   1.747  0.00  0.00    +0.117 C 
BRANCH  15  16
ATOM     16  O   UNL     1       3.043  -1.052   2.312  0.00  0.00    -0.392 OA
ATOM     17  H   UNL     1       2.908  -0.910   3.268  0.00  0.00    +0.210 HD
ENDBRANCH  15  16
BRANCH  15  18
ATOM     18  C   UNL     1       4.225   0.044   0.529  0.00  0.00    +0.063 C 
BRANCH  18  19
ATOM     19  C   UNL     1       3.806  -0.952  -0.548  0.00  0.00    +0.128 C 
BRANCH  19  20
ATOM     20  O   UNL     1       2.496  -0.651  -1.045  0.00  0.00    -0.391 OA
ATOM     21  H   UNL     1       1.873  -1.013  -0.383  0.00  0.00    +0.210 HD
ENDBRANCH  19  20
BRANCH  19  22
ATOM     22  C   UNL     1       4.777  -0.828  -1.725  0.00  0.00    +0.151 C 
BRANCH  22  23
ATOM     23  C   UNL     1       4.469  -1.806  -2.824  0.00  0.00    +0.307 C 
ATOM     24  O   UNL     1       5.332  -2.445  -3.412  0.00  0.00    -0.251 OA
BRANCH  23  25
ATOM     25  O   UNL     1       3.164  -1.853  -3.174  0.00  0.00    -0.481 OA
ATOM     26  H   UNL     1       2.628  -1.270  -2.581  0.00  0.00    +0.295 HD
ENDBRANCH  23  25
ENDBRANCH  22  23
ENDBRANCH  19  22
ENDBRANCH  18  19
ENDBRANCH  15  18
ENDBRANCH  14  15
ENDBRANCH  13  14
ENDBRANCH   1  13
BRANCH  10  27
ATOM     27  O   UNL     1       0.402   3.971  -0.768  0.00  0.00    -0.461 OA
BRANCH  27  28
ATOM     28  C   UNL     1      -0.405   4.038  -1.861  0.00  0.00    +0.310 C 
ATOM     29  O   UNL     1      -0.587   5.046  -2.535  0.00  0.00    -0.251 OA
BRANCH  28  30
ATOM     30  C   UNL     1      -1.055   2.683  -2.142  0.00  0.00    +0.094 C 
ATOM     31  C   UNL     1      -2.578   2.816  -2.106  0.00  0.00    +0.019 C 
BRANCH  30  32
ATOM     32  C   UNL     1      -0.618   2.134  -3.508  0.00  0.00    +0.011 C 
ATOM     33  C   UNL     1       0.868   1.817  -3.577  0.00  0.00    +0.004 C 
ENDBRANCH  30  32
ENDBRANCH  28  30
ENDBRANCH  27  28
ENDBRANCH  10  27
TORSDOF 14
