REMARK  Name = 
REMARK  18 active torsions:
REMARK  status: ('A' for Active; 'I' for Inactive)
REMARK    1  A    between atoms: C_1  and  C_2
REMARK    2  A    between atoms: C_2  and  O_4
REMARK    3  A    between atoms: O_4  and  C_5
REMARK    4  A    between atoms: C_7  and  O_9
REMARK    5  A    between atoms: C_11  and  C_13
REMARK    6  A    between atoms: C_13  and  O_14
REMARK    7  A    between atoms: O_14  and  P_15
REMARK    8  A    between atoms: P_15  and  O_16
REMARK    9  A    between atoms: P_15  and  O_18
REMARK   10  A    between atoms: O_18  and  P_19
REMARK   11  A    between atoms: P_19  and  O_20
REMARK   12  A    between atoms: P_19  and  O_22
REMARK   13  A    between atoms: O_22  and  C_23
REMARK   14  A    between atoms: C_23  and  C_24
REMARK   15  A    between atoms: C_27  and  N_35
REMARK   16  A    between atoms: C_29  and  O_31
REMARK   17  A    between atoms: C_32  and  O_34
REMARK   18  A    between atoms: C_45  and  O_47
REMARK                            x       y       z     vdW  Elec       q    Type
REMARK                         _______ _______ _______ _____ _____    ______ ____
ROOT
ATOM      1  P   UNL     1      16.093   1.720  -3.760  0.00  0.00    +0.483 P 
ATOM      2  O   UNL     1      15.215   2.533  -4.649  0.00  0.00    -0.227 OA
ENDROOT
BRANCH   1   3
ATOM      3  O   UNL     1      17.407   2.501  -3.277  0.00  0.00    -0.302 OA
ATOM      4  H   UNL     1      17.901   2.877  -4.029  0.00  0.00    +0.222 HD
ENDBRANCH   1   3
BRANCH   1   5
ATOM      5  O   UNL     1      16.690   0.379  -4.341  0.00  0.00    -0.186 OA
BRANCH   5   6
ATOM      6  P   UNL     1      16.343  -0.214  -5.766  0.00  0.00    +0.483 P 
ATOM      7  O   UNL     1      16.328   0.754  -6.902  0.00  0.00    -0.227 OA
BRANCH   6   8
ATOM      8  O   UNL     1      14.932  -0.941  -5.572  0.00  0.00    -0.302 OA
ATOM      9  H   UNL     1      14.250  -0.527  -6.134  0.00  0.00    +0.222 HD
ENDBRANCH   6   8
BRANCH   6  10
ATOM     10  O   UNL     1      17.367  -1.433  -5.978  0.00  0.00    -0.284 OA
BRANCH  10  11
ATOM     11  C   UNL     1      18.579  -1.171  -6.683  0.00  0.00    +0.206 C 
BRANCH  11  14
ATOM     12  C   UNL     1      21.781  -0.431  -5.994  0.00  0.00    +0.263 C 
ATOM     13  C   UNL     1      20.711   0.222  -6.859  0.00  0.00    +0.191 C 
ATOM     14  C   UNL     1      19.414  -0.032  -6.079  0.00  0.00    +0.180 C 
ATOM     15  O   UNL     1      19.791  -0.350  -4.719  0.00  0.00    -0.340 OA
ATOM     16  C   UNL     1      21.206  -0.156  -4.603  0.00  0.00    +0.292 C 
BRANCH  16  17
ATOM     17  O   UNL     1      21.448   1.203  -4.248  0.00  0.00    -0.364 OA
ATOM     18  H   UNL     1      21.841   1.177  -3.356  0.00  0.00    +0.213 HD
ENDBRANCH  16  17
BRANCH  13  19
ATOM     19  O   UNL     1      20.939   1.639  -6.939  0.00  0.00    -0.385 OA
ATOM     20  H   UNL     1      21.024   1.970  -6.017  0.00  0.00    +0.210 HD
ENDBRANCH  13  19
BRANCH  12  21
ATOM     21  O   UNL     1      21.842  -1.844  -6.263  0.00  0.00    -0.454 OA
BRANCH  21  23
ATOM     22  C   UNL     1      22.768  -3.962  -5.817  0.00  0.00    +0.136 C 
ATOM     23  C   UNL     1      22.856  -2.482  -5.613  0.00  0.00    +0.304 C 
ATOM     24  O   UNL     1      23.695  -1.928  -4.916  0.00  0.00    -0.251 OA
ENDBRANCH  21  23
ENDBRANCH  12  21
ENDBRANCH  11  14
ENDBRANCH  10  11
ENDBRANCH   6  10
ENDBRANCH   5   6
ENDBRANCH   1   5
BRANCH   1  25
ATOM     25  O   UNL     1      15.429   1.283  -2.364  0.00  0.00    -0.284 OA
BRANCH  25  26
ATOM     26  C   UNL     1      14.543   2.208  -1.756  0.00  0.00    +0.206 C 
BRANCH  26  27
ATOM     27  C   UNL     1      14.167   1.755  -0.343  0.00  0.00    +0.178 C 
ATOM     28  C   UNL     1      13.667   0.311  -0.273  0.00  0.00    +0.178 C 
ATOM     29  C   UNL     1      14.855  -0.511   0.228  0.00  0.00    +0.195 C 
ATOM     30  C   UNL     1      15.967   0.521   0.442  0.00  0.00    +0.253 C 
ATOM     31  O   UNL     1      15.321   1.809   0.521  0.00  0.00    -0.346 OA
BRANCH  30  32
ATOM     32  N   UNL     1      16.727   0.304   1.655  0.00  0.00    -0.286 N 
ATOM     33  C   UNL     1      17.478  -0.817   1.925  0.00  0.00    +0.167 A 
ATOM     34  N   UNL     1      17.599  -1.929   1.177  0.00  0.00    -0.216 NA
ATOM     35  C   UNL     1      18.442  -2.807   1.767  0.00  0.00    +0.225 A 
ATOM     36  N   UNL     1      19.109  -2.681   2.936  0.00  0.00    -0.219 NA
ATOM     37  C   UNL     1      18.957  -1.538   3.643  0.00  0.00    +0.147 A 
ATOM     38  N   UNL     1      19.654  -1.398   4.836  0.00  0.00    -0.341 N 
ATOM     39  H   UNL     1      19.260  -0.697   5.454  0.00  0.00    +0.144 HD
ATOM     40  H   UNL     1      19.921  -2.287   5.237  0.00  0.00    +0.144 HD
ATOM     41  C   UNL     1      18.093  -0.550   3.140  0.00  0.00    +0.147 A 
ATOM     42  N   UNL     1      17.705   0.677   3.628  0.00  0.00    -0.231 NA
ATOM     43  C   UNL     1      16.900   1.164   2.704  0.00  0.00    +0.203 A 
ENDBRANCH  30  32
BRANCH  29  44
ATOM     44  O   UNL     1      15.224  -1.514  -0.720  0.00  0.00    -0.385 OA
ATOM     45  H   UNL     1      15.966  -2.017  -0.328  0.00  0.00    +0.210 HD
ENDBRANCH  29  44
BRANCH  28  46
ATOM     46  O   UNL     1      12.591   0.226   0.678  0.00  0.00    -0.386 OA
ATOM     47  H   UNL     1      12.892   0.604   1.523  0.00  0.00    +0.210 HD
ENDBRANCH  28  46
ENDBRANCH  26  27
ENDBRANCH  25  26
ENDBRANCH   1  25
TORSDOF 17
