REMARK  Name = 
REMARK  6 active torsions:
REMARK  status: ('A' for Active; 'I' for Inactive)
REMARK    1  A    between atoms: C_1  and  C_2
REMARK    2  A    between atoms: N_4  and  C_5
REMARK    3  A    between atoms: C_9  and  C_11
REMARK    4  A    between atoms: C_11  and  O_12
REMARK    5  A    between atoms: C_13  and  O_15
REMARK    6  A    between atoms: C_16  and  O_18
REMARK                            x       y       z     vdW  Elec       q    Type
REMARK                         _______ _______ _______ _____ _____    ______ ____
ROOT
ATOM      1  C   UNL     1       4.838  -0.347  -1.128  0.00  0.00    +0.172 C 
ATOM      2  C   UNL     1       5.170  -1.223   0.103  0.00  0.00    +0.178 C 
ATOM      3  C   UNL     1       4.681  -0.560   1.404  0.00  0.00    +0.153 C 
ATOM      4  C   UNL     1       5.200   0.886   1.490  0.00  0.00    +0.059 C 
ATOM      5  C   UNL     1       4.747   1.649   0.239  0.00  0.00    +0.091 C 
ATOM      6  N   UNL     1       5.283   1.029  -0.968  0.00  0.00    -0.296 NA
ATOM      7  H   UNL     1       4.956   1.528  -1.802  0.00  0.00    +0.124 HD
ENDROOT
BRANCH   1  10
ATOM      8  C   UNL     1       6.032  -1.243  -4.596  0.00  0.00    +0.109 C 
ATOM      9  C   UNL     1       5.278  -0.449  -3.563  0.00  0.00    +0.211 C 
ATOM     10  N   UNL     1       5.530  -0.865  -2.280  0.00  0.00    -0.298 N 
ATOM     11  H   UNL     1       5.894  -1.801  -2.172  0.00  0.00    +0.150 HD
ATOM     12  O   UNL     1       4.527   0.481  -3.851  0.00  0.00    -0.276 OA
ENDBRANCH   1  10
BRANCH   2  13
ATOM     13  O   UNL     1       4.564  -2.516  -0.087  0.00  0.00    -0.386 OA
ATOM     14  H   UNL     1       4.088  -2.729   0.737  0.00  0.00    +0.210 HD
ENDBRANCH   2  13
BRANCH   3  15
ATOM     15  O   UNL     1       5.125  -1.362   2.505  0.00  0.00    -0.389 OA
ATOM     16  H   UNL     1       5.116  -0.785   3.301  0.00  0.00    +0.210 HD
ENDBRANCH   3  15
BRANCH   4  17
ATOM     17  C   UNL     1       4.730   1.609   2.754  0.00  0.00    +0.163 C 
BRANCH  17  18
ATOM     18  O   UNL     1       5.191   0.916   3.907  0.00  0.00    -0.395 OA
ATOM     19  H   UNL     1       5.829   1.491   4.361  0.00  0.00    +0.209 HD
ENDBRANCH  17  18
ENDBRANCH   4  17
TORSDOF 5
