REMARK  Name = 
REMARK  5 active torsions:
REMARK  status: ('A' for Active; 'I' for Inactive)
REMARK    1  A    between atoms: O5*_1  and  C5*_2
REMARK    2  A    between atoms: C5*_2  and  C4*_3
REMARK    3  A    between atoms: C1*_6  and  N_14
REMARK    4  A    between atoms: C2*_8  and  O2*_10
REMARK    5  A    between atoms: C3*_11  and  O3*_13
REMARK                            x       y       z     vdW  Elec       q    Type
REMARK                         _______ _______ _______ _____ _____    ______ ____
ROOT
ATOM      1  C4* UNL     1       2.991   1.113  -0.918  0.00  0.00    +0.177 C 
ATOM      2  C3* UNL     1       4.488   1.399  -0.921  0.00  0.00    +0.178 C 
ATOM      3  C2* UNL     1       4.621   2.919  -0.968  0.00  0.00    +0.195 C 
ATOM      4  C1* UNL     1       3.174   3.438  -1.089  0.00  0.00    +0.255 C 
ATOM      5  O4* UNL     1       2.324   2.354  -0.661  0.00  0.00    -0.346 OA
ENDROOT
BRANCH   4   6
ATOM      6  N   UNL     1       2.822   4.629  -0.286  0.00  0.00    -0.272 N 
ATOM      7  C   UNL     1       3.730   5.673  -0.140  0.00  0.00    +0.329 A 
ATOM      8  O   UNL     1       4.817   5.689  -0.726  0.00  0.00    -0.246 OA
ATOM      9  N   UNL     1       3.500   6.668   0.796  0.00  0.00    -0.314 N 
ATOM     10  H   UNL     1       4.349   7.194   0.974  0.00  0.00    +0.170 HD
ATOM     11  C   UNL     1       2.387   7.079   1.510  0.00  0.00    +0.087 A 
ATOM     12  C   UNL     1       1.123   6.714   1.261  0.00  0.00    +0.019 A 
ATOM     13  C   UNL     1       0.850   5.851   0.136  0.00  0.00    +0.019 A 
ATOM     14  C   UNL     1       1.509   4.686   0.175  0.00  0.00    +0.093 A 
ENDBRANCH   4   6
BRANCH   2  15
ATOM     15  O3* UNL     1       5.064   0.899   0.304  0.00  0.00    -0.386 OA
ATOM     16  H3* UNL     1       4.636   1.361   1.048  0.00  0.00    +0.210 HD
ENDBRANCH   2  15
BRANCH   3  17
ATOM     17  O2* UNL     1       5.439   3.324  -2.073  0.00  0.00    -0.385 OA
ATOM     18  H2* UNL     1       5.518   4.298  -1.997  0.00  0.00    +0.210 HD
ENDBRANCH   3  17
BRANCH   1  19
ATOM     19  C5* UNL     1       2.462   0.519  -2.227  0.00  0.00    +0.190 C 
BRANCH  19  20
ATOM     20  O5* UNL     1       2.786   1.338  -3.344  0.00  0.00    -0.392 OA
ATOM     21  H5* UNL     1       2.349   0.945  -4.120  0.00  0.00    +0.210 HD
ENDBRANCH  19  20
ENDBRANCH   1  19
TORSDOF 5
