REMARK  Name = 
REMARK  7 active torsions:
REMARK  status: ('A' for Active; 'I' for Inactive)
REMARK    1  A    between atoms: C_1  and  O_2
REMARK    2  A    between atoms: O_2  and  C_3
REMARK    3  A    between atoms: C_9  and  N_10
REMARK    4  A    between atoms: N_10  and  C_11
REMARK    5  A    between atoms: C_13  and  O_14
REMARK    6  A    between atoms: C_20  and  O_21
REMARK    7  A    between atoms: O_21  and  C_22
REMARK                            x       y       z     vdW  Elec       q    Type
REMARK                         _______ _______ _______ _____ _____    ______ ____
ROOT
ATOM      1  C   UNL     1       3.133   1.078  -0.123  0.00  0.00    +0.164 A 
ATOM      2  C   UNL     1       4.504   1.091   0.167  0.00  0.00    +0.162 A 
ATOM      3  C   UNL     1       5.165   2.319   0.249  0.00  0.00    +0.062 A 
ATOM      4  C   UNL     1       4.467   3.538   0.041  0.00  0.00    +0.044 A 
ATOM      5  C   UNL     1       3.108   3.506  -0.294  0.00  0.00    +0.080 A 
ATOM      6  N   UNL     1       2.386   4.606  -0.518  0.00  0.00    -0.235 NA
ATOM      7  C   UNL     1       3.015   5.775  -0.382  0.00  0.00    +0.223 A 
ATOM      8  N   UNL     1       4.289   5.942  -0.027  0.00  0.00    -0.220 NA
ATOM      9  C   UNL     1       5.013   4.826   0.191  0.00  0.00    +0.134 A 
ATOM     10  C   UNL     1       2.466   2.281  -0.377  0.00  0.00    +0.078 A 
ENDROOT
BRANCH   1  12
ATOM     11  C   UNL     1       1.140  -0.160   0.194  0.00  0.00    +0.277 C 
ATOM     12  O   UNL     1       2.514  -0.147  -0.182  0.00  0.00    -0.491 OA
ENDBRANCH   1  12
BRANCH   2  13
ATOM     13  O   UNL     1       5.089  -0.129   0.384  0.00  0.00    -0.491 OA
ATOM     14  C   UNL     1       6.479  -0.158   0.672  0.00  0.00    +0.277 C 
ENDBRANCH   2  13
BRANCH   9  15
ATOM     15  N   UNL     1       6.362   4.975   0.607  0.00  0.00    -0.299 N 
ATOM     16  H   UNL     1       6.984   4.628  -0.115  0.00  0.00    +0.154 HD
BRANCH  15  17
ATOM     17  C   UNL     1       6.889   6.084   1.310  0.00  0.00    +0.036 A 
ATOM     18  C   UNL     1       8.248   6.409   1.202  0.00  0.00    +0.023 A 
ATOM     19  C   UNL     1       8.787   7.477   1.929  0.00  0.00    +0.005 A 
ATOM     20  C   UNL     1       7.980   8.219   2.788  0.00  0.00    +0.045 A 
ATOM     21  C   UNL     1       6.643   7.878   2.928  0.00  0.00    +0.119 A 
ATOM     22  C   UNL     1       6.103   6.811   2.217  0.00  0.00    +0.068 A 
BRANCH  21  23
ATOM     23  O   UNL     1       5.876   8.617   3.781  0.00  0.00    -0.507 OA
ATOM     24  H   UNL     1       4.954   8.325   3.685  0.00  0.00    +0.292 HD
ENDBRANCH  21  23
ENDBRANCH  15  17
ENDBRANCH   9  15
TORSDOF 5
