REMARK  Name = 
REMARK  5 active torsions:
REMARK  status: ('A' for Active; 'I' for Inactive)
REMARK    1  A    between atoms: CA_2  and  N_3
REMARK    2  A    between atoms: CA_2  and  CB_4
REMARK    3  A    between atoms: CA_2  and  C_12
REMARK    4  A    between atoms: CB_4  and  CG_5
REMARK    5  A    between atoms: CZ_8  and  OH_9
REMARK                            x       y       z     vdW  Elec       q    Type
REMARK                         _______ _______ _______ _____ _____    ______ ____
ROOT
ATOM      1  CG  TYR A   1       2.117  -2.186  -1.442  0.00  0.00    -0.045 A 
ATOM      2  CD2 TYR A   1       0.890  -2.481  -2.052  0.00  0.00    +0.007 A 
ATOM      3  CE2 TYR A   1       0.492  -3.806  -2.234  0.00  0.00    +0.045 A 
ATOM      4  CZ  TYR A   1       1.318  -4.838  -1.806  0.00  0.00    +0.117 A 
ATOM      5  CE1 TYR A   1       2.528  -4.568  -1.178  0.00  0.00    +0.045 A 
ATOM      6  CD1 TYR A   1       2.923  -3.241  -0.989  0.00  0.00    +0.007 A 
ENDROOT
BRANCH   4   7
ATOM      7  OH  TYR A   1       0.900  -6.117  -2.026  0.00  0.00    -0.507 OA
ATOM      8  HH  TYR A   1       1.592  -6.727  -1.723  0.00  0.00    +0.292 HD
ENDBRANCH   4   7
BRANCH   1   9
ATOM      9  CB  TYR A   1       2.563  -0.748  -1.288  0.00  0.00    +0.061 C 
BRANCH   9  10
ATOM     10  CA  TYR A   1       3.875  -0.428  -2.022  0.00  0.00    +0.119 C 
BRANCH  10  11
ATOM     11  N   TYR A   1       4.283   0.971  -1.762  0.00  0.00    -0.321 NA
ATOM     12  H1  TYR A   1       5.116   1.161  -2.327  0.00  0.00    +0.119 HD
ATOM     13  H2  TYR A   1       3.580   1.588  -2.180  0.00  0.00    +0.119 HD
ENDBRANCH  10  11
BRANCH  10  14
ATOM     14  C   TYR A   1       3.716  -0.643  -3.528  0.00  0.00    +0.242 C 
ATOM     15  O   TYR A   1       3.881   0.240  -4.368  0.00  0.00    -0.299 OA
ENDBRANCH  10  14
ENDBRANCH   9  10
ENDBRANCH   1   9
TORSDOF 5
