REMARK  Name = 
REMARK  1 active torsions:
REMARK  status: ('A' for Active; 'I' for Inactive)
REMARK    1  A    between atoms: O_1  and  C_2
REMARK                            x       y       z     vdW  Elec       q    Type
REMARK                         _______ _______ _______ _____ _____    ______ ____
ROOT
ATOM      1  C   UNL     1       2.443  -0.030  -0.043  0.00  0.00    +0.117 A 
ATOM      2  C   UNL     1       3.151  -1.225  -0.101  0.00  0.00    +0.045 A 
ATOM      3  C   UNL     1       4.539  -1.199  -0.232  0.00  0.00    +0.004 A 
ATOM      4  C   UNL     1       5.209   0.022  -0.305  0.00  0.00    +0.000 A 
ATOM      5  C   UNL     1       4.491   1.218  -0.244  0.00  0.00    +0.004 A 
ATOM      6  C   UNL     1       3.102   1.194  -0.113  0.00  0.00    +0.045 A 
ENDROOT
BRANCH   1   7
ATOM      7  O   UNL     1       1.087  -0.100   0.083  0.00  0.00    -0.507 OA
ATOM      8  H   UNL     1       0.732   0.804   0.094  0.00  0.00    +0.292 HD
ENDBRANCH   1   7
TORSDOF 1
