REMARK  Name = 
REMARK  35 active torsions:
REMARK  status: ('A' for Active; 'I' for Inactive)
REMARK    1  A    between atoms: C_1  and  O_2
REMARK    2  A    between atoms: O_2  and  C_3
REMARK    3  A    between atoms: C_5  and  C_6
REMARK    4  A    between atoms: C_7  and  C_8
REMARK    5  A    between atoms: C_8  and  S_10
REMARK    6  A    between atoms: S_10  and  C_11
REMARK    7  A    between atoms: C_11  and  C_12
REMARK    8  A    between atoms: C_12  and  N_13
REMARK    9  A    between atoms: C_14  and  C_16
REMARK   10  A    between atoms: C_16  and  C_17
REMARK   11  A    between atoms: C_17  and  N_18
REMARK   12  A    between atoms: C_19  and  C_21
REMARK   13  A    between atoms: C_21  and  O_23
REMARK   14  A    between atoms: C_21  and  C_24
REMARK   15  A    between atoms: C_24  and  C_25
REMARK   16  A    between atoms: C_24  and  C_26
REMARK   17  A    between atoms: C_24  and  C_27
REMARK   18  A    between atoms: C_27  and  O_28
REMARK   19  A    between atoms: O_28  and  P_29
REMARK   20  A    between atoms: P_29  and  O_31
REMARK   21  A    between atoms: P_29  and  O_32
REMARK   22  A    between atoms: O_32  and  P_33
REMARK   23  A    between atoms: P_33  and  O_34
REMARK   24  A    between atoms: P_33  and  O_36
REMARK   25  A    between atoms: O_36  and  C_37
REMARK   26  A    between atoms: C_37  and  C_38
REMARK   27  A    between atoms: C_41  and  N_53
REMARK   28  A    between atoms: C_43  and  O_45
REMARK   29  A    between atoms: C_46  and  O_48
REMARK   30  A    between atoms: O_48  and  P_49
REMARK   31  A    between atoms: P_49  and  O_50
REMARK   32  A    between atoms: P_49  and  O_51
REMARK   33  A    between atoms: C_57  and  N_58
REMARK   34  A    between atoms: C_64  and  O_65
REMARK   35  A    between atoms: C_66  and  O_67
REMARK                            x       y       z     vdW  Elec       q    Type
REMARK                         _______ _______ _______ _____ _____    ______ ____
ROOT
ATOM      1  O   UNL     1      -2.376  24.281   4.717  0.00  0.00    -0.286 OA
ENDROOT
BRANCH   1   2
ATOM      2  P   UNL     1      -1.058  24.955   4.105  0.00  0.00    +0.483 P 
ATOM      3  O   UNL     1      -0.909  26.393   4.478  0.00  0.00    -0.227 OA
BRANCH   2   4
ATOM      4  O   UNL     1       0.107  24.070   4.754  0.00  0.00    -0.302 OA
ATOM      5  H   UNL     1       0.875  24.646   4.936  0.00  0.00    +0.222 HD
ENDBRANCH   2   4
BRANCH   2   6
ATOM      6  O   UNL     1      -0.996  24.622   2.550  0.00  0.00    -0.186 OA
BRANCH   6   7
ATOM      7  P   UNL     1       0.272  24.958   1.650  0.00  0.00    +0.483 P 
ATOM      8  O   UNL     1       0.177  24.673   0.188  0.00  0.00    -0.227 OA
BRANCH   7   9
ATOM      9  O   UNL     1       0.595  26.501   1.928  0.00  0.00    -0.302 OA
ATOM     10  H   UNL     1       1.223  26.869   1.280  0.00  0.00    +0.222 HD
ENDBRANCH   7   9
BRANCH   7  11
ATOM     11  O   UNL     1       1.500  24.272   2.403  0.00  0.00    -0.284 OA
BRANCH  11  12
ATOM     12  C   UNL     1       2.069  23.066   1.924  0.00  0.00    +0.206 C 
BRANCH  12  13
ATOM     13  C   UNL     1       3.494  23.062   2.465  0.00  0.00    +0.179 C 
ATOM     14  C   UNL     1       4.374  21.973   1.886  0.00  0.00    +0.194 C 
ATOM     15  C   UNL     1       5.368  21.652   3.004  0.00  0.00    +0.196 C 
ATOM     16  C   UNL     1       5.013  22.675   4.084  0.00  0.00    +0.253 C 
ATOM     17  O   UNL     1       3.599  22.918   3.896  0.00  0.00    -0.346 OA
BRANCH  16  18
ATOM     18  N   UNL     1       5.304  22.212   5.423  0.00  0.00    -0.286 N 
ATOM     19  C   UNL     1       6.562  21.887   5.872  0.00  0.00    +0.167 A 
ATOM     20  C   UNL     1       6.397  21.608   7.218  0.00  0.00    +0.147 A 
ATOM     21  C   UNL     1       7.562  21.279   7.934  0.00  0.00    +0.147 A 
ATOM     22  N   UNL     1       8.740  21.245   7.271  0.00  0.00    -0.219 NA
ATOM     23  C   UNL     1       8.746  21.513   5.948  0.00  0.00    +0.225 A 
ATOM     24  N   UNL     1       5.071  21.721   7.577  0.00  0.00    -0.231 NA
ATOM     25  N   UNL     1       7.703  21.856   5.157  0.00  0.00    -0.216 NA
ATOM     26  C   UNL     1       4.442  22.068   6.470  0.00  0.00    +0.203 A 
BRANCH  21  27
ATOM     27  N   UNL     1       7.570  21.022   9.297  0.00  0.00    -0.341 N 
ATOM     28  H   UNL     1       8.486  21.177   9.698  0.00  0.00    +0.144 HD
ATOM     29  H   UNL     1       6.777  21.431   9.781  0.00  0.00    +0.144 HD
ENDBRANCH  21  27
ENDBRANCH  16  18
BRANCH  15  30
ATOM     30  O   UNL     1       6.721  21.723   2.561  0.00  0.00    -0.385 OA
ATOM     31  H   UNL     1       7.297  21.699   3.359  0.00  0.00    +0.210 HD
ENDBRANCH  15  30
BRANCH  14  32
ATOM     32  O   UNL     1       4.977  22.528   0.735  0.00  0.00    -0.278 OA
BRANCH  32  33
ATOM     33  P   UNL     1       6.145  21.476   0.011  0.00  0.00    +0.473 P 
ATOM     34  O   UNL     1       7.190  20.535  -0.637  0.00  0.00    -0.228 OA
BRANCH  33  35
ATOM     35  O   UNL     1       6.381  22.629  -1.126  0.00  0.00    -0.303 OA
ATOM     36  H   UNL     1       6.820  22.166  -1.869  0.00  0.00    +0.222 HD
ENDBRANCH  33  35
BRANCH  33  37
ATOM     37  O   UNL     1       4.846  20.846  -0.767  0.00  0.00    -0.303 OA
ATOM     38  H   UNL     1       4.465  21.569  -1.301  0.00  0.00    +0.222 HD
ENDBRANCH  33  37
ENDBRANCH  32  33
ENDBRANCH  14  32
ENDBRANCH  12  13
ENDBRANCH  11  12
ENDBRANCH   7  11
ENDBRANCH   6   7
ENDBRANCH   2   6
ENDBRANCH   1   2
BRANCH   1  39
ATOM     39  C   UNL     1      -2.617  22.885   4.692  0.00  0.00    +0.181 C 
BRANCH  39  40
ATOM     40  C   UNL     1      -3.027  22.332   6.107  0.00  0.00    +0.024 C 
ATOM     41  C   UNL     1      -1.797  21.773   6.854  0.00  0.00    +0.016 C 
ATOM     42  C   UNL     1      -3.587  23.479   6.982  0.00  0.00    +0.016 C 
BRANCH  40  43
ATOM     43  C   UNL     1      -4.075  21.197   5.864  0.00  0.00    +0.208 C 
BRANCH  43  46
ATOM     44  N   UNL     1      -4.788  19.949   7.935  0.00  0.00    -0.313 N 
ATOM     45  H   UNL     1      -3.833  19.635   8.015  0.00  0.00    +0.149 HD
ATOM     46  C   UNL     1      -5.061  20.954   7.033  0.00  0.00    +0.242 C 
ATOM     47  O   UNL     1      -6.059  21.677   7.131  0.00  0.00    -0.273 OA
BRANCH  44  48
ATOM     48  C   UNL     1      -5.629  19.721   9.121  0.00  0.00    +0.113 C 
BRANCH  48  49
ATOM     49  C   UNL     1      -7.144  19.792   8.897  0.00  0.00    +0.114 C 
BRANCH  49  52
ATOM     50  N   UNL     1      -9.286  19.637   9.999  0.00  0.00    -0.314 N 
ATOM     51  H   UNL     1      -9.644  20.018   9.130  0.00  0.00    +0.149 HD
ATOM     52  C   UNL     1      -7.923  19.463  10.150  0.00  0.00    +0.215 C 
ATOM     53  O   UNL     1      -7.404  19.076  11.185  0.00  0.00    -0.276 OA
BRANCH  50  54
ATOM     54  C   UNL     1     -10.217  19.351  11.075  0.00  0.00    +0.115 C 
BRANCH  54  55
ATOM     55  C   UNL     1     -10.484  20.555  11.981  0.00  0.00    +0.096 C 
BRANCH  55  56
ATOM     56  S   UNL     1     -11.561  20.003  13.337  0.00  0.00    -0.082 S 
BRANCH  56  57
ATOM     57  C   UNL     1     -11.727  21.486  14.253  0.00  0.00    +0.213 C 
ATOM     58  O   UNL     1     -11.233  22.549  13.914  0.00  0.00    -0.280 OA
BRANCH  57  60
ATOM     59  C   UNL     1     -12.823  22.314  16.299  0.00  0.00    +0.012 C 
ATOM     60  C   UNL     1     -12.556  21.293  15.471  0.00  0.00    +0.058 C 
BRANCH  59  65
ATOM     61  C   UNL     1     -15.197  23.276  19.074  0.00  0.00    +0.166 A 
ATOM     62  C   UNL     1     -15.213  22.106  19.834  0.00  0.00    +0.201 A 
ATOM     63  C   UNL     1     -14.475  20.992  19.440  0.00  0.00    +0.163 A 
ATOM     64  C   UNL     1     -13.697  21.026  18.286  0.00  0.00    +0.057 A 
ATOM     65  C   UNL     1     -13.661  22.193  17.507  0.00  0.00    -0.018 A 
ATOM     66  C   UNL     1     -14.407  23.314  17.918  0.00  0.00    +0.057 A 
BRANCH  61  68
ATOM     67  C   UNL     1     -16.384  25.267  18.578  0.00  0.00    +0.277 C 
ATOM     68  O   UNL     1     -15.924  24.335  19.548  0.00  0.00    -0.491 OA
ENDBRANCH  61  68
BRANCH  63  69
ATOM     69  O   UNL     1     -14.539  19.876  20.232  0.00  0.00    -0.503 OA
ATOM     70  H   UNL     1     -13.972  19.187  19.843  0.00  0.00    +0.292 HD
ENDBRANCH  63  69
BRANCH  62  71
ATOM     71  O   UNL     1     -15.959  22.027  20.982  0.00  0.00    -0.501 OA
ATOM     72  H   UNL     1     -15.790  21.131  21.330  0.00  0.00    +0.292 HD
ENDBRANCH  62  71
ENDBRANCH  59  65
ENDBRANCH  57  60
ENDBRANCH  56  57
ENDBRANCH  55  56
ENDBRANCH  54  55
ENDBRANCH  50  54
ENDBRANCH  49  52
ENDBRANCH  48  49
ENDBRANCH  44  48
ENDBRANCH  43  46
BRANCH  43  73
ATOM     73  O   UNL     1      -3.470  20.054   5.270  0.00  0.00    -0.382 OA
ATOM     74  H   UNL     1      -3.217  19.429   5.966  0.00  0.00    +0.210 HD
ENDBRANCH  43  73
ENDBRANCH  40  43
ENDBRANCH  39  40
ENDBRANCH   1  39
TORSDOF 32
