REMARK  Name = 
REMARK  7 active torsions:
REMARK  status: ('A' for Active; 'I' for Inactive)
REMARK    1  A    between atoms: C_1  and  O_2
REMARK    2  A    between atoms: O_2  and  C_3
REMARK    3  A    between atoms: C_5  and  O_6
REMARK    4  A    between atoms: O_6  and  C_7
REMARK    5  A    between atoms: C_8  and  C_9
REMARK    6  A    between atoms: C_20  and  O_21
REMARK    7  A    between atoms: O_21  and  C_22
REMARK                            x       y       z     vdW  Elec       q    Type
REMARK                         _______ _______ _______ _____ _____    ______ ____
ROOT
ATOM      1  C   UNL     1       3.188  -0.891   0.486  0.00  0.00    +0.127 A 
ATOM      2  C   UNL     1       2.652  -2.039  -0.077  0.00  0.00    +0.092 A 
ATOM      3  C   UNL     1       3.256  -3.289   0.135  0.00  0.00    +0.134 A 
ATOM      4  C   UNL     1       4.435  -3.396   0.936  0.00  0.00    +0.059 A 
ATOM      5  C   UNL     1       4.986  -2.225   1.485  0.00  0.00    +0.134 A 
ATOM      6  C   UNL     1       4.339  -0.995   1.261  0.00  0.00    +0.092 A 
ENDROOT
BRANCH   4   7
ATOM      7  C   UNL     1       4.994  -4.748   1.130  0.00  0.00    +0.029 C 
ATOM      8  C   UNL     1       4.565  -5.658   2.019  0.00  0.00    +0.047 C 
ATOM      9  C   UNL     1       3.518  -5.616   3.038  0.00  0.00    +0.008 A 
ATOM     10  C   UNL     1       3.213  -6.954   3.318  0.00  0.00    +0.042 A 
ATOM     11  C   UNL     1       2.185  -7.318   4.165  0.00  0.00    +0.024 A 
ATOM     12  C   UNL     1       1.483  -6.290   4.794  0.00  0.00    +0.002 A 
ATOM     13  C   UNL     1       1.851  -4.944   4.604  0.00  0.00    +0.001 A 
ATOM     14  N   UNL     1       4.095  -7.807   2.656  0.00  0.00    -0.281 N 
ATOM     15  H   UNL     1       4.122  -8.811   2.743  0.00  0.00    +0.155 HD
ATOM     16  C   UNL     1       2.882  -4.599   3.721  0.00  0.00    +0.010 A 
ATOM     17  C   UNL     1       5.004  -7.091   1.889  0.00  0.00    +0.249 C 
ATOM     18  O   UNL     1       5.937  -7.534   1.246  0.00  0.00    -0.270 OA
ENDBRANCH   4   7
BRANCH   1  20
ATOM     19  C   UNL     1       1.754   0.596  -0.695  0.00  0.00    +0.277 C 
ATOM     20  O   UNL     1       2.675   0.374   0.366  0.00  0.00    -0.495 OA
ENDBRANCH   1  20
BRANCH   3  21
ATOM     21  O   UNL     1       2.798  -4.450  -0.444  0.00  0.00    -0.494 OA
ATOM     22  C   UNL     1       1.486  -4.434  -0.999  0.00  0.00    +0.277 C 
ENDBRANCH   3  21
BRANCH   5  23
ATOM     23  O   UNL     1       6.104  -2.054   2.257  0.00  0.00    -0.494 OA
ATOM     24  C   UNL     1       7.008  -3.123   2.462  0.00  0.00    +0.277 C 
ENDBRANCH   5  23
TORSDOF 4
