REMARK  Name = 
REMARK  12 active torsions:
REMARK  status: ('A' for Active; 'I' for Inactive)
REMARK    1  A    between atoms: C_1  and  C_2
REMARK    2  A    between atoms: C_2  and  O_4
REMARK    3  A    between atoms: C_2  and  C_5
REMARK    4  A    between atoms: C_5  and  N_7
REMARK    5  A    between atoms: C_5  and  C_8
REMARK    6  A    between atoms: N_10  and  S_11
REMARK    7  A    between atoms: S_11  and  O_14
REMARK    8  A    between atoms: O_14  and  C_15
REMARK    9  A    between atoms: C_15  and  C_16
REMARK   10  A    between atoms: C_19  and  N_27
REMARK   11  A    between atoms: C_21  and  O_23
REMARK   12  A    between atoms: C_24  and  O_26
REMARK                            x       y       z     vdW  Elec       q    Type
REMARK                         _______ _______ _______ _____ _____    ______ ____
ROOT
ATOM      1  C   UNL     1       9.685  -3.392  -4.831  0.00  0.00    +0.180 C 
ATOM      2  C   UNL     1       9.122  -4.809  -4.707  0.00  0.00    +0.178 C 
ATOM      3  C   UNL     1      10.246  -5.743  -5.188  0.00  0.00    +0.195 C 
ATOM      4  C   UNL     1      11.373  -4.786  -5.592  0.00  0.00    +0.253 C 
ATOM      5  O   UNL     1      11.114  -3.564  -4.863  0.00  0.00    -0.346 OA
ENDROOT
BRANCH   4   6
ATOM      6  N   UNL     1      12.742  -5.179  -5.329  0.00  0.00    -0.286 N 
ATOM      7  C   UNL     1      13.312  -6.418  -5.444  0.00  0.00    +0.167 A 
ATOM      8  N   UNL     1      12.713  -7.602  -5.671  0.00  0.00    -0.216 NA
ATOM      9  C   UNL     1      13.631  -8.600  -5.704  0.00  0.00    +0.225 A 
ATOM     10  N   UNL     1      14.975  -8.522  -5.572  0.00  0.00    -0.219 NA
ATOM     11  C   UNL     1      15.528  -7.305  -5.386  0.00  0.00    +0.147 A 
ATOM     12  N   UNL     1      16.909  -7.195  -5.299  0.00  0.00    -0.341 N 
ATOM     13  H   UNL     1      17.225  -6.329  -4.877  0.00  0.00    +0.144 HD
ATOM     14  H   UNL     1      17.366  -8.055  -5.027  0.00  0.00    +0.144 HD
ATOM     15  C   UNL     1      14.675  -6.195  -5.286  0.00  0.00    +0.147 A 
ATOM     16  N   UNL     1      14.939  -4.864  -5.063  0.00  0.00    -0.231 NA
ATOM     17  C   UNL     1      13.764  -4.282  -5.113  0.00  0.00    +0.203 A 
ENDBRANCH   4   6
BRANCH   2  18
ATOM     18  O   UNL     1       8.844  -5.092  -3.322  0.00  0.00    -0.386 OA
ATOM     19  H   UNL     1       9.644  -4.905  -2.799  0.00  0.00    +0.210 HD
ENDBRANCH   2  18
BRANCH   3  20
ATOM     20  O   UNL     1       9.803  -6.521  -6.302  0.00  0.00    -0.385 OA
ATOM     21  H   UNL     1      10.465  -7.230  -6.431  0.00  0.00    +0.210 HD
ENDBRANCH   3  20
BRANCH   1  22
ATOM     22  C   UNL     1       9.264  -2.632  -6.095  0.00  0.00    +0.229 C 
BRANCH  22  23
ATOM     23  O   UNL     1       7.887  -2.300  -6.076  0.00  0.00    -0.220 OA
BRANCH  23  24
ATOM     24  S   UNL     1       7.330  -1.452  -7.347  0.00  0.00    +0.169 S 
ATOM     25  O   UNL     1       7.803  -0.090  -7.201  0.00  0.00    -0.126 OA
ATOM     26  O   UNL     1       7.603  -2.196  -8.553  0.00  0.00    -0.126 OA
BRANCH  24  28
ATOM     27  C   UNL     1       4.889  -2.498  -6.891  0.00  0.00    +0.253 C 
ATOM     28  N   UNL     1       5.706  -1.392  -7.141  0.00  0.00    -0.164 N 
ATOM     29  H   UNL     1       5.260  -0.493  -7.317  0.00  0.00    +0.179 HD
ATOM     30  O   UNL     1       5.322  -3.627  -6.716  0.00  0.00    -0.272 OA
BRANCH  27  31
ATOM     31  C   UNL     1       3.399  -2.158  -6.771  0.00  0.00    +0.168 C 
BRANCH  31  32
ATOM     32  N   UNL     1       3.045  -0.967  -7.602  0.00  0.00    -0.318 NA
ATOM     33  H   UNL     1       3.024  -1.260  -8.582  0.00  0.00    +0.119 HD
ATOM     34  H   UNL     1       2.068  -0.753  -7.374  0.00  0.00    +0.119 HD
ENDBRANCH  31  32
BRANCH  31  36
ATOM     35  C   UNL     1       3.692  -0.750  -4.623  0.00  0.00    +0.040 C 
ATOM     36  C   UNL     1       3.044  -1.969  -5.280  0.00  0.00    +0.137 C 
BRANCH  36  37
ATOM     37  O   UNL     1       1.620  -1.839  -5.170  0.00  0.00    -0.390 OA
ATOM     38  H   UNL     1       1.403  -1.838  -4.221  0.00  0.00    +0.210 HD
ENDBRANCH  36  37
ENDBRANCH  31  36
ENDBRANCH  27  31
ENDBRANCH  24  28
ENDBRANCH  23  24
ENDBRANCH  22  23
ENDBRANCH   1  22
TORSDOF 11
