REMARK  Name = 
REMARK  8 active torsions:
REMARK  status: ('A' for Active; 'I' for Inactive)
REMARK    1  A    between atoms: N_11  and  C_12
REMARK    2  A    between atoms: C_15  and  C_17
REMARK    3  A    between atoms: C_17  and  O_18
REMARK    4  A    between atoms: O_18  and  P_19
REMARK    5  A    between atoms: P_19  and  O_20
REMARK    6  A    between atoms: P_19  and  O_21
REMARK    7  A    between atoms: C_23  and  O_25
REMARK    8  A    between atoms: C_26  and  O_28
REMARK                            x       y       z     vdW  Elec       q    Type
REMARK                         _______ _______ _______ _____ _____    ______ ____
ROOT
ATOM      1  C   UNL     1       6.582  -3.043  -0.098  0.00  0.00    +0.254 C 
ATOM      2  C   UNL     1       6.590  -4.467   0.487  0.00  0.00    +0.195 C 
ATOM      3  C   UNL     1       7.936  -4.584   1.210  0.00  0.00    +0.178 C 
ATOM      4  C   UNL     1       8.507  -3.164   1.178  0.00  0.00    +0.178 C 
ATOM      5  O   UNL     1       7.421  -2.293   0.825  0.00  0.00    -0.346 OA
ENDROOT
BRANCH   1  13
ATOM      6  N   UNL     1       8.669  -3.115  -5.810  0.00  0.00    -0.341 N 
ATOM      7  H   UNL     1       8.263  -2.194  -5.949  0.00  0.00    +0.144 HD
ATOM      8  H   UNL     1       8.629  -3.761  -6.587  0.00  0.00    +0.144 HD
ATOM      9  C   UNL     1       8.278  -3.716  -4.619  0.00  0.00    +0.147 A 
ATOM     10  C   UNL     1       7.796  -2.992  -3.509  0.00  0.00    +0.148 A 
ATOM     11  N   UNL     1       7.560  -1.652  -3.303  0.00  0.00    -0.216 NA
ATOM     12  C   UNL     1       7.101  -1.571  -2.070  0.00  0.00    +0.182 A 
ATOM     13  N   UNL     1       7.052  -2.807  -1.452  0.00  0.00    -0.274 N 
ATOM     14 BR   UNL     1       6.588   0.077  -1.329  0.00  0.00    -0.008 Br
ATOM     15  C   UNL     1       7.452  -3.725  -2.388  0.00  0.00    +0.168 A 
ATOM     16  N   UNL     1       7.515  -5.058  -2.265  0.00  0.00    -0.216 NA
ATOM     17  C   UNL     1       7.985  -5.648  -3.379  0.00  0.00    +0.225 A 
ATOM     18  N   UNL     1       8.350  -5.055  -4.540  0.00  0.00    -0.219 NA
ENDBRANCH   1  13
BRANCH   2  19
ATOM     19  O   UNL     1       5.528  -4.584   1.461  0.00  0.00    -0.385 OA
ATOM     20  H   UNL     1       5.608  -3.849   2.096  0.00  0.00    +0.210 HD
ENDBRANCH   2  19
BRANCH   3  21
ATOM     21  O   UNL     1       8.817  -5.490   0.556  0.00  0.00    -0.386 OA
ATOM     22  H   UNL     1       9.651  -5.509   1.059  0.00  0.00    +0.210 HD
ENDBRANCH   3  21
BRANCH   4  23
ATOM     23  C   UNL     1       9.138  -2.747   2.507  0.00  0.00    +0.206 C 
BRANCH  23  24
ATOM     24  O   UNL     1      10.247  -3.594   2.793  0.00  0.00    -0.284 OA
BRANCH  24  25
ATOM     25  P   UNL     1      11.051  -3.203   4.274  0.00  0.00    +0.472 P 
ATOM     26  O   UNL     1      11.771  -2.854   5.600  0.00  0.00    -0.228 OA
BRANCH  25  27
ATOM     27  O   UNL     1      12.339  -3.932   3.578  0.00  0.00    -0.303 OA
ATOM     28  H   UNL     1      12.763  -3.337   2.933  0.00  0.00    +0.222 HD
ENDBRANCH  25  27
BRANCH  25  29
ATOM     29  O   UNL     1      10.325  -4.574   4.786  0.00  0.00    -0.303 OA
ATOM     30  H   UNL     1      10.601  -5.289   4.185  0.00  0.00    +0.222 HD
ENDBRANCH  25  29
ENDBRANCH  24  25
ENDBRANCH  23  24
ENDBRANCH   4  23
TORSDOF 8
