REMARK  Name = 
REMARK  7 active torsions:
REMARK  status: ('A' for Active; 'I' for Inactive)
REMARK    1  A    between atoms: C_1  and  C_2
REMARK    2  A    between atoms: C_2  and  O_4
REMARK    3  A    between atoms: C_2  and  C_5
REMARK    4  A    between atoms: C_5  and  C_6
REMARK    5  A    between atoms: C_6  and  C_7
REMARK    6  A    between atoms: C_6  and  C_8
REMARK    7  A    between atoms: C_6  and  O_9
REMARK                            x       y       z     vdW  Elec       q    Type
REMARK                         _______ _______ _______ _____ _____    ______ ____
ROOT
ATOM      1  C   UNL     1       3.046   0.769   1.095  0.00  0.00    +0.065 C 
ENDROOT
BRANCH   1   2
ATOM      2  C   UNL     1       4.586   0.895   1.117  0.00  0.00    +0.063 C 
ATOM      3  C   UNL     1       5.157   1.571  -0.129  0.00  0.00    +0.041 C 
ATOM      4  C   UNL     1       5.321  -0.417   1.388  0.00  0.00    +0.041 C 
BRANCH   2   5
ATOM      5  O   UNL     1       4.894   1.778   2.215  0.00  0.00    -0.389 OA
ATOM      6  H   UNL     1       4.666   1.320   3.042  0.00  0.00    +0.210 HD
ENDBRANCH   2   5
ENDBRANCH   1   2
BRANCH   1   8
ATOM      7  C   UNL     1       2.576  -1.596   0.185  0.00  0.00    +0.037 C 
ATOM      8  C   UNL     1       2.342  -0.100   0.044  0.00  0.00    +0.114 C 
BRANCH   8   9
ATOM      9  O   UNL     1       2.681   0.291  -1.278  0.00  0.00    -0.392 OA
ATOM     10  H   UNL     1       2.418   1.221  -1.388  0.00  0.00    +0.210 HD
ENDBRANCH   8   9
ENDBRANCH   1   8
TORSDOF 4
