REMARK  Name = 
REMARK  3 active torsions:
REMARK  status: ('A' for Active; 'I' for Inactive)
REMARK    1  A    between atoms: C_1  and  C_2
REMARK    2  A    between atoms: C_2  and  C_3
REMARK    3  A    between atoms: C_3  and  O_4
REMARK                            x       y       z     vdW  Elec       q    Type
REMARK                         _______ _______ _______ _____ _____    ______ ____
ROOT
ATOM      1  C   UNL     1       3.015  -0.381  -1.435  0.00  0.00    +0.155 C 
ENDROOT
BRANCH   1   3
ATOM      2  C   UNL     1       0.962   0.073  -0.051  0.00  0.00    +0.006 C 
ATOM      3  C   UNL     1       2.480   0.068  -0.083  0.00  0.00    +0.024 C 
ENDBRANCH   1   3
BRANCH   1   4
ATOM      4  O   UNL     1       4.436  -0.379  -1.416  0.00  0.00    -0.395 OA
ATOM      5  H   UNL     1       4.724   0.530  -1.228  0.00  0.00    +0.209 HD
ENDBRANCH   1   4
TORSDOF 2
