REMARK  Name = 
REMARK  23 active torsions:
REMARK  status: ('A' for Active; 'I' for Inactive)
REMARK    1  A    between atoms: C_1  and  C_2
REMARK    2  A    between atoms: C_5  and  O_7
REMARK    3  A    between atoms: O_7  and  C_8
REMARK    4  A    between atoms: C_10  and  C_12
REMARK    5  A    between atoms: C_12  and  O_13
REMARK    6  A    between atoms: C_15  and  O_17
REMARK    7  A    between atoms: O_17  and  C_18
REMARK    8  A    between atoms: C_18  and  C_19
REMARK    9  A    between atoms: C_22  and  O_24
REMARK   10  A    between atoms: C_25  and  O_27
REMARK   11  A    between atoms: C_28  and  O_30
REMARK   12  A    between atoms: C_31  and  O_33
REMARK   13  A    between atoms: C_34  and  O_36
REMARK   14  A    between atoms: C_37  and  O_39
REMARK   15  A    between atoms: C_40  and  O_42
REMARK   16  A    between atoms: C_43  and  O_45
REMARK   17  A    between atoms: C_46  and  N_48
REMARK   18  A    between atoms: N_48  and  C_49
REMARK   19  A    between atoms: C_52  and  C_53
REMARK   20  A    between atoms: C_53  and  O_54
REMARK   21  A    between atoms: C_55  and  O_57
REMARK   22  A    between atoms: C_58  and  O_60
REMARK   23  A    between atoms: C_61  and  O_63
REMARK                            x       y       z     vdW  Elec       q    Type
REMARK                         _______ _______ _______ _____ _____    ______ ____
ROOT
ATOM      1  O   UNL     1      -6.596  -8.062   0.250  0.00  0.00    -0.340 OA
ENDROOT
BRANCH   1   7
ATOM      2  C   UNL     1      -2.744  -9.719   0.556  0.00  0.00    +0.039 C 
ATOM      3  C   UNL     1      -3.368  -8.480   1.179  0.00  0.00    +0.138 C 
ATOM      4  C   UNL     1      -3.916  -8.551   2.665  0.00  0.00    +0.114 C 
ATOM      5  C   UNL     1      -5.263  -7.821   2.879  0.00  0.00    +0.167 C 
ATOM      6  C   UNL     1      -5.442  -6.687   1.849  0.00  0.00    +0.200 C 
ATOM      7  C   UNL     1      -5.396  -7.281   0.426  0.00  0.00    +0.282 C 
ATOM      8  O   UNL     1      -4.240  -8.028   0.138  0.00  0.00    -0.344 OA
BRANCH   6   9
ATOM      9  O   UNL     1      -4.457  -5.663   2.043  0.00  0.00    -0.384 OA
ATOM     10  H   UNL     1      -4.811  -4.833   1.672  0.00  0.00    +0.210 HD
ENDBRANCH   6   9
BRANCH   5  11
ATOM     11  O   UNL     1      -6.360  -8.743   2.880  0.00  0.00    -0.387 OA
ATOM     12  H   UNL     1      -6.974  -8.488   2.163  0.00  0.00    +0.210 HD
ENDBRANCH   5  11
BRANCH   4  13
ATOM     13  N   UNL     1      -3.522  -9.609   3.628  0.00  0.00    -0.300 NA
ATOM     14  H   UNL     1      -3.515  -9.177   4.557  0.00  0.00    +0.123 HD
BRANCH  13  15
ATOM     15  C   UNL     1      -4.155 -10.921   3.831  0.00  0.00    +0.109 C 
ATOM     16  C   UNL     1      -5.250 -11.163   4.931  0.00  0.00    +0.166 C 
ATOM     17  C   UNL     1      -6.006 -12.523   4.809  0.00  0.00    +0.177 C 
ATOM     18  C   UNL     1      -5.164 -13.643   4.147  0.00  0.00    +0.173 C 
ATOM     19  C   UNL     1      -4.461 -13.183   2.892  0.00  0.00    -0.016 C 
ATOM     20  C   UNL     1      -4.162 -11.885   2.691  0.00  0.00    -0.002 C 
BRANCH  18  21
ATOM     21  O   UNL     1      -4.214 -14.147   5.079  0.00  0.00    -0.385 OA
ATOM     22  H   UNL     1      -3.374 -14.283   4.597  0.00  0.00    +0.210 HD
ENDBRANCH  18  21
BRANCH  17  23
ATOM     23  O   UNL     1      -7.248 -12.378   4.090  0.00  0.00    -0.386 OA
ATOM     24  H   UNL     1      -7.837 -13.077   4.431  0.00  0.00    +0.210 HD
ENDBRANCH  17  23
BRANCH  16  25
ATOM     25  O   UNL     1      -6.154 -10.071   5.097  0.00  0.00    -0.387 OA
ATOM     26  H   UNL     1      -6.430  -9.807   4.191  0.00  0.00    +0.210 HD
ENDBRANCH  16  25
BRANCH  19  27
ATOM     27  C   UNL     1      -3.943 -14.224   1.951  0.00  0.00    +0.189 C 
BRANCH  27  28
ATOM     28  O   UNL     1      -2.681 -14.632   2.474  0.00  0.00    -0.391 OA
ATOM     29  H   UNL     1      -2.139 -14.915   1.716  0.00  0.00    +0.210 HD
ENDBRANCH  27  28
ENDBRANCH  19  27
ENDBRANCH  13  15
ENDBRANCH   4  13
ENDBRANCH   1   7
BRANCH   1  30
ATOM     30  C   UNL     1      -6.796  -8.722  -1.023  0.00  0.00    +0.183 C 
ATOM     31  C   UNL     1      -7.855  -9.835  -0.810  0.00  0.00    +0.179 C 
ATOM     32  C   UNL     1      -9.246  -9.609  -1.428  0.00  0.00    +0.201 C 
ATOM     33  C   UNL     1      -9.285  -8.777  -2.736  0.00  0.00    +0.282 C 
ATOM     34  O   UNL     1      -7.974  -8.441  -3.188  0.00  0.00    -0.341 OA
ATOM     35  C   UNL     1      -7.172  -7.772  -2.182  0.00  0.00    +0.178 C 
BRANCH  32  36
ATOM     36  O   UNL     1     -10.082  -8.972  -0.439  0.00  0.00    -0.384 OA
ATOM     37  H   UNL     1     -10.944  -9.426  -0.477  0.00  0.00    +0.210 HD
ENDBRANCH  32  36
BRANCH  31  38
ATOM     38  O   UNL     1      -7.339 -11.082  -1.312  0.00  0.00    -0.386 OA
ATOM     39  H   UNL     1      -7.024 -11.584  -0.539  0.00  0.00    +0.210 HD
ENDBRANCH  31  38
BRANCH  33  40
ATOM     40  O   UNL     1     -10.068  -9.522  -3.696  0.00  0.00    -0.346 OA
BRANCH  40  41
ATOM     41  C   UNL     1     -10.075  -9.048  -5.047  0.00  0.00    +0.197 C 
BRANCH  41  42
ATOM     42  C   UNL     1     -10.896  -7.765  -5.334  0.00  0.00    +0.178 C 
ATOM     43  C   UNL     1     -12.420  -7.984  -5.172  0.00  0.00    +0.177 C 
ATOM     44  C   UNL     1     -13.184  -6.645  -5.226  0.00  0.00    +0.179 C 
ATOM     45  C   UNL     1     -12.535  -5.582  -4.365  0.00  0.00    +0.201 C 
ATOM     46  C   UNL     1     -11.047  -5.465  -4.730  0.00  0.00    +0.279 C 
ATOM     47  O   UNL     1     -10.378  -6.698  -4.528  0.00  0.00    -0.341 OA
BRANCH  46  48
ATOM     48  O   UNL     1     -10.461  -4.506  -3.868  0.00  0.00    -0.365 OA
ATOM     49  H   UNL     1      -9.519  -4.438  -4.108  0.00  0.00    +0.213 HD
ENDBRANCH  46  48
BRANCH  45  50
ATOM     50  O   UNL     1     -13.277  -4.362  -4.556  0.00  0.00    -0.384 OA
ATOM     51  H   UNL     1     -12.810  -3.823  -5.217  0.00  0.00    +0.210 HD
ENDBRANCH  45  50
BRANCH  44  52
ATOM     52  O   UNL     1     -14.541  -6.825  -4.767  0.00  0.00    -0.386 OA
ATOM     53  H   UNL     1     -14.900  -5.923  -4.622  0.00  0.00    +0.210 HD
ENDBRANCH  44  52
BRANCH  43  54
ATOM     54  O   UNL     1     -12.878  -8.799  -6.266  0.00  0.00    -0.386 OA
ATOM     55  H   UNL     1     -12.978  -9.710  -5.938  0.00  0.00    +0.210 HD
ENDBRANCH  43  54
ENDBRANCH  41  42
ENDBRANCH  40  41
ENDBRANCH  33  40
BRANCH  35  56
ATOM     56  C   UNL     1      -7.799  -6.431  -1.754  0.00  0.00    +0.190 C 
BRANCH  56  57
ATOM     57  O   UNL     1      -8.042  -5.632  -2.911  0.00  0.00    -0.392 OA
ATOM     58  H   UNL     1      -8.569  -6.200  -3.509  0.00  0.00    +0.210 HD
ENDBRANCH  56  57
ENDBRANCH  35  56
ENDBRANCH   1  30
TORSDOF 22
