REMARK  Name = 
REMARK  17 active torsions:
REMARK  status: ('A' for Active; 'I' for Inactive)
REMARK    1  A    between atoms: O_1  and  C_2
REMARK    2  A    between atoms: C_4  and  C_6
REMARK    3  A    between atoms: C_6  and  O_7
REMARK    4  A    between atoms: O_7  and  P_8
REMARK    5  A    between atoms: P_8  and  O_9
REMARK    6  A    between atoms: P_8  and  O_11
REMARK    7  A    between atoms: O_11  and  P_12
REMARK    8  A    between atoms: P_12  and  O_13
REMARK    9  A    between atoms: P_12  and  O_15
REMARK   10  A    between atoms: O_15  and  C_16
REMARK   11  A    between atoms: C_19  and  C_30
REMARK   12  A    between atoms: C_21  and  O_23
REMARK   13  A    between atoms: C_24  and  O_26
REMARK   14  A    between atoms: C_27  and  O_29
REMARK   15  A    between atoms: C_30  and  O_31
REMARK   16  A    between atoms: C_34  and  N_39
REMARK   17  A    between atoms: C_36  and  O_38
REMARK                            x       y       z     vdW  Elec       q    Type
REMARK                         _______ _______ _______ _____ _____    ______ ____
ROOT
ATOM      1  P   UNL     1       2.733   4.995   0.331  0.00  0.00    +0.483 P 
ATOM      2  O   UNL     1       1.322   5.236   0.874  0.00  0.00    -0.227 OA
ENDROOT
BRANCH   1   3
ATOM      3  O   UNL     1       2.514   4.204  -1.095  0.00  0.00    -0.302 OA
ATOM      4  H   UNL     1       3.309   3.793  -1.487  0.00  0.00    +0.222 HD
ENDBRANCH   1   3
BRANCH   1   5
ATOM      5  O   UNL     1       2.714   6.530  -0.466  0.00  0.00    -0.186 OA
BRANCH   5   6
ATOM      6  P   UNL     1       1.692   6.444  -1.859  0.00  0.00    +0.486 P 
ATOM      7  O   UNL     1       2.340   7.726  -2.398  0.00  0.00    -0.227 OA
BRANCH   6   8
ATOM      8  O   UNL     1       0.407   6.940  -0.983  0.00  0.00    -0.302 OA
ATOM      9  H   UNL     1       0.047   6.227  -0.414  0.00  0.00    +0.222 HD
ENDBRANCH   6   8
BRANCH   6  10
ATOM     10  O   UNL     1       0.669   6.359  -3.252  0.00  0.00    -0.254 OA
BRANCH  10  11
ATOM     11  C   UNL     1       1.295   5.560  -4.248  0.00  0.00    +0.294 C 
ATOM     12  C   UNL     1       2.728   6.013  -4.643  0.00  0.00    +0.202 C 
ATOM     13  C   UNL     1       2.678   7.253  -5.555  0.00  0.00    +0.179 C 
ATOM     14  C   UNL     1       1.731   7.016  -6.729  0.00  0.00    +0.185 C 
ATOM     15  C   UNL     1       0.343   6.573  -6.227  0.00  0.00    +0.260 C 
ATOM     16  O   UNL     1       0.401   5.446  -5.353  0.00  0.00    -0.331 OA
BRANCH  15  17
ATOM     17  C   UNL     1      -0.525   7.771  -5.789  0.00  0.00    +0.337 C 
ATOM     18  O   UNL     1      -0.683   8.773  -6.474  0.00  0.00    -0.248 OA
BRANCH  17  19
ATOM     19  O   UNL     1      -1.196   7.580  -4.632  0.00  0.00    -0.479 OA
ATOM     20  H   UNL     1      -0.860   6.798  -4.141  0.00  0.00    +0.295 HD
ENDBRANCH  17  19
ENDBRANCH  15  17
BRANCH  14  21
ATOM     21  O   UNL     1       2.320   6.011  -7.574  0.00  0.00    -0.386 OA
ATOM     22  H   UNL     1       1.660   5.762  -8.243  0.00  0.00    +0.210 HD
ENDBRANCH  14  21
BRANCH  13  23
ATOM     23  O   UNL     1       2.255   8.442  -4.893  0.00  0.00    -0.386 OA
ATOM     24  H   UNL     1       2.264   8.337  -3.913  0.00  0.00    +0.210 HD
ENDBRANCH  13  23
BRANCH  12  25
ATOM     25  O   UNL     1       3.433   4.896  -5.202  0.00  0.00    -0.384 OA
ATOM     26  H   UNL     1       4.076   5.241  -5.851  0.00  0.00    +0.210 HD
ENDBRANCH  12  25
ENDBRANCH  10  11
ENDBRANCH   6  10
ENDBRANCH   5   6
ENDBRANCH   1   5
BRANCH   1  27
ATOM     27  O   UNL     1       2.751   3.459   1.129  0.00  0.00    -0.284 OA
BRANCH  27  28
ATOM     28  C   UNL     1       3.955   2.726   0.969  0.00  0.00    +0.206 C 
BRANCH  28  33
ATOM     29  C   UNL     1       2.744   0.491   1.149  0.00  0.00    +0.178 C 
ATOM     30  C   UNL     1       3.239  -0.909   1.492  0.00  0.00    +0.195 C 
ATOM     31  C   UNL     1       4.779  -0.754   1.586  0.00  0.00    +0.255 C 
ATOM     32  O   UNL     1       5.080   0.649   1.407  0.00  0.00    -0.346 OA
ATOM     33  C   UNL     1       3.872   1.373   1.662  0.00  0.00    +0.178 C 
BRANCH  31  34
ATOM     34  N   UNL     1       5.355  -1.248   2.849  0.00  0.00    -0.271 N 
ATOM     35  C   UNL     1       5.180  -2.598   3.141  0.00  0.00    +0.331 A 
ATOM     36  O   UNL     1       4.532  -3.358   2.425  0.00  0.00    -0.246 OA
ATOM     37  N   UNL     1       5.767  -3.038   4.300  0.00  0.00    -0.275 N 
ATOM     38  H   UNL     1       5.675  -4.020   4.513  0.00  0.00    +0.173 HD
ATOM     39  C   UNL     1       6.603  -2.311   5.099  0.00  0.00    +0.254 A 
ATOM     40  O   UNL     1       7.205  -2.789   6.050  0.00  0.00    -0.268 OA
ATOM     41  C   UNL     1       6.761  -0.896   4.736  0.00  0.00    +0.088 A 
ATOM     42  C   UNL     1       6.156  -0.443   3.642  0.00  0.00    +0.098 A 
ENDBRANCH  31  34
BRANCH  29  43
ATOM     43  O   UNL     1       1.511   0.783   1.800  0.00  0.00    -0.386 OA
ATOM     44  H   UNL     1       1.285   1.713   1.607  0.00  0.00    +0.210 HD
ENDBRANCH  29  43
BRANCH  30  45
ATOM     45  O   UNL     1       2.877  -1.828   0.453  0.00  0.00    -0.385 OA
ATOM     46  H   UNL     1       3.127  -2.718   0.777  0.00  0.00    +0.210 HD
ENDBRANCH  30  45
ENDBRANCH  28  33
ENDBRANCH  27  28
ENDBRANCH   1  27
TORSDOF 17
