REMARK  Name = 
REMARK  1 active torsions:
REMARK  status: ('A' for Active; 'I' for Inactive)
REMARK    1  A    between atoms: C_7  and  C_8
REMARK                            x       y       z     vdW  Elec       q    Type
REMARK                         _______ _______ _______ _____ _____    ______ ____
ROOT
ATOM      1  N   UNL     1       1.183  -0.112  -0.065  0.00  0.00    -0.329 N 
ATOM      2  H   UNL     1       0.665   0.690   0.262  0.00  0.00    +0.145 HD
ATOM      3  H   UNL     1       0.751  -1.008   0.134  0.00  0.00    +0.145 HD
ATOM      4  C   UNL     1       2.535  -0.120   0.021  0.00  0.00    +0.195 A 
ATOM      5  N   UNL     1       3.153   1.113   0.065  0.00  0.00    -0.295 N 
ATOM      6  H   UNL     1       2.605   1.955   0.020  0.00  0.00    +0.172 HD
ATOM      7  C   UNL     1       4.523   1.300   0.104  0.00  0.00    +0.263 A 
ATOM      8  O   UNL     1       5.039   2.411   0.116  0.00  0.00    -0.267 OA
ATOM      9  C   UNL     1       5.253   0.061   0.120  0.00  0.00    +0.100 A 
ATOM     10  C   UNL     1       4.526  -1.108   0.103  0.00  0.00    +0.148 A 
ATOM     11  N   UNL     1       5.403  -2.155   0.113  0.00  0.00    -0.344 N 
ATOM     12  H   UNL     1       5.130  -3.129   0.097  0.00  0.00    +0.167 HD
ATOM     13  C   UNL     1       6.689  -1.665   0.127  0.00  0.00    +0.104 A 
ATOM     14  C   UNL     1       6.621  -0.281   0.133  0.00  0.00    +0.083 A 
ATOM     15  N   UNL     1       3.183  -1.253   0.056  0.00  0.00    -0.198 NA
ENDROOT
BRANCH  14  16
ATOM     16  C   UNL     1       7.745   0.600   0.137  0.00  0.00    +0.101 C 
ATOM     17  N   UNL     1       8.684   1.285   0.137  0.00  0.00    -0.191 NA
ENDBRANCH  14  16
TORSDOF 1
