REMARK  Name = 
REMARK  6 active torsions:
REMARK  status: ('A' for Active; 'I' for Inactive)
REMARK    1  A    between atoms: O_1  and  N_2
REMARK    2  A    between atoms: C_5  and  O_6
REMARK    3  A    between atoms: C_5  and  C_14
REMARK    4  A    between atoms: C_8  and  O_10
REMARK    5  A    between atoms: C_11  and  O_13
REMARK    6  A    between atoms: C_14  and  O_15
REMARK                            x       y       z     vdW  Elec       q    Type
REMARK                         _______ _______ _______ _____ _____    ______ ____
ROOT
ATOM      1  N   UNL     1       2.496   0.016  -0.047  0.00  0.00    -0.094 NA
ATOM      2  C   UNL     1       3.068   0.021  -1.215  0.00  0.00    +0.091 C 
ATOM      3  C   UNL     1       4.600  -0.004  -1.294  0.00  0.00    +0.190 C 
ATOM      4  C   UNL     1       5.092   1.170  -2.163  0.00  0.00    +0.152 C 
ATOM      5  C   UNL     1       4.332   1.291  -3.488  0.00  0.00    +0.081 C 
ATOM      6  C   UNL     1       2.813   1.278  -3.329  0.00  0.00    +0.170 C 
ATOM      7  C   UNL     1       2.335   0.066  -2.538  0.00  0.00    +0.103 C 
ENDROOT
BRANCH   1   8
ATOM      8  O   UNL     1       1.103   0.054  -0.153  0.00  0.00    -0.409 OA
ATOM      9  H   UNL     1       0.819   0.130   0.778  0.00  0.00    +0.328 HD
ENDBRANCH   1   8
BRANCH   3  10
ATOM     10  O   UNL     1       5.198   0.056  -0.003  0.00  0.00    -0.383 OA
ATOM     11  H   UNL     1       4.609   0.606   0.549  0.00  0.00    +0.210 HD
ENDBRANCH   3  10
BRANCH   4  12
ATOM     12  O   UNL     1       6.470   0.967  -2.502  0.00  0.00    -0.389 OA
ATOM     13  H   UNL     1       6.857   1.839  -2.695  0.00  0.00    +0.210 HD
ENDBRANCH   4  12
BRANCH   6  14
ATOM     14  O   UNL     1       2.216   1.239  -4.651  0.00  0.00    -0.377 OA
ATOM     15  H   UNL     1       2.315   0.332  -5.000  0.00  0.00    +0.211 HD
ENDBRANCH   6  14
BRANCH   6  16
ATOM     16  C   UNL     1       2.322   2.588  -2.680  0.00  0.00    +0.337 C 
ATOM     17  O   UNL     1       2.674   3.005  -1.589  0.00  0.00    -0.248 OA
BRANCH  16  18
ATOM     18  O   UNL     1       1.462   3.256  -3.489  0.00  0.00    -0.479 OA
ATOM     19  H   UNL     1       1.379   2.733  -4.323  0.00  0.00    +0.295 HD
ENDBRANCH  16  18
ENDBRANCH   6  16
TORSDOF 6
