REMARK  Name = 
REMARK  7 active torsions:
REMARK  status: ('A' for Active; 'I' for Inactive)
REMARK    1  A    between atoms: C_2  and  C_3
REMARK    2  A    between atoms: C_3  and  O_4
REMARK    3  A    between atoms: C_6  and  O_8
REMARK    4  A    between atoms: O_8  and  C_9
REMARK    5  A    between atoms: C_12  and  N_15
REMARK    6  A    between atoms: C_18  and  O_20
REMARK    7  A    between atoms: C_21  and  O_23
REMARK                            x       y       z     vdW  Elec       q    Type
REMARK                         _______ _______ _______ _____ _____    ______ ____
ROOT
ATOM      1  C   UNL     1       2.068  -0.067   0.122  0.00  0.00    +0.179 C 
ATOM      2  C   UNL     1       2.652  -1.325   0.768  0.00  0.00    +0.180 C 
ATOM      3  C   UNL     1       3.837  -0.844   1.597  0.00  0.00    +0.214 C 
ATOM      4  C   UNL     1       3.896   0.665   1.336  0.00  0.00    +0.339 C 
ATOM      5  O   UNL     1       2.597   1.052   0.863  0.00  0.00    -0.331 OA
ENDROOT
BRANCH   2   6
ATOM      6  O   UNL     1       1.665  -1.901   1.645  0.00  0.00    -0.386 OA
ATOM      7  H   UNL     1       1.388  -1.217   2.282  0.00  0.00    +0.210 HD
ENDBRANCH   2   6
BRANCH   3   8
ATOM      8  O   UNL     1       5.046  -1.504   1.210  0.00  0.00    -0.383 OA
ATOM      9  H   UNL     1       5.755  -1.170   1.786  0.00  0.00    +0.210 HD
ENDBRANCH   3   8
BRANCH   4  10
ATOM     10  O   UNL     1       4.244   1.323   2.559  0.00  0.00    -0.461 OA
BRANCH  10  11
ATOM     11  C   UNL     1       4.792   2.570   2.440  0.00  0.00    +0.124 A 
ATOM     12  C   UNL     1       5.624   2.956   3.495  0.00  0.00    +0.052 A 
ATOM     13  C   UNL     1       6.248   4.206   3.488  0.00  0.00    +0.088 A 
ATOM     14  C   UNL     1       6.022   5.080   2.419  0.00  0.00    +0.273 A 
ATOM     15  C   UNL     1       5.172   4.712   1.368  0.00  0.00    +0.088 A 
ATOM     16  C   UNL     1       4.554   3.457   1.387  0.00  0.00    +0.052 A 
BRANCH  14  17
ATOM     17  N   UNL     1       6.671   6.397   2.402  0.00  0.00    +0.080 N 
ATOM     18  O   UNL     1       7.410   6.688   3.355  0.00  0.00    +0.041 OA
ATOM     19  O   UNL     1       6.445   7.139   1.436  0.00  0.00    -0.576 OA
ENDBRANCH  14  17
ENDBRANCH  10  11
ENDBRANCH   4  10
BRANCH   1  20
ATOM     20  C   UNL     1       2.411   0.080  -1.367  0.00  0.00    +0.190 C 
BRANCH  20  21
ATOM     21  O   UNL     1       3.813   0.145  -1.600  0.00  0.00    -0.392 OA
ATOM     22  H   UNL     1       4.057   1.087  -1.623  0.00  0.00    +0.210 HD
ENDBRANCH  20  21
ENDBRANCH   1  20
TORSDOF 7
