REMARK  Name = 
REMARK  6 active torsions:
REMARK  status: ('A' for Active; 'I' for Inactive)
REMARK    1  A    between atoms: N_1  and  C_2
REMARK    2  A    between atoms: C_2  and  C_4
REMARK    3  A    between atoms: C_2  and  C_9
REMARK    4  A    between atoms: C_4  and  C_5
REMARK    5  A    between atoms: C_5  and  C_6
REMARK    6  A    between atoms: C_6  and  O_7
REMARK                            x       y       z     vdW  Elec       q    Type
REMARK                         _______ _______ _______ _____ _____    ______ ____
ROOT
ATOM      1  C   UNL     1       2.421  -0.103  -0.162  0.00  0.00    +0.138 C 
ENDROOT
BRANCH   1   2
ATOM      2  C   UNL     1       2.943  -0.285  -1.602  0.00  0.00    +0.227 C 
ATOM      3  O   UNL     1       4.044   0.109  -1.974  0.00  0.00    -0.274 OA
ATOM      4  N   UNL     1       2.147  -1.027  -2.428  0.00  0.00    -0.328 N 
ATOM      5  H   UNL     1       2.432  -1.054  -3.398  0.00  0.00    +0.145 HD
ATOM      6  H   UNL     1       1.152  -0.966  -2.244  0.00  0.00    +0.145 HD
ENDBRANCH   1   2
BRANCH   1   7
ATOM      7  N   UNL     1       0.935  -0.131  -0.158  0.00  0.00    -0.320 NA
ATOM      8  H   UNL     1       0.624  -1.104  -0.162  0.00  0.00    +0.119 HD
ATOM      9  H   UNL     1       0.615   0.234   0.741  0.00  0.00    +0.119 HD
ENDBRANCH   1   7
BRANCH   1  10
ATOM     10  C   UNL     1       2.957  -1.205   0.759  0.00  0.00    +0.039 C 
BRANCH  10  11
ATOM     11  C   UNL     1       4.487  -1.223   0.834  0.00  0.00    +0.122 C 
BRANCH  11  12
ATOM     12  C   UNL     1       4.980  -2.316   1.750  0.00  0.00    +0.305 C 
ATOM     13  O   UNL     1       4.355  -2.766   2.697  0.00  0.00    -0.251 OA
BRANCH  12  14
ATOM     14  O   UNL     1       6.225  -2.741   1.435  0.00  0.00    -0.481 OA
ATOM     15  H   UNL     1       6.612  -2.298   0.656  0.00  0.00    +0.295 HD
ENDBRANCH  12  14
ENDBRANCH  11  12
ENDBRANCH  10  11
ENDBRANCH   1  10
TORSDOF 6
