REMARK  Name = 
REMARK  11 active torsions:
REMARK  status: ('A' for Active; 'I' for Inactive)
REMARK    1  A    between atoms: C_2  and  C_3
REMARK    2  A    between atoms: C_2  and  N_8
REMARK    3  A    between atoms: C_2  and  C_28
REMARK    4  A    between atoms: C_3  and  C_4
REMARK    5  A    between atoms: C_4  and  C_5
REMARK    6  A    between atoms: C_5  and  O_6
REMARK    7  A    between atoms: C_9  and  C_11
REMARK    8  A    between atoms: C_18  and  C_21
REMARK    9  A    between atoms: C_21  and  P_24
REMARK   10  A    between atoms: P_24  and  O_25
REMARK   11  A    between atoms: P_24  and  O_26
REMARK                            x       y       z     vdW  Elec       q    Type
REMARK                         _______ _______ _______ _____ _____    ______ ____
ROOT
ATOM      1  C   UNL     1       2.639  -3.616   0.267  0.00  0.00    +0.037 A 
ATOM      2  C   UNL     1       3.787  -3.831  -0.498  0.00  0.00    +0.013 A 
ATOM      3  C   UNL     1       4.233  -5.138  -0.733  0.00  0.00    +0.009 A 
ATOM      4  C   UNL     1       3.534  -6.237  -0.210  0.00  0.00    -0.017 A 
ATOM      5  C   UNL     1       3.947  -7.556  -0.455  0.00  0.00    +0.018 A 
ATOM      6  C   UNL     1       3.217  -8.647   0.039  0.00  0.00    +0.033 A 
ATOM      7  C   UNL     1       2.065  -8.411   0.800  0.00  0.00    +0.011 A 
ATOM      8  C   UNL     1       1.653  -7.106   1.067  0.00  0.00    +0.009 A 
ATOM      9  C   UNL     1       2.374  -6.015   0.567  0.00  0.00    -0.017 A 
ATOM     10  C   UNL     1       1.948  -4.705   0.810  0.00  0.00    +0.021 A 
ENDROOT
BRANCH   1  13
ATOM     11  N   UNL     1       2.283  -1.315  -0.435  0.00  0.00    -0.300 N 
ATOM     12  H   UNL     1       2.672  -1.565  -1.340  0.00  0.00    +0.150 HD
ATOM     13  C   UNL     1       2.113  -2.256   0.549  0.00  0.00    +0.245 C 
ATOM     14  O   UNL     1       1.520  -2.023   1.597  0.00  0.00    -0.270 OA
BRANCH  11  15
ATOM     15  C   UNL     1       1.717   0.023  -0.315  0.00  0.00    +0.159 C 
BRANCH  15  16
ATOM     16  C   UNL     1       1.388   0.494  -1.740  0.00  0.00    +0.231 C 
ATOM     17  O   UNL     1       2.019   0.126  -2.728  0.00  0.00    -0.274 OA
ATOM     18  N   UNL     1       0.362   1.387  -1.857  0.00  0.00    -0.328 N 
ATOM     19  H   UNL     1       0.106   1.657  -2.798  0.00  0.00    +0.145 HD
ATOM     20  H   UNL     1      -0.328   1.521  -1.128  0.00  0.00    +0.145 HD
ENDBRANCH  15  16
BRANCH  15  21
ATOM     21  C   UNL     1       2.715   0.943   0.397  0.00  0.00    +0.043 C 
BRANCH  21  22
ATOM     22  C   UNL     1       2.172   2.342   0.667  0.00  0.00    +0.123 C 
BRANCH  22  23
ATOM     23  C   UNL     1       3.198   3.226   1.323  0.00  0.00    +0.305 C 
ATOM     24  O   UNL     1       3.667   4.224   0.801  0.00  0.00    -0.251 OA
BRANCH  23  25
ATOM     25  O   UNL     1       3.543   2.839   2.571  0.00  0.00    -0.481 OA
ATOM     26  H   UNL     1       3.092   2.036   2.886  0.00  0.00    +0.295 HD
ENDBRANCH  23  25
ENDBRANCH  22  23
ENDBRANCH  21  22
ENDBRANCH  15  21
ENDBRANCH  11  15
ENDBRANCH   1  13
BRANCH   6  27
ATOM     27  C   UNL     1       3.584 -10.052  -0.352  0.00  0.00    +0.371 C 
ATOM     28  F   UNL     1       3.110 -11.006   0.508  0.00  0.00    -0.187 F 
ATOM     29  F   UNL     1       4.920 -10.297  -0.483  0.00  0.00    -0.187 F 
BRANCH  27  30
ATOM     30  P   UNL     1       2.818 -10.615  -1.916  0.00  0.00    +0.401 P 
ATOM     31  O   UNL     1       2.170 -11.091  -3.239  0.00  0.00    -0.252 OA
BRANCH  30  32
ATOM     32  O   UNL     1       3.527 -12.106  -1.669  0.00  0.00    -0.320 OA
ATOM     33  H   UNL     1       3.314 -12.491  -0.793  0.00  0.00    +0.220 HD
ENDBRANCH  30  32
BRANCH  30  34
ATOM     34  O   UNL     1       4.139  -9.965  -2.696  0.00  0.00    -0.320 OA
ATOM     35  H   UNL     1       4.924 -10.524  -2.513  0.00  0.00    +0.220 HD
ENDBRANCH  30  34
ENDBRANCH  27  30
ENDBRANCH   6  27
TORSDOF 11
