REMARK  Name = 
REMARK  7 active torsions:
REMARK  status: ('A' for Active; 'I' for Inactive)
REMARK    1  A    between atoms: C_1  and  C_2
REMARK    2  A    between atoms: C_4  and  C_5
REMARK    3  A    between atoms: C_7  and  O_8
REMARK    4  A    between atoms: O_8  and  P_9
REMARK    5  A    between atoms: P_9  and  O_10
REMARK    6  A    between atoms: P_9  and  O_11
REMARK    7  A    between atoms: C_13  and  C_14
REMARK                            x       y       z     vdW  Elec       q    Type
REMARK                         _______ _______ _______ _____ _____    ______ ____
ROOT
ATOM      1  C   UNL     1       0.928   0.058   0.010  0.00  0.00    +0.044 C 
ATOM      2  C   UNL     1       2.425   0.016   0.048  0.00  0.00    -0.049 A 
ATOM      3  C   UNL     1       3.098  -1.211   0.101  0.00  0.00    +0.018 A 
ATOM      4  C   UNL     1       4.506  -1.284   0.125  0.00  0.00    +0.057 A 
ATOM      5  C   UNL     1       5.252  -0.098   0.130  0.00  0.00    +0.152 A 
ATOM      6  C   UNL     1       4.566   1.133   0.066  0.00  0.00    +0.057 A 
ATOM      7  C   UNL     1       3.171   1.190   0.015  0.00  0.00    +0.018 A 
ENDROOT
BRANCH   4   8
ATOM      8  C   UNL     1       5.072  -2.650   0.062  0.00  0.00    +0.262 C 
ATOM      9  O   UNL     1       4.399  -3.637   0.353  0.00  0.00    -0.296 OA
ENDBRANCH   4   8
BRANCH   6  10
ATOM     10  C   UNL     1       5.311   2.417   0.060  0.00  0.00    +0.262 C 
ATOM     11  O   UNL     1       4.777   3.480  -0.231  0.00  0.00    -0.296 OA
ENDBRANCH   6  10
BRANCH   5  12
ATOM     12  O   UNL     1       6.599   0.061   0.174  0.00  0.00    -0.403 OA
BRANCH  12  13
ATOM     13  P   UNL     1       7.786  -0.895   0.597  0.00  0.00    +0.528 P 
ATOM     14  O   UNL     1       7.533  -1.945   1.616  0.00  0.00    -0.216 OA
BRANCH  13  15
ATOM     15  O   UNL     1       8.893   0.163   1.059  0.00  0.00    -0.293 OA
ATOM     16  H   UNL     1       8.694   0.515   1.948  0.00  0.00    +0.223 HD
ENDBRANCH  13  15
BRANCH  13  17
ATOM     17  O   UNL     1       8.395  -1.355  -0.803  0.00  0.00    -0.293 OA
ATOM     18  H   UNL     1       8.799  -0.600  -1.270  0.00  0.00    +0.223 HD
ENDBRANCH  13  17
ENDBRANCH  12  13
ENDBRANCH   5  12
TORSDOF 6
