REMARK  Name = 
REMARK  8 active torsions:
REMARK  status: ('A' for Active; 'I' for Inactive)
REMARK    1  A    between atoms: O_1  and  C_2
REMARK    2  A    between atoms: C_2  and  C_3
REMARK    3  A    between atoms: C_6  and  O_8
REMARK    4  A    between atoms: O_8  and  P_9
REMARK    5  A    between atoms: P_9  and  O_10
REMARK    6  A    between atoms: P_9  and  O_11
REMARK    7  A    between atoms: C_13  and  O_15
REMARK    8  A    between atoms: C_16  and  O_18
REMARK                            x       y       z     vdW  Elec       q    Type
REMARK                         _______ _______ _______ _____ _____    ______ ____
ROOT
ATOM      1  C   UNL     1       2.724  -1.092  -0.922  0.00  0.00    +0.178 C 
ATOM      2  C   UNL     1       1.979  -2.369  -0.551  0.00  0.00    +0.179 C 
ATOM      3  C   UNL     1       2.980  -3.489  -0.801  0.00  0.00    +0.202 C 
ATOM      4  C   UNL     1       4.303  -2.774  -1.138  0.00  0.00    +0.293 C 
ATOM      5  O   UNL     1       4.133  -1.381  -0.874  0.00  0.00    -0.340 OA
ENDROOT
BRANCH   2   6
ATOM      6  O   UNL     1       0.787  -2.523  -1.328  0.00  0.00    -0.386 OA
ATOM      7  H   UNL     1       1.019  -3.157  -2.039  0.00  0.00    +0.210 HD
ENDBRANCH   2   6
BRANCH   3   8
ATOM      8  O   UNL     1       2.496  -4.371  -1.824  0.00  0.00    -0.384 OA
ATOM      9  H   UNL     1       2.142  -5.161  -1.378  0.00  0.00    +0.210 HD
ENDBRANCH   3   8
BRANCH   1  10
ATOM     10  C   UNL     1       2.415   0.068   0.028  0.00  0.00    +0.190 C 
BRANCH  10  11
ATOM     11  O   UNL     1       2.699  -0.299   1.380  0.00  0.00    -0.392 OA
ATOM     12  H   UNL     1       2.568   0.498   1.922  0.00  0.00    +0.210 HD
ENDBRANCH  10  11
ENDBRANCH   1  10
BRANCH   4  13
ATOM     13  O   UNL     1       4.660  -2.968  -2.490  0.00  0.00    -0.254 OA
BRANCH  13  14
ATOM     14  P   UNL     1       6.183  -2.256  -2.895  0.00  0.00    +0.475 P 
ATOM     15  O   UNL     1       7.547  -1.618  -3.258  0.00  0.00    -0.227 OA
BRANCH  14  16
ATOM     16  O   UNL     1       5.885  -2.634  -4.459  0.00  0.00    -0.303 OA
ATOM     17  H   UNL     1       6.709  -2.399  -4.934  0.00  0.00    +0.222 HD
ENDBRANCH  14  16
BRANCH  14  18
ATOM     18  O   UNL     1       6.819  -3.726  -2.544  0.00  0.00    -0.303 OA
ATOM     19  H   UNL     1       6.649  -4.304  -3.310  0.00  0.00    +0.222 HD
ENDBRANCH  14  18
ENDBRANCH  13  14
ENDBRANCH   4  13
TORSDOF 8
