REMARK  Name = 
REMARK  10 active torsions:
REMARK  status: ('A' for Active; 'I' for Inactive)
REMARK    1  A    between atoms: C_1  and  O_2
REMARK    2  A    between atoms: O_2  and  C_3
REMARK    3  A    between atoms: C_3  and  C_5
REMARK    4  A    between atoms: C_5  and  C_7
REMARK    5  A    between atoms: C_5  and  N_22
REMARK    6  A    between atoms: C_7  and  C_8
REMARK    7  A    between atoms: C_11  and  C_14
REMARK    8  A    between atoms: C_15  and  C_16
REMARK    9  A    between atoms: C_23  and  C_25
REMARK   10  A    between atoms: C_25  and  C_26
REMARK                            x       y       z     vdW  Elec       q    Type
REMARK                         _______ _______ _______ _____ _____    ______ ____
ROOT
ATOM      1  C   UNL     1       6.055  -1.637  -1.254  0.00  0.00    +0.186 C 
ENDROOT
BRANCH   1   2
ATOM      2  N   UNL     1       7.065  -1.118  -2.183  0.00  0.00    -0.302 N 
ATOM      3  H   UNL     1       7.496  -1.763  -2.835  0.00  0.00    +0.150 HD
ATOM      4  C   UNL     1       7.331   0.228  -2.260  0.00  0.00    +0.214 C 
ATOM      5  O   UNL     1       6.719   1.062  -1.604  0.00  0.00    -0.276 OA
BRANCH   4   6
ATOM      6  C   UNL     1       8.419   0.588  -3.254  0.00  0.00    +0.102 C 
BRANCH   6   7
ATOM      7  C   UNL     1       9.236   1.839  -2.892  0.00  0.00    +0.030 C 
ATOM      8  C   UNL     1       8.417   3.145  -2.899  0.00  0.00    +0.191 C 
ATOM      9  N   UNL     1       9.314   4.271  -2.601  0.00  0.00    -0.225 N 
ATOM     10  C   UNL     1       9.414   5.379  -3.384  0.00  0.00    +0.362 C 
ATOM     11  N   UNL     1      10.436   6.154  -3.482  0.00  0.00    -0.133 NA
ATOM     12  H   UNL     1      11.192   5.761  -2.920  0.00  0.00    +0.306 HD
ATOM     13  N   UNL     1       8.324   5.694  -4.112  0.00  0.00    -0.252 N 
ATOM     14  H   UNL     1       8.453   6.617  -4.514  0.00  0.00    +0.241 HD
ATOM     15  H   UNL     1       7.472   5.649  -3.570  0.00  0.00    +0.241 HD
ATOM     16  C   UNL     1       9.971   4.170  -1.295  0.00  0.00    +0.187 C 
ATOM     17  C   UNL     1      10.826   2.907  -1.248  0.00  0.00    +0.035 C 
ATOM     18  C   UNL     1       9.985   1.669  -1.559  0.00  0.00    +0.010 C 
ENDBRANCH   6   7
ENDBRANCH   4   6
ENDBRANCH   1   2
BRANCH   1  19
ATOM     19  C   UNL     1       4.993  -2.352  -2.090  0.00  0.00    +0.328 C 
ATOM     20  O   UNL     1       5.108  -3.493  -2.524  0.00  0.00    -0.249 OA
BRANCH  19  22
ATOM     21  C   UNL     1       3.001  -2.038  -3.296  0.00  0.00    +0.280 C 
ATOM     22  O   UNL     1       3.972  -1.502  -2.397  0.00  0.00    -0.467 OA
ENDBRANCH  19  22
ENDBRANCH   1  19
BRANCH   1  23
ATOM     23  C   UNL     1       6.667  -2.611  -0.226  0.00  0.00    +0.069 C 
BRANCH  23  24
ATOM     24  C   UNL     1       7.691  -1.952   0.677  0.00  0.00    -0.045 A 
ATOM     25  C   UNL     1       9.038  -1.887   0.293  0.00  0.00    +0.005 A 
ATOM     26  C   UNL     1       9.965  -1.177   1.062  0.00  0.00    +0.017 A 
ATOM     27  C   UNL     1       9.557  -0.530   2.229  0.00  0.00    +0.025 A 
ATOM     28  C   UNL     1       8.231  -0.639   2.650  0.00  0.00    +0.017 A 
ATOM     29  C   UNL     1       7.301  -1.343   1.877  0.00  0.00    +0.005 A 
BRANCH  27  30
ATOM     30  C   UNL     1      10.477   0.298   2.947  0.00  0.00    -0.061 C 
ATOM     31  C   UNL     1      11.228   1.055   3.502  0.00  0.00    -0.061 C 
BRANCH  31  32
ATOM     32  C   UNL     1      12.101   2.007   4.117  0.00  0.00    +0.025 A 
ATOM     33  C   UNL     1      13.355   2.272   3.560  0.00  0.00    +0.017 A 
ATOM     34  C   UNL     1      14.194   3.223   4.144  0.00  0.00    +0.001 A 
ATOM     35  C   UNL     1      13.782   3.911   5.287  0.00  0.00    +0.000 A 
ATOM     36  C   UNL     1      12.532   3.647   5.845  0.00  0.00    +0.001 A 
ATOM     37  C   UNL     1      11.692   2.696   5.262  0.00  0.00    +0.017 A 
ENDBRANCH  31  32
ENDBRANCH  27  30
ENDBRANCH  23  24
ENDBRANCH   1  23
TORSDOF 9
