REMARK  Name = 
REMARK  9 active torsions:
REMARK  status: ('A' for Active; 'I' for Inactive)
REMARK    1  A    between atoms: C_1  and  C_2
REMARK    2  A    between atoms: C_2  and  C_3
REMARK    3  A    between atoms: C_3  and  C_4
REMARK    4  A    between atoms: C_4  and  N_5
REMARK    5  A    between atoms: C_6  and  C_7
REMARK    6  A    between atoms: C_7  and  C_8
REMARK    7  A    between atoms: C_11  and  O_12
REMARK    8  A    between atoms: O_12  and  C_13
REMARK    9  A    between atoms: C_18  and  N_19
REMARK                            x       y       z     vdW  Elec       q    Type
REMARK                         _______ _______ _______ _____ _____    ______ ____
ROOT
ATOM      1  N   UNL     1       4.700  -2.128  -2.002  0.00  0.00    -0.312 N 
ATOM      2  C   UNL     1       4.543  -3.490  -1.947  0.00  0.00    +0.166 A 
ATOM      3  C   UNL     1       5.161  -3.968  -3.085  0.00  0.00    +0.148 A 
ATOM      4  C   UNL     1       5.064  -5.350  -3.327  0.00  0.00    +0.147 A 
ATOM      5  N   UNL     1       4.466  -6.126  -2.395  0.00  0.00    -0.219 NA
ATOM      6  C   UNL     1       3.945  -5.526  -1.303  0.00  0.00    +0.225 A 
ATOM      7  N   UNL     1       5.793  -2.944  -3.754  0.00  0.00    -0.227 NA
ATOM      8  N   UNL     1       3.910  -4.211  -1.007  0.00  0.00    -0.216 NA
ATOM      9  C   UNL     1       5.540  -1.844  -3.061  0.00  0.00    +0.116 A 
ENDROOT
BRANCH   4  10
ATOM     10  N   UNL     1       5.557  -5.967  -4.468  0.00  0.00    -0.341 N 
ATOM     11  H   UNL     1       5.703  -6.958  -4.340  0.00  0.00    +0.144 HD
ATOM     12  H   UNL     1       6.269  -5.432  -4.953  0.00  0.00    +0.144 HD
ENDBRANCH   4  10
BRANCH   1  13
ATOM     13  C   UNL     1       4.089  -1.203  -1.067  0.00  0.00    +0.125 C 
BRANCH  13  14
ATOM     14  C   UNL     1       3.080  -0.232  -1.691  0.00  0.00    +0.021 C 
BRANCH  14  16
ATOM     15  C   UNL     1       0.981   0.092  -3.044  0.00  0.00    +0.004 C 
ATOM     16  C   UNL     1       1.959  -0.923  -2.471  0.00  0.00    -0.002 C 
ENDBRANCH  14  16
ENDBRANCH  13  14
ENDBRANCH   1  13
BRANCH   9  17
ATOM     17  C   UNL     1       6.157  -0.487  -3.319  0.00  0.00    +0.109 C 
BRANCH  17  18
ATOM     18  C   UNL     1       6.112   0.046  -4.742  0.00  0.00    -0.040 A 
ATOM     19  C   UNL     1       6.801   1.238  -5.035  0.00  0.00    +0.007 A 
ATOM     20  C   UNL     1       6.962   1.682  -6.357  0.00  0.00    +0.046 A 
ATOM     21  C   UNL     1       6.434   0.937  -7.407  0.00  0.00    +0.120 A 
ATOM     22  C   UNL     1       5.679  -0.198  -7.116  0.00  0.00    +0.046 A 
ATOM     23  C   UNL     1       5.499  -0.629  -5.800  0.00  0.00    +0.007 A 
BRANCH  21  24
ATOM     24  O   UNL     1       6.623   1.158  -8.741  0.00  0.00    -0.495 OA
ATOM     25  C   UNL     1       7.041   2.455  -9.137  0.00  0.00    +0.277 C 
ENDBRANCH  21  24
ENDBRANCH  17  18
ENDBRANCH   9  17
TORSDOF 7
