REMARK  Name = 
REMARK  11 active torsions:
REMARK  status: ('A' for Active; 'I' for Inactive)
REMARK    1  A    between atoms: C_1  and  O_2
REMARK    2  A    between atoms: O_2  and  P_3
REMARK    3  A    between atoms: P_3  and  N_5
REMARK    4  A    between atoms: P_3  and  O_22
REMARK    5  A    between atoms: N_5  and  C_6
REMARK    6  A    between atoms: C_9  and  C_11
REMARK    7  A    between atoms: C_11  and  O_12
REMARK    8  A    between atoms: C_13  and  O_15
REMARK    9  A    between atoms: C_16  and  O_18
REMARK   10  A    between atoms: C_19  and  O_21
REMARK   11  A    between atoms: O_22  and  C_23
REMARK                            x       y       z     vdW  Elec       q    Type
REMARK                         _______ _______ _______ _____ _____    ______ ____
ROOT
ATOM      1  C   UNL     1       0.461  -1.461   0.090  0.00  0.00    +0.227 C 
ATOM      2  C   UNL     1       1.162  -1.324  -1.305  0.00  0.00    +0.189 C 
ATOM      3  C   UNL     1       1.698   0.070  -1.708  0.00  0.00    +0.178 C 
ATOM      4  C   UNL     1       1.119   1.277  -0.973  0.00  0.00    +0.176 C 
ATOM      5  C   UNL     1       0.132   0.998   0.173  0.00  0.00    +0.177 C 
ATOM      6  O   UNL     1      -0.331  -0.327   0.406  0.00  0.00    -0.351 OA
ENDROOT
BRANCH   1   7
ATOM      7  N   UNL     1       1.339  -1.929   1.173  0.00  0.00    -0.194 NA
ATOM      8  H   UNL     1       1.956  -2.635   0.788  0.00  0.00    +0.136 HD
BRANCH   7   9
ATOM      9  P   UNL     1       0.916  -2.520   2.733  0.00  0.00    +0.410 P 
ATOM     10  O   UNL     1       0.962  -1.305   3.674  0.00  0.00    -0.240 OA
BRANCH   9  12
ATOM     11  C   UNL     1       2.915  -3.233   4.300  0.00  0.00    +0.206 C 
ATOM     12  O   UNL     1       2.608  -2.771   2.992  0.00  0.00    -0.300 OA
ENDBRANCH   9  12
BRANCH   9  13
ATOM     13  O   UNL     1      -0.776  -2.269   2.475  0.00  0.00    -0.300 OA
ATOM     14  C   UNL     1      -1.592  -2.318   3.631  0.00  0.00    +0.206 C 
ENDBRANCH   9  13
ENDBRANCH   7   9
ENDBRANCH   1   7
BRANCH   2  15
ATOM     15  O   UNL     1       0.261  -1.774  -2.348  0.00  0.00    -0.385 OA
ATOM     16  H   UNL     1       0.677  -1.585  -3.212  0.00  0.00    +0.210 HD
ENDBRANCH   2  15
BRANCH   3  17
ATOM     17  O   UNL     1       3.141   0.130  -1.693  0.00  0.00    -0.386 OA
ATOM     18  H   UNL     1       3.492  -0.568  -1.119  0.00  0.00    +0.210 HD
ENDBRANCH   3  17
BRANCH   4  19
ATOM     19  O   UNL     1       0.437   2.087  -1.973  0.00  0.00    -0.386 OA
ATOM     20  H   UNL     1       0.355   2.989  -1.617  0.00  0.00    +0.210 HD
ENDBRANCH   4  19
BRANCH   5  21
ATOM     21  C   UNL     1       0.610   1.637   1.480  0.00  0.00    +0.190 C 
BRANCH  21  22
ATOM     22  O   UNL     1       1.819   1.048   1.947  0.00  0.00    -0.392 OA
ATOM     23  H   UNL     1       1.555   0.225   2.416  0.00  0.00    +0.210 HD
ENDBRANCH  21  22
ENDBRANCH   5  21
TORSDOF 9
