REMARK  Name = 
REMARK  12 active torsions:
REMARK  status: ('A' for Active; 'I' for Inactive)
REMARK    1  A    between atoms: O_1  and  N_2
REMARK    2  A    between atoms: N_2  and  C_3
REMARK    3  A    between atoms: C_3  and  O_5
REMARK    4  A    between atoms: C_3  and  C_6
REMARK    5  A    between atoms: C_6  and  O_8
REMARK    6  A    between atoms: C_6  and  C_9
REMARK    7  A    between atoms: C_9  and  O_11
REMARK    8  A    between atoms: C_9  and  C_12
REMARK    9  A    between atoms: C_12  and  O_13
REMARK   10  A    between atoms: O_13  and  P_14
REMARK   11  A    between atoms: P_14  and  O_15
REMARK   12  A    between atoms: P_14  and  O_16
REMARK                            x       y       z     vdW  Elec       q    Type
REMARK                         _______ _______ _______ _____ _____    ______ ____
ROOT
ATOM      1  C   UNL     1       4.827  -2.393   1.853  0.00  0.00    +0.173 C 
ENDROOT
BRANCH   1   2
ATOM      2  O   UNL     1       4.313  -3.606   1.268  0.00  0.00    -0.387 OA
ATOM      3  H   UNL     1       4.722  -3.657   0.386  0.00  0.00    +0.210 HD
ENDBRANCH   1   2
BRANCH   1   4
ATOM      4  C   UNL     1       4.265  -2.215   3.272  0.00  0.00    +0.190 C 
BRANCH   4   5
ATOM      5  O   UNL     1       4.825  -1.028   3.869  0.00  0.00    -0.385 OA
ATOM      6  H   UNL     1       4.448  -1.004   4.771  0.00  0.00    +0.210 HD
ENDBRANCH   4   5
BRANCH   4   7
ATOM      7  C   UNL     1       4.519  -3.413   4.222  0.00  0.00    +0.237 C 
BRANCH   7   8
ATOM      8  N   UNL     1       3.868  -3.190   5.523  0.00  0.00    -0.173 NA
ATOM      9  H   UNL     1       4.146  -3.989   6.103  0.00  0.00    +0.157 HD
BRANCH   8  10
ATOM     10  O   UNL     1       2.450  -3.463   5.314  0.00  0.00    -0.313 OA
ATOM     11  H   UNL     1       2.011  -2.813   5.899  0.00  0.00    +0.236 HD
ENDBRANCH   8  10
ENDBRANCH   7   8
BRANCH   7  12
ATOM     12  O   UNL     1       5.907  -3.524   4.496  0.00  0.00    -0.373 OA
ATOM     13  H   UNL     1       6.184  -2.614   4.709  0.00  0.00    +0.212 HD
ENDBRANCH   7  12
ENDBRANCH   4   7
ENDBRANCH   1   4
BRANCH   1  14
ATOM     14  C   UNL     1       6.358  -2.386   1.748  0.00  0.00    +0.206 C 
BRANCH  14  15
ATOM     15  O   UNL     1       6.691  -2.424   0.360  0.00  0.00    -0.284 OA
BRANCH  15  16
ATOM     16  P   UNL     1       8.388  -2.362   0.032  0.00  0.00    +0.472 P 
ATOM     17  O   UNL     1       9.908  -2.306  -0.261  0.00  0.00    -0.228 OA
BRANCH  16  18
ATOM     18  O   UNL     1       8.207  -0.742  -0.002  0.00  0.00    -0.303 OA
ATOM     19  H   UNL     1       8.010  -0.476  -0.914  0.00  0.00    +0.222 HD
ENDBRANCH  16  18
BRANCH  16  20
ATOM     20  O   UNL     1       8.008  -2.585  -1.542  0.00  0.00    -0.303 OA
ATOM     21  H   UNL     1       8.857  -2.736  -2.005  0.00  0.00    +0.222 HD
ENDBRANCH  16  20
ENDBRANCH  15  16
ENDBRANCH  14  15
ENDBRANCH   1  14
TORSDOF 12
