REMARK  Name = 
REMARK  5 active torsions:
REMARK  status: ('A' for Active; 'I' for Inactive)
REMARK    1  A    between atoms: O_1  and  C_2
REMARK    2  A    between atoms: C_2  and  C_4
REMARK    3  A    between atoms: C_4  and  S_5
REMARK    4  A    between atoms: S_5  and  C_6
REMARK    5  A    between atoms: C_8  and  C_11
REMARK                            x       y       z     vdW  Elec       q    Type
REMARK                         _______ _______ _______ _____ _____    ______ ____
ROOT
ATOM      1  C   UNL     1       5.902  -0.939   2.812  0.00  0.00    +0.287 A 
ATOM      2  O   UNL     1       5.668  -2.275   2.959  0.00  0.00    -0.326 OA
ATOM      3  N   UNL     1       6.371  -2.682   4.093  0.00  0.00    -0.055 NA
ATOM      4  C   UNL     1       6.962  -1.555   4.523  0.00  0.00    +0.203 A 
ATOM      5  N   UNL     1       6.674  -0.450   3.752  0.00  0.00    -0.182 NA
ENDROOT
BRANCH   4   6
ATOM      6  C   UNL     1       7.842  -1.478   5.686  0.00  0.00    +0.024 A 
ATOM      7  C   UNL     1       8.358  -0.241   6.098  0.00  0.00    +0.031 A 
ATOM      8  C   UNL     1       9.206  -0.164   7.204  0.00  0.00    +0.042 A 
ATOM      9 CL   UNL     1       9.829   1.363   7.696  0.00  0.00    -0.084 Cl
ATOM     10  C   UNL     1       9.555  -1.311   7.912  0.00  0.00    +0.020 A 
ATOM     11  C   UNL     1       9.050  -2.548   7.512  0.00  0.00    +0.002 A 
ATOM     12  C   UNL     1       8.198  -2.630   6.406  0.00  0.00    +0.012 A 
ENDBRANCH   4   6
BRANCH   1  13
ATOM     13  S   UNL     1       5.306   0.015   1.490  0.00  0.00    -0.054 S 
BRANCH  13  14
ATOM     14  C   UNL     1       3.521  -0.261   1.673  0.00  0.00    +0.199 C 
BRANCH  14  15
ATOM     15  C   UNL     1       2.733   0.466   0.603  0.00  0.00    +0.315 C 
ATOM     16  O   UNL     1       1.615   0.115   0.248  0.00  0.00    -0.250 OA
BRANCH  15  17
ATOM     17  O   UNL     1       3.309   1.589   0.117  0.00  0.00    -0.480 OA
ATOM     18  H   UNL     1       4.210   1.733   0.470  0.00  0.00    +0.295 HD
ENDBRANCH  15  17
ENDBRANCH  14  15
ENDBRANCH  13  14
ENDBRANCH   1  13
TORSDOF 5
