REMARK  Name = 
REMARK  5 active torsions:
REMARK  status: ('A' for Active; 'I' for Inactive)
REMARK    1  A    between atoms: C_1  and  C_2
REMARK    2  A    between atoms: C_3  and  C_4
REMARK    3  A    between atoms: C_4  and  N_5
REMARK    4  A    between atoms: N_5  and  C_6
REMARK    5  A    between atoms: C_23  and  N_24
REMARK                            x       y       z     vdW  Elec       q    Type
REMARK                         _______ _______ _______ _____ _____    ______ ____
ROOT
ATOM      1  C   UNL     1       0.988   0.022  -0.148  0.00  0.00    +0.045 C 
ATOM      2  C   UNL     1       2.493   0.139  -0.181  0.00  0.00    -0.030 A 
ATOM      3  C   UNL     1       3.136   1.433  -0.191  0.00  0.00    +0.062 A 
ATOM      4  C   UNL     1       4.535   1.475  -0.188  0.00  0.00    +0.167 A 
ATOM      5  N   UNL     1       5.231   2.598  -0.179  0.00  0.00    -0.195 NA
ATOM      6  C   UNL     1       4.571   3.743  -0.210  0.00  0.00    +0.216 A 
ATOM      7  N   UNL     1       3.251   3.855  -0.199  0.00  0.00    -0.199 NA
ATOM      8  N   UNL     1       5.311   4.906  -0.216  0.00  0.00    -0.327 N 
ATOM      9  H   UNL     1       4.780   5.672   0.169  0.00  0.00    +0.145 HD
ATOM     10  H   UNL     1       6.235   4.735   0.156  0.00  0.00    +0.145 HD
ATOM     11  N   UNL     1       5.271   0.367  -0.184  0.00  0.00    -0.235 NA
ATOM     12  C   UNL     1       4.666  -0.834  -0.166  0.00  0.00    +0.118 A 
ATOM     13  C   UNL     1       2.550   2.716  -0.196  0.00  0.00    +0.131 A 
ATOM     14  C   UNL     1       3.295  -1.017  -0.136  0.00  0.00    -0.009 A 
ENDROOT
BRANCH  13  15
ATOM     15  N   UNL     1       1.170   2.933  -0.221  0.00  0.00    -0.342 N 
ATOM     16  H   UNL     1       0.699   2.507   0.566  0.00  0.00    +0.144 HD
ATOM     17  H   UNL     1       1.032   3.942  -0.221  0.00  0.00    +0.144 HD
ENDBRANCH  13  15
BRANCH  14  18
ATOM     18  C   UNL     1       2.765  -2.406   0.090  0.00  0.00    +0.138 C 
BRANCH  18  19
ATOM     19  N   UNL     1       2.316  -3.069  -1.110  0.00  0.00    -0.339 N 
ATOM     20  H   UNL     1       2.944  -2.955  -1.904  0.00  0.00    +0.146 HD
BRANCH  19  21
ATOM     21  C   UNL     1       1.698  -4.339  -1.089  0.00  0.00    +0.037 A 
ATOM     22  C   UNL     1       1.187  -5.053   0.069  0.00  0.00    +0.021 A 
ATOM     23  C   UNL     1       0.429  -6.235  -0.134  0.00  0.00    +0.073 A 
ATOM     24  N   UNL     1      -0.125  -6.959   0.856  0.00  0.00    -0.255 NA
ATOM     25  C   UNL     1       0.043  -6.556   2.128  0.00  0.00    +0.111 A 
ATOM     26  C   UNL     1       0.786  -5.459   2.471  0.00  0.00    +0.020 A 
ATOM     27  C   UNL     1       0.214  -6.711  -1.415  0.00  0.00    +0.028 A 
ATOM     28  C   UNL     1       0.702  -6.047  -2.533  0.00  0.00    +0.004 A 
ATOM     29  C   UNL     1       1.370  -4.731   1.441  0.00  0.00    +0.013 A 
ATOM     30  C   UNL     1       1.417  -4.867  -2.373  0.00  0.00    +0.023 A 
ENDBRANCH  19  21
ENDBRANCH  18  19
ENDBRANCH  14  18
TORSDOF 4
