REMARK  Name = 
REMARK  11 active torsions:
REMARK  status: ('A' for Active; 'I' for Inactive)
REMARK    1  A    between atoms: CA_2  and  C_3
REMARK    2  A    between atoms: CA_2  and  N_24
REMARK    3  A    between atoms: CA_2  and  C_28
REMARK    4  A    between atoms: C_3  and  C_4
REMARK    5  A    between atoms: C_7  and  O_8
REMARK    6  A    between atoms: O_8  and  C_9
REMARK    7  A    between atoms: C_11  and  N_19
REMARK    8  A    between atoms: C_12  and  O_13
REMARK    9  A    between atoms: C_14  and  N_16
REMARK   10  A    between atoms: C_25  and  C_26
REMARK   11  A    between atoms: C_28  and  O_29
REMARK                            x       y       z     vdW  Elec       q    Type
REMARK                         _______ _______ _______ _____ _____    ______ ____
ROOT
ATOM      1  C   UNL     1       1.925   2.103   1.287  0.00  0.00    -0.045 A 
ATOM      2  C   UNL     1       2.794   3.119   1.729  0.00  0.00    +0.007 A 
ATOM      3  C   UNL     1       2.409   4.465   1.704  0.00  0.00    +0.046 A 
ATOM      4  C   UNL     1       1.137   4.804   1.253  0.00  0.00    +0.128 A 
ATOM      5  C   UNL     1       0.239   3.800   0.897  0.00  0.00    +0.046 A 
ATOM      6  C   UNL     1       0.620   2.459   0.934  0.00  0.00    +0.007 A 
ENDROOT
BRANCH   1   7
ATOM      7  C   UNL     1       2.491   0.702   1.133  0.00  0.00    +0.069 C 
BRANCH   7   8
ATOM      8  CA  UNL     1       1.571  -0.400   0.568  0.00  0.00    +0.186 C 
BRANCH   8   9
ATOM      9  N   UNL     1       2.238  -1.698   0.444  0.00  0.00    -0.302 N 
ATOM     10  H   UNL     1       2.476  -2.025  -0.489  0.00  0.00    +0.150 HD
ATOM     11  C   UNL     1       2.648  -2.425   1.531  0.00  0.00    +0.211 C 
ATOM     12  O   UNL     1       2.478  -2.053   2.687  0.00  0.00    -0.276 OA
ATOM     13  C   UNL     1       3.299  -3.738   1.193  0.00  0.00    +0.109 C 
ENDBRANCH   8   9
BRANCH   8  14
ATOM     14  C   UNL     1       1.106  -0.069  -0.856  0.00  0.00    +0.326 C 
ATOM     15  OXT UNL     1       1.831   0.354  -1.746  0.00  0.00    -0.249 OA
BRANCH  14  16
ATOM     16  O   UNL     1      -0.176  -0.441  -1.101  0.00  0.00    -0.479 OA
ATOM     17  H   UNL     1      -0.615  -0.889  -0.351  0.00  0.00    +0.295 HD
ENDBRANCH  14  16
ENDBRANCH   8  14
ENDBRANCH   7   8
ENDBRANCH   1   7
BRANCH   4  18
ATOM     18  O   UNL     1       0.712   6.075   0.966  0.00  0.00    -0.456 OA
BRANCH  18  19
ATOM     19  C   UNL     1       1.090   7.147   1.727  0.00  0.00    +0.142 A 
ATOM     20  C   UNL     1       1.168   7.131   3.114  0.00  0.00    +0.134 A 
ATOM     21  C   UNL     1       1.374   8.345   3.784  0.00  0.00    +0.324 A 
ATOM     22  C   UNL     1       1.518   9.567   3.115  0.00  0.00    +0.274 A 
ATOM     23  C   UNL     1       1.454   9.553   1.715  0.00  0.00    +0.324 A 
ATOM     24  C   UNL     1       1.231   8.350   1.026  0.00  0.00    +0.134 A 
BRANCH  21  25
ATOM     25  N   UNL     1       1.373   8.311   5.231  0.00  0.00    +0.084 N 
ATOM     26  O   UNL     1       2.326   7.730   5.771  0.00  0.00    +0.042 OA
ATOM     27  O   UNL     1       0.388   8.788   5.802  0.00  0.00    -0.576 OA
ENDBRANCH  21  25
BRANCH  23  28
ATOM     28  N   UNL     1       1.589  10.786   0.930  0.00  0.00    +0.084 N 
ATOM     29  O   UNL     1       1.743  11.844   1.561  0.00  0.00    +0.042 OA
ATOM     30  O   UNL     1       1.541  10.702  -0.303  0.00  0.00    -0.576 OA
ENDBRANCH  23  28
BRANCH  22  31
ATOM     31  O   UNL     1       1.709  10.698   3.861  0.00  0.00    -0.497 OA
ATOM     32  H   UNL     1       1.723  11.500   3.294  0.00  0.00    +0.293 HD
ENDBRANCH  22  31
ENDBRANCH  18  19
ENDBRANCH   4  18
TORSDOF 10
