REMARK  Name = 
REMARK  11 active torsions:
REMARK  status: ('A' for Active; 'I' for Inactive)
REMARK    1  A    between atoms: N_8  and  C_9
REMARK    2  A    between atoms: C_12  and  C_14
REMARK    3  A    between atoms: C_14  and  O_15
REMARK    4  A    between atoms: O_15  and  P_16
REMARK    5  A    between atoms: P_16  and  O_17
REMARK    6  A    between atoms: P_16  and  C_19
REMARK    7  A    between atoms: C_19  and  P_20
REMARK    8  A    between atoms: P_20  and  O_21
REMARK    9  A    between atoms: P_20  and  O_22
REMARK   10  A    between atoms: C_24  and  O_26
REMARK   11  A    between atoms: C_27  and  O_29
REMARK                            x       y       z     vdW  Elec       q    Type
REMARK                         _______ _______ _______ _____ _____    ______ ____
ROOT
ATOM      1  C   UNL     1       5.017  -3.735  -0.015  0.00  0.00    +0.253 C 
ATOM      2  C   UNL     1       4.927  -4.180   1.459  0.00  0.00    +0.195 C 
ATOM      3  C   UNL     1       5.077  -5.705   1.421  0.00  0.00    +0.178 C 
ATOM      4  C   UNL     1       5.244  -6.013  -0.064  0.00  0.00    +0.178 C 
ATOM      5  O   UNL     1       5.748  -4.807  -0.658  0.00  0.00    -0.346 OA
ENDROOT
BRANCH   1  17
ATOM      6  N   UNL     1       1.208  -0.869   2.201  0.00  0.00    -0.329 N 
ATOM      7  H   UNL     1       0.444  -0.208   2.226  0.00  0.00    +0.145 HD
ATOM      8  H   UNL     1       2.060  -0.589   2.674  0.00  0.00    +0.145 HD
ATOM      9  C   UNL     1       1.424  -1.588   1.084  0.00  0.00    +0.195 A 
ATOM     10  N   UNL     1       0.355  -1.761   0.223  0.00  0.00    -0.293 N 
ATOM     11  H   UNL     1      -0.541  -1.381   0.470  0.00  0.00    +0.172 HD
ATOM     12  C   UNL     1       0.389  -2.477  -0.967  0.00  0.00    +0.280 A 
ATOM     13  O   UNL     1      -0.599  -2.592  -1.685  0.00  0.00    -0.265 OA
ATOM     14  C   UNL     1       1.696  -3.048  -1.213  0.00  0.00    +0.172 A 
ATOM     15  N   UNL     1       2.144  -3.829  -2.239  0.00  0.00    -0.229 NA
ATOM     16  C   UNL     1       3.390  -4.099  -1.923  0.00  0.00    +0.203 A 
ATOM     17  N   UNL     1       3.758  -3.547  -0.715  0.00  0.00    -0.285 N 
ATOM     18  C   UNL     1       2.689  -2.815  -0.285  0.00  0.00    +0.171 A 
ATOM     19  N   UNL     1       2.618  -2.080   0.849  0.00  0.00    -0.196 NA
ENDBRANCH   1  17
BRANCH   2  20
ATOM     20  O   UNL     1       6.027  -3.622   2.213  0.00  0.00    -0.385 OA
ATOM     21  H   UNL     1       6.861  -3.929   1.815  0.00  0.00    +0.210 HD
ENDBRANCH   2  20
BRANCH   3  22
ATOM     22  O   UNL     1       3.933  -6.360   1.958  0.00  0.00    -0.386 OA
ATOM     23  H   UNL     1       4.055  -7.320   1.815  0.00  0.00    +0.210 HD
ENDBRANCH   3  22
BRANCH   4  24
ATOM     24  C   UNL     1       6.147  -7.194  -0.341  0.00  0.00    +0.204 C 
BRANCH  24  25
ATOM     25  O   UNL     1       5.579  -8.316   0.312  0.00  0.00    -0.305 OA
BRANCH  25  26
ATOM     26  P   UNL     1       6.414  -9.799   0.006  0.00  0.00    +0.342 P 
ATOM     27  O   UNL     1       5.338 -10.537   0.806  0.00  0.00    -0.258 OA
BRANCH  26  28
ATOM     28  O   UNL     1       7.490  -9.370   1.173  0.00  0.00    -0.324 OA
ATOM     29  H   UNL     1       7.036  -9.455   2.040  0.00  0.00    +0.220 HD
ENDBRANCH  26  28
BRANCH  26  30
ATOM     30  C   UNL     1       7.298 -11.369  -0.319  0.00  0.00    +0.253 C 
BRANCH  30  31
ATOM     31  P   UNL     1       6.139 -12.772  -0.131  0.00  0.00    +0.339 P 
ATOM     32  O   UNL     1       5.158 -13.959   0.029  0.00  0.00    -0.258 OA
BRANCH  31  33
ATOM     33  O   UNL     1       7.419 -13.718  -0.557  0.00  0.00    -0.324 OA
ATOM     34  H   UNL     1       7.116 -14.484  -1.076  0.00  0.00    +0.220 HD
ENDBRANCH  31  33
BRANCH  31  35
ATOM     35  O   UNL     1       5.689 -12.400  -1.677  0.00  0.00    -0.324 OA
ATOM     36  H   UNL     1       4.782 -12.724  -1.846  0.00  0.00    +0.220 HD
ENDBRANCH  31  35
ENDBRANCH  30  31
ENDBRANCH  26  30
ENDBRANCH  25  26
ENDBRANCH  24  25
ENDBRANCH   4  24
TORSDOF 11
