REMARK  Name = 
REMARK  4 active torsions:
REMARK  status: ('A' for Active; 'I' for Inactive)
REMARK    1  A    between atoms: O_1  and  C_2
REMARK    2  A    between atoms: C_4  and  C_6
REMARK    3  A    between atoms: C_9  and  N_14
REMARK    4  A    between atoms: C_11  and  O_13
REMARK                            x       y       z     vdW  Elec       q    Type
REMARK                         _______ _______ _______ _____ _____    ______ ____
ROOT
ATOM      1  C   UNL     1       2.295 -10.487   2.762  0.00  0.00    +0.181 C 
ATOM      2  C   UNL     1       2.590  -9.303   1.847  0.00  0.00    +0.217 C 
ATOM      3  C   UNL     1       3.190  -9.953   0.583  0.00  0.00    +0.340 C 
ATOM      4  O   UNL     1       3.117 -11.385   0.751  0.00  0.00    -0.329 OA
ATOM      5  C   UNL     1       2.149 -11.633   1.778  0.00  0.00    +0.185 C 
ENDROOT
BRANCH   3   6
ATOM      6  N   UNL     1       2.518  -9.548  -0.631  0.00  0.00    -0.149 N 
ATOM      7  C   UNL     1       2.498  -8.277  -1.129  0.00  0.00    +0.338 C 
ATOM      8  N   UNL     1       2.850  -7.150  -0.621  0.00  0.00    -0.004 NA
ATOM      9  C   UNL     1       2.433  -6.031  -1.310  0.00  0.00    +0.505 C 
ATOM     10  N   UNL     1       1.531  -5.993  -2.241  0.00  0.00    +0.001 NA
ATOM     11  C   UNL     1       0.991  -7.171  -2.673  0.00  0.00    +0.374 C 
ATOM     12  N   UNL     1      -0.117  -7.108  -3.326  0.00  0.00    -0.096 NA
ATOM     13  H   UNL     1      -0.376  -6.116  -3.338  0.00  0.00    +0.363 HD
ATOM     14  C   UNL     1       1.807  -8.405  -2.472  0.00  0.00    +0.344 C 
ATOM     15  N   UNL     1       1.075  -9.724  -2.383  0.00  0.00    -0.226 NA
ATOM     16  C   UNL     1       1.638 -10.300  -1.353  0.00  0.00    +0.304 C 
ENDBRANCH   3   6
BRANCH   1  17
ATOM     17  O   UNL     1       1.102 -10.275   3.510  0.00  0.00    -0.386 OA
ATOM     18  H   UNL     1       0.935 -11.082   4.034  0.00  0.00    +0.210 HD
ENDBRANCH   1  17
BRANCH   2  19
ATOM     19  O   UNL     1       3.525  -8.421   2.484  0.00  0.00    -0.383 OA
ATOM     20  H   UNL     1       3.523  -7.587   1.979  0.00  0.00    +0.210 HD
ENDBRANCH   2  19
BRANCH   5  21
ATOM     21  C   UNL     1       2.366 -12.991   2.419  0.00  0.00    +0.247 C 
ATOM     22  F   UNL     1       1.449 -13.165   3.408  0.00  0.00    -0.246 F 
ENDBRANCH   5  21
TORSDOF 4
