REMARK  Name = 
REMARK  4 active torsions:
REMARK  status: ('A' for Active; 'I' for Inactive)
REMARK    1  A    between atoms: C_2  and  O_3
REMARK    2  A    between atoms: C_15  and  O_17
REMARK    3  A    between atoms: C_20  and  C_21
REMARK    4  A    between atoms: C_26  and  C_27
REMARK                            x       y       z     vdW  Elec       q    Type
REMARK                         _______ _______ _______ _____ _____    ______ ____
ROOT
ATOM      1  C   UNL     1      -0.000  -0.000   0.000  0.00  0.00    +0.121 C 
ATOM      2  C   UNL     1      -0.000  -0.000   0.000  0.00  0.00    -0.003 C 
ATOM      3  C   UNL     1      -0.000  -0.000   0.000  0.00  0.00    +0.014 C 
ATOM      4  C   UNL     1      -0.000  -0.000   0.000  0.00  0.00    +0.001 C 
ATOM      5  C   UNL     1      -0.000  -0.000   0.000  0.00  0.00    -0.004 C 
ATOM      6  C   UNL     1      -0.000  -0.000  -0.000  0.00  0.00    -0.001 C 
ATOM      7  C   UNL     1      -0.000  -0.000  -0.000  0.00  0.00    +0.005 C 
ATOM      8  C   UNL     1      -0.000  -0.000   0.000  0.00  0.00    -0.026 C 
ATOM      9  C   UNL     1      -0.000  -0.000  -0.000  0.00  0.00    +0.012 C 
ATOM     10  C   UNL     1      -0.000  -0.000   0.000  0.00  0.00    -0.002 C 
ATOM     11  C   UNL     1      -0.000  -0.000   0.000  0.00  0.00    +0.035 C 
ATOM     12  C   UNL     1      -0.000  -0.000   0.000  0.00  0.00    +0.115 C 
ATOM     13  C   UNL     1      -0.000  -0.000  -0.000  0.00  0.00    +0.032 C 
ATOM     14  C   UNL     1      -0.000  -0.000   0.000  0.00  0.00    +0.004 C 
ATOM     15  C   UNL     1      -0.000  -0.000  -0.000  0.00  0.00    +0.010 C 
ATOM     16  C   UNL     1      -0.000  -0.000  -0.000  0.00  0.00    +0.004 C 
ATOM     17  C   UNL     1      -0.000  -0.000   0.000  0.00  0.00    +0.007 C 
ATOM     18  C   UNL     1      -0.000  -0.000   0.000  0.00  0.00    +0.010 C 
ATOM     19  C   UNL     1      -0.000  -0.000  -0.000  0.00  0.00    +0.032 C 
ENDROOT
BRANCH   1  20
ATOM     20  O   UNL     1      -0.000  -0.000  -0.000  0.00  0.00    -0.391 OA
ATOM     21  H   UNL     1       0.000   0.000   0.000  0.00  0.00    +0.210 HD
ENDBRANCH   1  20
BRANCH  12  22
ATOM     22  O   UNL     1      -0.000  -0.000   0.000  0.00  0.00    -0.392 OA
ATOM     23  H   UNL     1       0.000   0.000   0.000  0.00  0.00    +0.210 HD
ENDBRANCH  12  22
TORSDOF 2
