REMARK  Name = 
REMARK  5 active torsions:
REMARK  status: ('A' for Active; 'I' for Inactive)
REMARK    1  A    between atoms: N_1  and  C_2
REMARK    2  A    between atoms: C_5  and  C_6
REMARK    3  A    between atoms: C_6  and  C_7
REMARK    4  A    between atoms: C_7  and  C_8
REMARK    5  A    between atoms: C_8  and  O_9
REMARK                            x       y       z     vdW  Elec       q    Type
REMARK                         _______ _______ _______ _____ _____    ______ ____
ROOT
ATOM      1  C   UNL     1       2.306  -0.030   0.058  0.00  0.00    +0.025 A 
ATOM      2  C   UNL     1       3.043  -1.213   0.026  0.00  0.00    +0.023 A 
ATOM      3  C   UNL     1       4.427  -1.190  -0.171  0.00  0.00    +0.005 A 
ATOM      4  C   UNL     1       5.113   0.027  -0.286  0.00  0.00    -0.047 A 
ATOM      5  C   UNL     1       4.376   1.214  -0.207  0.00  0.00    +0.005 A 
ATOM      6  C   UNL     1       2.993   1.181  -0.004  0.00  0.00    +0.023 A 
ENDROOT
BRANCH   1   7
ATOM      7  N   UNL     1       0.943  -0.050   0.373  0.00  0.00    -0.358 N 
ATOM      8  H   UNL     1       0.468  -0.898   0.080  0.00  0.00    +0.142 HD
ATOM      9  H   UNL     1       0.446   0.786   0.080  0.00  0.00    +0.142 HD
ENDBRANCH   1   7
BRANCH   4  10
ATOM     10  C   UNL     1       6.610   0.009  -0.498  0.00  0.00    +0.046 C 
BRANCH  10  11
ATOM     11  C   UNL     1       7.395   1.204   0.037  0.00  0.00    +0.125 C 
BRANCH  11  12
ATOM     12  C   UNL     1       7.411   1.448   1.531  0.00  0.00    +0.305 C 
ATOM     13  O   UNL     1       8.027   2.391   2.013  0.00  0.00    -0.251 OA
BRANCH  12  14
ATOM     14  O   UNL     1       6.743   0.587   2.318  0.00  0.00    -0.481 OA
ATOM     15  H   UNL     1       6.194  -0.085   1.877  0.00  0.00    +0.295 HD
ENDBRANCH  12  14
ENDBRANCH  11  12
ENDBRANCH  10  11
ENDBRANCH   4  10
TORSDOF 5
