REMARK  Name = 
REMARK  10 active torsions:
REMARK  status: ('A' for Active; 'I' for Inactive)
REMARK    1  A    between atoms: N_1  and  CA_2
REMARK    2  A    between atoms: CA_2  and  C_4
REMARK    3  A    between atoms: CA_2  and  C_13
REMARK    4  A    between atoms: C_4  and  C_5
REMARK    5  A    between atoms: C_5  and  C_6
REMARK    6  A    between atoms: C_6  and  CA_7
REMARK    7  A    between atoms: CA_7  and  N_9
REMARK    8  A    between atoms: CA_7  and  C_10
REMARK    9  A    between atoms: C_10  and  O_11
REMARK   10  A    between atoms: C_13  and  O_14
REMARK                            x       y       z     vdW  Elec       q    Type
REMARK                         _______ _______ _______ _____ _____    ______ ____
ROOT
ATOM      1  C   UNL     1       2.817  -3.836  -1.398  0.00  0.00    +0.004 C 
ENDROOT
BRANCH   1   2
ATOM      2  C   UNL     1       3.191  -4.913  -0.373  0.00  0.00    +0.030 C 
BRANCH   2   3
ATOM      3  CA  UNL     1       3.101  -4.425   1.082  0.00  0.00    +0.161 C 
BRANCH   3   4
ATOM      4  N   UNL     1       1.716  -4.036   1.487  0.00  0.00    -0.318 NA
ATOM      5  H1  UNL     1       1.231  -3.604   0.694  0.00  0.00    +0.119 HD
ATOM      6  H2  UNL     1       1.187  -4.901   1.642  0.00  0.00    +0.119 HD
ENDBRANCH   3   4
BRANCH   3   7
ATOM      7  C   UNL     1       4.048  -3.233   1.328  0.00  0.00    +0.322 C 
ATOM      8  OXT UNL     1       5.230  -3.199   1.030  0.00  0.00    -0.249 OA
BRANCH   7   9
ATOM      9  O   UNL     1       3.392  -2.196   1.911  0.00  0.00    -0.480 OA
ATOM     10  H   UNL     1       2.469  -2.520   2.065  0.00  0.00    +0.295 HD
ENDBRANCH   7   9
ENDBRANCH   3   7
ENDBRANCH   2   3
ENDBRANCH   1   2
BRANCH   1  11
ATOM     11  C   UNL     1       2.936  -4.320  -2.850  0.00  0.00    +0.030 C 
BRANCH  11  12
ATOM     12  CA  UNL     1       2.522  -3.247  -3.875  0.00  0.00    +0.161 C 
BRANCH  12  13
ATOM     13  N   UNL     1       3.331  -2.004  -3.717  0.00  0.00    -0.318 NA
ATOM     14  H1  UNL     1       4.322  -2.261  -3.751  0.00  0.00    +0.119 HD
ATOM     15  H2  UNL     1       3.191  -1.426  -4.553  0.00  0.00    +0.119 HD
ENDBRANCH  12  13
BRANCH  12  16
ATOM     16  C   UNL     1       1.040  -2.886  -3.685  0.00  0.00    +0.322 C 
ATOM     17  OXT UNL     1       0.098  -3.571  -4.039  0.00  0.00    -0.249 OA
BRANCH  16  18
ATOM     18  O   UNL     1       0.905  -1.720  -2.995  0.00  0.00    -0.480 OA
ATOM     19  H   UNL     1       1.825  -1.389  -2.835  0.00  0.00    +0.295 HD
ENDBRANCH  16  18
ENDBRANCH  12  16
ENDBRANCH  11  12
ENDBRANCH   1  11
TORSDOF 10
