REMARK  Name = 
REMARK  6 active torsions:
REMARK  status: ('A' for Active; 'I' for Inactive)
REMARK    1  A    between atoms: C_1  and  C_2
REMARK    2  A    between atoms: C_3  and  C_29
REMARK    3  A    between atoms: C_7  and  O_8
REMARK    4  A    between atoms: C_16  and  O_18
REMARK    5  A    between atoms: C_21  and  C_22
REMARK    6  A    between atoms: C_26  and  O_28
REMARK                            x       y       z     vdW  Elec       q    Type
REMARK                         _______ _______ _______ _____ _____    ______ ____
ROOT
ATOM      1  C   UNL     1       0.000   0.000   0.000  0.00  0.00    +0.017 C 
ATOM      2  C   UNL     1      -0.000  -0.000  -0.000  0.00  0.00    +0.029 C 
ATOM      3  C   UNL     1      -0.000  -0.000  -0.000  0.00  0.00    +0.124 C 
ATOM      4  C   UNL     1      -0.000  -0.000  -0.000  0.00  0.00    +0.036 C 
ATOM      5  C   UNL     1      -0.000  -0.000  -0.000  0.00  0.00    +0.003 C 
ATOM      6  C   UNL     1      -0.000  -0.000  -0.000  0.00  0.00    +0.025 C 
ATOM      7  C   UNL     1      -0.000  -0.000  -0.000  0.00  0.00    +0.007 C 
ATOM      8  C   UNL     1      -0.000  -0.000  -0.000  0.00  0.00    +0.004 C 
ATOM      9  C   UNL     1      -0.000  -0.000  -0.000  0.00  0.00    -0.002 C 
ATOM     10  C   UNL     1      -0.000  -0.000  -0.000  0.00  0.00    +0.035 C 
ATOM     11  C   UNL     1      -0.000  -0.000  -0.000  0.00  0.00    +0.115 C 
ATOM     12  C   UNL     1      -0.000  -0.000  -0.000  0.00  0.00    +0.032 C 
ATOM     13  C   UNL     1      -0.000  -0.000  -0.000  0.00  0.00    +0.010 C 
ATOM     14  C   UNL     1      -0.000  -0.000  -0.000  0.00  0.00    -0.026 C 
ATOM     15  C   UNL     1      -0.000  -0.000  -0.000  0.00  0.00    +0.012 C 
ATOM     16  C   UNL     1      -0.000  -0.000  -0.000  0.00  0.00    +0.077 C 
ATOM     17  C   UNL     1      -0.000  -0.000  -0.000  0.00  0.00    +0.036 C 
ATOM     18  C   UNL     1      -0.000  -0.000  -0.000  0.00  0.00    +0.011 C 
ATOM     19  C   UNL     1      -0.000  -0.000  -0.000  0.00  0.00    +0.030 C 
ENDROOT
BRANCH  19  20
ATOM     20  C   UNL     1      -0.000  -0.000  -0.000  0.00  0.00    -0.022 C 
ATOM     21  C   UNL     1      -0.000  -0.000  -0.000  0.00  0.00    +0.264 C 
ATOM     22  O   UNL     1      -0.000  -0.000  -0.000  0.00  0.00    -0.457 OA
ATOM     23  C   UNL     1      -0.000  -0.000  -0.000  0.00  0.00    +0.332 C 
ATOM     24  O   UNL     1      -0.000  -0.000  -0.000  0.00  0.00    -0.246 OA
ATOM     25  C   UNL     1      -0.000  -0.000  -0.000  0.00  0.00    +0.094 C 
ENDBRANCH  19  20
BRANCH   3  26
ATOM     26  O   UNL     1      -0.000  -0.000  -0.000  0.00  0.00    -0.391 OA
ATOM     27  H   UNL     1       0.000   0.000   0.000  0.00  0.00    +0.210 HD
ENDBRANCH   3  26
BRANCH  11  28
ATOM     28  O   UNL     1      -0.000  -0.000  -0.000  0.00  0.00    -0.392 OA
ATOM     29  H   UNL     1       0.000   0.000   0.000  0.00  0.00    +0.210 HD
ENDBRANCH  11  28
BRANCH  16  30
ATOM     30  O   UNL     1      -0.000  -0.000  -0.000  0.00  0.00    -0.388 OA
ATOM     31  H   UNL     1       0.000   0.000   0.000  0.00  0.00    +0.210 HD
ENDBRANCH  16  30
TORSDOF 4
