REMARK  Name = 
REMARK  10 active torsions:
REMARK  status: ('A' for Active; 'I' for Inactive)
REMARK    1  A    between atoms: C_1  and  S_2
REMARK    2  A    between atoms: S_2  and  C_3
REMARK    3  A    between atoms: C_3  and  C_4
REMARK    4  A    between atoms: C_4  and  C_5
REMARK    5  A    between atoms: C_5  and  N_7
REMARK    6  A    between atoms: C_5  and  C_8
REMARK    7  A    between atoms: C_11  and  C_12
REMARK    8  A    between atoms: C_15  and  O_16
REMARK    9  A    between atoms: N_21  and  C_22
REMARK   10  A    between atoms: C_22  and  C_23
REMARK                            x       y       z     vdW  Elec       q    Type
REMARK                         _______ _______ _______ _____ _____    ______ ____
ROOT
ATOM      1  C   UNL     1       6.966  -0.941  -3.043  0.00  0.00    +0.314 C 
ATOM      2  N   UNL     1       7.767   0.115  -3.323  0.00  0.00    -0.145 N 
ATOM      3  C   UNL     1       9.063  -0.323  -3.287  0.00  0.00    +0.379 C 
ATOM      4  O   UNL     1      10.087   0.284  -3.534  0.00  0.00    -0.237 OA
ATOM      5  C   UNL     1       8.921  -1.725  -2.805  0.00  0.00    +0.263 C 
ATOM      6  C   UNL     1       9.951  -2.461  -2.369  0.00  0.00    +0.071 C 
ATOM      7  N   UNL     1       7.587  -2.043  -2.739  0.00  0.00    -0.037 NA
ENDROOT
BRANCH   6   8
ATOM      8  C   UNL     1       9.740  -3.723  -1.650  0.00  0.00    -0.020 A 
ATOM      9  C   UNL     1       9.590  -3.696  -0.255  0.00  0.00    +0.011 A 
ATOM     10  C   UNL     1       9.288  -4.864   0.447  0.00  0.00    +0.046 A 
ATOM     11  C   UNL     1       9.132  -6.057  -0.246  0.00  0.00    +0.117 A 
ATOM     12  C   UNL     1       9.311  -6.110  -1.626  0.00  0.00    +0.046 A 
ATOM     13  C   UNL     1       9.617  -4.940  -2.329  0.00  0.00    +0.011 A 
BRANCH  11  14
ATOM     14  O   UNL     1       8.781  -7.164   0.468  0.00  0.00    -0.507 OA
ATOM     15  H   UNL     1       8.528  -7.863  -0.156  0.00  0.00    +0.292 HD
ENDBRANCH  11  14
ENDBRANCH   6   8
BRANCH   1  16
ATOM     16  C   UNL     1       5.440  -0.908  -3.059  0.00  0.00    +0.169 C 
BRANCH  16  17
ATOM     17  N   UNL     1       4.965  -0.080  -4.182  0.00  0.00    -0.318 NA
ATOM     18  H   UNL     1       5.244  -0.542  -5.051  0.00  0.00    +0.119 HD
ATOM     19  H   UNL     1       3.944  -0.121  -4.204  0.00  0.00    +0.119 HD
ENDBRANCH  16  17
BRANCH  16  20
ATOM     20  C   UNL     1       4.889  -0.468  -1.694  0.00  0.00    +0.041 C 
BRANCH  20  21
ATOM     21  C   UNL     1       3.368  -0.576  -1.539  0.00  0.00    +0.071 C 
BRANCH  21  23
ATOM     22  C   UNL     1       1.001  -2.010  -1.598  0.00  0.00    +0.084 C 
ATOM     23  S   UNL     1       2.779  -2.290  -1.754  0.00  0.00    -0.164 S 
ENDBRANCH  21  23
ENDBRANCH  20  21
ENDBRANCH  16  20
ENDBRANCH   1  16
BRANCH   2  24
ATOM     24  C   UNL     1       7.433   1.529  -3.429  0.00  0.00    +0.306 C 
BRANCH  24  25
ATOM     25  C   UNL     1       7.242   2.013  -4.847  0.00  0.00    +0.267 C 
ATOM     26  O   UNL     1       6.940   3.175  -5.120  0.00  0.00    -0.297 OA
ENDBRANCH  24  25
ENDBRANCH   2  24
TORSDOF 9
