REMARK  Name = 
REMARK  12 active torsions:
REMARK  status: ('A' for Active; 'I' for Inactive)
REMARK    1  A    between atoms: O_1  and  C_2
REMARK    2  A    between atoms: C_2  and  C_4
REMARK    3  A    between atoms: C_5  and  C_41
REMARK    4  A    between atoms: C_7  and  O_8
REMARK    5  A    between atoms: O_8  and  C_9
REMARK    6  A    between atoms: C_10  and  N_11
REMARK    7  A    between atoms: C_12  and  C_14
REMARK    8  A    between atoms: C_16  and  N_20
REMARK    9  A    between atoms: C_24  and  N_25
REMARK   10  A    between atoms: C_26  and  C_28
REMARK   11  A    between atoms: C_30  and  N_34
REMARK   12  A    between atoms: C_41  and  O_42
REMARK                            x       y       z     vdW  Elec       q    Type
REMARK                         _______ _______ _______ _____ _____    ______ ____
ROOT
ATOM      1  C   UNL     1       4.777   5.057   2.754  0.00  0.00    +0.150 A 
ATOM      2  C   UNL     1       5.574   6.015   3.406  0.00  0.00    +0.050 A 
ATOM      3  C   UNL     1       5.329   7.401   3.264  0.00  0.00    +0.027 A 
ATOM      4  C   UNL     1       4.211   7.848   2.564  0.00  0.00    +0.036 A 
ATOM      5  C   UNL     1       3.355   6.880   2.052  0.00  0.00    +0.050 A 
ATOM      6  C   UNL     1       3.666   5.515   2.044  0.00  0.00    +0.078 A 
ENDROOT
BRANCH   4   7
ATOM      7  N   UNL     1       3.989   9.235   2.340  0.00  0.00    -0.281 N 
ATOM      8  H   UNL     1       4.682   9.871   2.710  0.00  0.00    +0.155 HD
ATOM      9  C   UNL     1       3.034   9.737   1.458  0.00  0.00    +0.248 C 
ATOM     10  O   UNL     1       2.193   9.104   0.826  0.00  0.00    -0.270 OA
BRANCH   9  11
ATOM     11  C   UNL     1       3.008  11.193   1.207  0.00  0.00    +0.043 A 
ATOM     12  C   UNL     1       3.124  12.126   2.238  0.00  0.00    +0.013 A 
ATOM     13  C   UNL     1       2.929  13.483   1.960  0.00  0.00    +0.007 A 
ATOM     14  C   UNL     1       2.619  13.906   0.662  0.00  0.00    +0.084 A 
ATOM     15  C   UNL     1       2.504  12.962  -0.368  0.00  0.00    +0.274 A 
ATOM     16  C   UNL     1       2.696  11.608  -0.101  0.00  0.00    +0.097 A 
BRANCH  15  17
ATOM     17  N   UNL     1       2.153  13.397  -1.727  0.00  0.00    +0.080 N 
ATOM     18  O   UNL     1       1.976  14.608  -1.915  0.00  0.00    +0.041 OA
ATOM     19  O   UNL     1       2.063  12.531  -2.608  0.00  0.00    -0.576 OA
ENDBRANCH  15  17
ENDBRANCH   9  11
ENDBRANCH   4   7
BRANCH   6  20
ATOM     20  N   UNL     1       2.829   4.672   1.281  0.00  0.00    -0.278 N 
ATOM     21  H   UNL     1       2.857   3.677   1.462  0.00  0.00    +0.155 HD
ATOM     22  C   UNL     1       2.320   5.106   0.054  0.00  0.00    +0.249 C 
ATOM     23  O   UNL     1       2.723   6.067  -0.592  0.00  0.00    -0.270 OA
BRANCH  22  24
ATOM     24  C   UNL     1       1.233   4.292  -0.533  0.00  0.00    +0.043 A 
ATOM     25  C   UNL     1       1.138   4.217  -1.932  0.00  0.00    +0.013 A 
ATOM     26  C   UNL     1       0.163   3.419  -2.528  0.00  0.00    +0.007 A 
ATOM     27  C   UNL     1      -0.723   2.699  -1.728  0.00  0.00    +0.084 A 
ATOM     28  C   UNL     1      -0.659   2.822  -0.329  0.00  0.00    +0.274 A 
ATOM     29  C   UNL     1       0.304   3.638   0.274  0.00  0.00    +0.097 A 
BRANCH  28  30
ATOM     30  N   UNL     1      -1.577   2.052   0.515  0.00  0.00    +0.080 N 
ATOM     31  O   UNL     1      -2.474   1.406  -0.042  0.00  0.00    +0.041 OA
ATOM     32  O   UNL     1      -1.368   2.054   1.737  0.00  0.00    -0.576 OA
ENDBRANCH  28  30
ENDBRANCH  22  24
ENDBRANCH   6  20
BRANCH   1  33
ATOM     33  O   UNL     1       5.055   3.697   2.768  0.00  0.00    -0.454 OA
BRANCH  33  37
ATOM     34  C   UNL     1       9.099   2.496   2.906  0.00  0.00    +0.073 A 
ATOM     35  C   UNL     1       8.077   1.732   3.512  0.00  0.00    +0.019 A 
ATOM     36  C   UNL     1       6.731   2.145   3.477  0.00  0.00    +0.047 A 
ATOM     37  C   UNL     1       6.374   3.279   2.759  0.00  0.00    +0.129 A 
ATOM     38  C   UNL     1       7.370   3.984   2.087  0.00  0.00    +0.062 A 
ATOM     39  C   UNL     1       8.743   3.717   2.293  0.00  0.00    +0.076 A 
BRANCH  34  40
ATOM     40  C   UNL     1      10.499   1.994   2.936  0.00  0.00    +0.338 C 
ATOM     41  O   UNL     1      11.467   2.714   2.758  0.00  0.00    -0.245 OA
BRANCH  40  42
ATOM     42  O   UNL     1      10.651   0.661   3.076  0.00  0.00    -0.477 OA
ATOM     43  H   UNL     1       9.868   0.096   2.943  0.00  0.00    +0.295 HD
ENDBRANCH  40  42
ENDBRANCH  34  40
BRANCH  39  44
ATOM     44  C   UNL     1       9.582   4.932   2.052  0.00  0.00    +0.338 C 
ATOM     45  O   UNL     1       9.043   6.034   2.080  0.00  0.00    -0.245 OA
BRANCH  44  46
ATOM     46  O   UNL     1      10.894   4.837   1.820  0.00  0.00    -0.477 OA
ATOM     47  H   UNL     1      11.331   3.982   2.032  0.00  0.00    +0.295 HD
ENDBRANCH  44  46
ENDBRANCH  39  44
ENDBRANCH  33  37
ENDBRANCH   1  33
TORSDOF 12
