REMARK  Name = 
REMARK  0 active torsions:
REMARK  status: ('A' for Active; 'I' for Inactive)
REMARK                            x       y       z     vdW  Elec       q    Type
REMARK                         _______ _______ _______ _____ _____    ______ ____
ROOT
ATOM      1  O   UNL     1       1.299   0.406  -0.221  0.00  0.00    -0.253 OA
ATOM      2  C   UNL     1       2.487   0.229  -0.032  0.00  0.00    +0.303 C 
ATOM      3  N   UNL     1       3.386   1.183   0.399  0.00  0.00    -0.278 N 
ATOM      4  H   UNL     1       3.096   2.127   0.598  0.00  0.00    +0.152 HD
ATOM      5  C   UNL     1       4.717   0.666   0.418  0.00  0.00    +0.202 C 
ATOM      6  C   UNL     1       4.521  -0.846   0.167  0.00  0.00    +0.202 C 
ATOM      7  N   UNL     1       4.768  -1.431   1.445  0.00  0.00    -0.278 N 
ATOM      8  H   UNL     1       4.560  -2.375   1.732  0.00  0.00    +0.152 HD
ATOM      9  C   UNL     1       5.232  -0.492   2.342  0.00  0.00    +0.303 C 
ATOM     10  O   UNL     1       5.522  -0.704   3.506  0.00  0.00    -0.253 OA
ATOM     11  N   UNL     1       5.307   0.734   1.711  0.00  0.00    -0.278 N 
ATOM     12  H   UNL     1       5.500   1.571   2.238  0.00  0.00    +0.152 HD
ATOM     13  N   UNL     1       3.160  -0.961  -0.230  0.00  0.00    -0.278 N 
ATOM     14  H   UNL     1       2.672  -1.804  -0.491  0.00  0.00    +0.152 HD
ENDROOT
TORSDOF 0
