REMARK  Name = 
REMARK  2 active torsions:
REMARK  status: ('A' for Active; 'I' for Inactive)
REMARK    1  A    between atoms: S_1  and  C_2
REMARK    2  A    between atoms: C_2  and  C_3
REMARK                            x       y       z     vdW  Elec       q    Type
REMARK                         _______ _______ _______ _____ _____    ______ ____
ROOT
ATOM      1  C   UNL     1       3.128   0.520  -1.418  0.00  0.00    -0.025 A 
ATOM      2  C   UNL     1       3.480  -0.294  -2.510  0.00  0.00    +0.017 A 
ATOM      3  I   UNL     1       3.516  -2.394  -2.420  0.00  0.00    -0.044 I 
ATOM      4  C   UNL     1       3.829   0.279  -3.741  0.00  0.00    +0.014 A 
ATOM      5  C   UNL     1       3.831   1.664  -3.901  0.00  0.00    +0.001 A 
ATOM      6  C   UNL     1       3.485   2.483  -2.832  0.00  0.00    +0.000 A 
ATOM      7  C   UNL     1       3.136   1.917  -1.606  0.00  0.00    +0.005 A 
ENDROOT
BRANCH   1   8
ATOM      8  C   UNL     1       2.704  -0.008  -0.070  0.00  0.00    +0.101 C 
BRANCH   8   9
ATOM      9  S   UNL     1       0.915  -0.306   0.011  0.00  0.00    -0.174 S 
ATOM     10  H   UNL     1       0.900  -0.779   1.265  0.00  0.00    +0.102 HD
ENDBRANCH   8   9
ENDBRANCH   1   8
TORSDOF 2
