REMARK  Name = 
REMARK  7 active torsions:
REMARK  status: ('A' for Active; 'I' for Inactive)
REMARK    1  A    between atoms: O_1  and  C_2
REMARK    2  A    between atoms: C_6  and  O_7
REMARK    3  A    between atoms: C_9  and  O_10
REMARK    4  A    between atoms: C_14  and  C_16
REMARK    5  A    between atoms: C_18  and  O_19
REMARK    6  A    between atoms: C_20  and  O_21
REMARK    7  A    between atoms: C_22  and  O_23
REMARK                            x       y       z     vdW  Elec       q    Type
REMARK                         _______ _______ _______ _____ _____    ______ ____
ROOT
ATOM      1  C   UNL     1       2.373  -0.019   0.059  0.00  0.00    +0.164 C 
ATOM      2  C   UNL     1       2.975  -1.065   1.022  0.00  0.00    +0.232 C 
ATOM      3  O   UNL     1       4.407  -1.117   0.810  0.00  0.00    -0.481 OA
ATOM      4  C   UNL     1       5.054   0.094   0.858  0.00  0.00    +0.132 A 
ATOM      5  C   UNL     1       4.406   1.326   0.697  0.00  0.00    +0.038 A 
ATOM      6  C   UNL     1       5.161   2.492   0.878  0.00  0.00    +0.127 A 
ATOM      7  C   UNL     1       6.527   2.436   1.156  0.00  0.00    +0.091 A 
ATOM      8  C   UNL     1       7.149   1.200   1.264  0.00  0.00    +0.124 A 
ATOM      9  C   UNL     1       6.424   0.028   1.115  0.00  0.00    +0.091 A 
ATOM     10  C   UNL     1       2.938   1.370   0.358  0.00  0.00    +0.078 C 
ENDROOT
BRANCH   2  11
ATOM     11  C   UNL     1       2.595  -0.878   2.494  0.00  0.00    +0.002 A 
ATOM     12  C   UNL     1       1.253  -0.657   2.859  0.00  0.00    +0.056 A 
ATOM     13  C   UNL     1       0.927  -0.369   4.180  0.00  0.00    +0.162 A 
ATOM     14  C   UNL     1       1.909  -0.324   5.157  0.00  0.00    +0.201 A 
ATOM     15  C   UNL     1       3.226  -0.604   4.829  0.00  0.00    +0.162 A 
ATOM     16  C   UNL     1       3.571  -0.900   3.514  0.00  0.00    +0.056 A 
BRANCH  13  17
ATOM     17  O   UNL     1      -0.372  -0.103   4.504  0.00  0.00    -0.503 OA
ATOM     18  H   UNL     1      -0.350   0.088   5.464  0.00  0.00    +0.292 HD
ENDBRANCH  13  17
BRANCH  14  19
ATOM     19  O   UNL     1       1.566   0.008   6.439  0.00  0.00    -0.501 OA
ATOM     20  H   UNL     1       2.417  -0.004   6.922  0.00  0.00    +0.292 HD
ENDBRANCH  14  19
BRANCH  15  21
ATOM     21  O   UNL     1       4.160  -0.555   5.825  0.00  0.00    -0.503 OA
ATOM     22  H   UNL     1       5.032  -0.743   5.431  0.00  0.00    +0.292 HD
ENDBRANCH  15  21
ENDBRANCH   2  11
BRANCH   1  23
ATOM     23  O   UNL     1       2.664  -0.368  -1.306  0.00  0.00    -0.387 OA
ATOM     24  H   UNL     1       3.628  -0.519  -1.363  0.00  0.00    +0.210 HD
ENDBRANCH   1  23
BRANCH   8  25
ATOM     25  O   UNL     1       8.480   1.093   1.541  0.00  0.00    -0.507 OA
ATOM     26  H   UNL     1       8.862   1.988   1.576  0.00  0.00    +0.292 HD
ENDBRANCH   8  25
BRANCH   6  27
ATOM     27  O   UNL     1       4.619   3.745   0.810  0.00  0.00    -0.506 OA
ATOM     28  H   UNL     1       3.651   3.685   0.787  0.00  0.00    +0.292 HD
ENDBRANCH   6  27
TORSDOF 7
