REMARK  Name = 
REMARK  5 active torsions:
REMARK  status: ('A' for Active; 'I' for Inactive)
REMARK    1  A    between atoms: C_1  and  C_2
REMARK    2  A    between atoms: C_7  and  N_8
REMARK    3  A    between atoms: N_11  and  C_12
REMARK    4  A    between atoms: C_22  and  C_23
REMARK    5  A    between atoms: C_23  and  O_24
REMARK                            x       y       z     vdW  Elec       q    Type
REMARK                         _______ _______ _______ _____ _____    ______ ____
ROOT
ATOM      1  C   UNL     1       0.887  -0.164   0.016  0.00  0.00    +0.034 C 
ATOM      2  C   UNL     1       2.424  -0.180  -0.054  0.00  0.00    +0.122 C 
ATOM      3  N   UNL     1       2.890  -1.420  -0.694  0.00  0.00    -0.337 N 
ATOM      4  C   UNL     1       2.608  -2.676  -0.171  0.00  0.00    +0.105 A 
ATOM      5  C   UNL     1       2.955  -3.856  -0.702  0.00  0.00    +0.122 A 
ATOM      6  C   UNL     1       3.733  -3.814  -1.953  0.00  0.00    +0.204 A 
ATOM      7  O   UNL     1       4.067  -4.861  -2.504  0.00  0.00    -0.286 OA
ATOM      8  C   UNL     1       4.113  -2.491  -2.498  0.00  0.00    +0.052 A 
ATOM      9  C   UNL     1       4.908  -2.452  -3.638  0.00  0.00    +0.054 A 
ATOM     10  C   UNL     1       5.322  -1.225  -4.128  0.00  0.00    +0.149 A 
ATOM     11  F   UNL     1       6.150  -1.250  -5.187  0.00  0.00    -0.203 F 
ATOM     12  C   UNL     1       4.977   0.000  -3.515  0.00  0.00    +0.110 A 
ATOM     13  C   UNL     1       4.157  -0.085  -2.349  0.00  0.00    +0.168 A 
ATOM     14  O   UNL     1       3.873   1.093  -1.719  0.00  0.00    -0.486 OA
ATOM     15  C   UNL     1       3.702  -1.315  -1.839  0.00  0.00    +0.097 A 
ATOM     16  C   UNL     1       2.880   1.124  -0.716  0.00  0.00    +0.254 C 
ENDROOT
BRANCH  12  17
ATOM     17  N   UNL     1       5.492   1.193  -4.023  0.00  0.00    -0.322 N 
ATOM     18  C   UNL     1       5.472   1.463  -5.473  0.00  0.00    +0.120 C 
ATOM     19  C   UNL     1       6.756   2.228  -5.880  0.00  0.00    +0.103 C 
ATOM     20  N   UNL     1       7.021   3.468  -5.111  0.00  0.00    -0.302 NA
ATOM     21  C   UNL     1       6.085   4.531  -5.465  0.00  0.00    +0.105 C 
ATOM     22  C   UNL     1       6.959   3.154  -3.666  0.00  0.00    +0.103 C 
ATOM     23  C   UNL     1       5.700   2.388  -3.193  0.00  0.00    +0.120 C 
ENDBRANCH  12  17
BRANCH   5  24
ATOM     24  C   UNL     1       2.550  -5.107  -0.030  0.00  0.00    +0.342 C 
ATOM     25  O   UNL     1       1.901  -5.131   1.007  0.00  0.00    -0.245 OA
BRANCH  24  26
ATOM     26  O   UNL     1       2.947  -6.232  -0.656  0.00  0.00    -0.477 OA
ATOM     27  H   UNL     1       3.463  -6.080  -1.484  0.00  0.00    +0.295 HD
ENDBRANCH  24  26
ENDBRANCH   5  24
TORSDOF 3
