REMARK  Name = 
REMARK  8 active torsions:
REMARK  status: ('A' for Active; 'I' for Inactive)
REMARK    1  A    between atoms: C_1  and  C_2
REMARK    2  A    between atoms: N_4  and  C_5
REMARK    3  A    between atoms: C_5  and  C_6
REMARK    4  A    between atoms: C_6  and  C_7
REMARK    5  A    between atoms: C_7  and  CA_8
REMARK    6  A    between atoms: CA_8  and  N_10
REMARK    7  A    between atoms: CA_8  and  C_11
REMARK    8  A    between atoms: C_11  and  O_12
REMARK                            x       y       z     vdW  Elec       q    Type
REMARK                         _______ _______ _______ _____ _____    ______ ____
ROOT
ATOM      1  C   UNL     1       6.662  -2.792   0.011  0.00  0.00    +0.033 C 
ENDROOT
BRANCH   1   2
ATOM      2  C   UNL     1       5.132  -2.719   0.055  0.00  0.00    +0.045 C 
BRANCH   2   3
ATOM      3  C   UNL     1       4.651  -1.267   0.025  0.00  0.00    +0.223 C 
BRANCH   3   6
ATOM      4  C   UNL     1       1.006  -0.102   0.071  0.00  0.00    +0.144 C 
ATOM      5  C   UNL     1       2.515  -0.033   0.072  0.00  0.00    +0.275 C 
ATOM      6  N   UNL     1       3.204  -1.214   0.113  0.00  0.00    -0.238 N 
ATOM      7  H   UNL     1       2.693  -2.072  -0.053  0.00  0.00    +0.291 HD
ATOM      8  N   UNL     1       3.118   1.111   0.037  0.00  0.00    -0.104 NA
ATOM      9  H   UNL     1       2.443   1.880   0.011  0.00  0.00    +0.363 HD
ENDBRANCH   3   6
ENDBRANCH   2   3
ENDBRANCH   1   2
BRANCH   1  10
ATOM     10  CA  UNL     1       7.217  -4.222   0.043  0.00  0.00    +0.161 C 
BRANCH  10  11
ATOM     11  N   UNL     1       6.859  -4.977  -1.192  0.00  0.00    -0.318 NA
ATOM     12  H1  UNL     1       7.170  -5.947  -1.062  0.00  0.00    +0.119 HD
ATOM     13  H2  UNL     1       5.840  -5.055  -1.238  0.00  0.00    +0.119 HD
ENDBRANCH  10  11
BRANCH  10  14
ATOM     14  C   UNL     1       8.751  -4.154   0.132  0.00  0.00    +0.322 C 
ATOM     15  OXT UNL     1       9.389  -3.978   1.156  0.00  0.00    -0.249 OA
BRANCH  14  16
ATOM     16  O   UNL     1       9.318  -4.282  -1.098  0.00  0.00    -0.480 OA
ATOM     17  H   UNL     1       8.573  -4.420  -1.734  0.00  0.00    +0.295 HD
ENDBRANCH  14  16
ENDBRANCH  10  14
ENDBRANCH   1  10
TORSDOF 7
