REMARK  Name = 
REMARK  16 active torsions:
REMARK  status: ('A' for Active; 'I' for Inactive)
REMARK    1  A    between atoms: C_1  and  N_2
REMARK    2  A    between atoms: N_2  and  C_3
REMARK    3  A    between atoms: N_2  and  C_4
REMARK    4  A    between atoms: C_13  and  S_14
REMARK    5  A    between atoms: S_14  and  N_17
REMARK    6  A    between atoms: N_17  and  C_18
REMARK    7  A    between atoms: C_18  and  C_20
REMARK    8  A    between atoms: C_18  and  C_44
REMARK    9  A    between atoms: C_20  and  C_21
REMARK   10  A    between atoms: C_24  and  O_25
REMARK   11  A    between atoms: O_25  and  S_26
REMARK   12  A    between atoms: S_26  and  C_29
REMARK   13  A    between atoms: C_38  and  N_39
REMARK   14  A    between atoms: N_39  and  C_40
REMARK   15  A    between atoms: N_39  and  C_41
REMARK   16  A    between atoms: C_44  and  O_45
REMARK                            x       y       z     vdW  Elec       q    Type
REMARK                         _______ _______ _______ _____ _____    ______ ____
ROOT
ATOM      1  C   UNL     1       3.088  -6.324   6.667  0.00  0.00    +0.067 C 
ENDROOT
BRANCH   1   2
ATOM      2  C   UNL     1       3.336  -4.833   6.545  0.00  0.00    -0.045 A 
ATOM      3  C   UNL     1       4.471  -4.316   5.930  0.00  0.00    +0.007 A 
ATOM      4  C   UNL     1       4.719  -2.961   5.839  0.00  0.00    +0.049 A 
ATOM      5  C   UNL     1       3.828  -2.053   6.378  0.00  0.00    +0.157 A 
ATOM      6  C   UNL     1       2.684  -2.528   7.020  0.00  0.00    +0.049 A 
ATOM      7  C   UNL     1       2.449  -3.910   7.119  0.00  0.00    +0.007 A 
BRANCH   5   8
ATOM      8  O   UNL     1       4.019  -0.699   6.296  0.00  0.00    -0.342 OA
BRANCH   8   9
ATOM      9  S   UNL     1       5.518  -0.096   6.013  0.00  0.00    +0.152 S 
ATOM     10  O   UNL     1       5.969  -0.467   4.683  0.00  0.00    -0.131 OA
ATOM     11  O   UNL     1       6.344  -0.395   7.170  0.00  0.00    -0.131 OA
BRANCH   9  12
ATOM     12  C   UNL     1       5.259   1.658   5.966  0.00  0.00    +0.136 A 
ATOM     13  C   UNL     1       4.451   2.258   4.954  0.00  0.00    +0.012 A 
ATOM     14  C   UNL     1       3.716   1.517   4.000  0.00  0.00    +0.010 A 
ATOM     15  C   UNL     1       2.936   2.137   3.040  0.00  0.00    +0.002 A 
ATOM     16  C   UNL     1       2.935   3.522   2.945  0.00  0.00    +0.024 A 
ATOM     17  C   UNL     1       3.671   4.340   3.824  0.00  0.00    +0.037 A 
ATOM     18  C   UNL     1       4.365   3.680   4.909  0.00  0.00    +0.005 A 
ATOM     19  C   UNL     1       4.966   4.379   5.991  0.00  0.00    +0.010 A 
ATOM     20  C   UNL     1       5.745   3.770   6.975  0.00  0.00    +0.003 A 
ATOM     21  C   UNL     1       5.923   2.405   6.942  0.00  0.00    +0.031 A 
BRANCH  17  22
ATOM     22  N   UNL     1       3.705   5.733   3.624  0.00  0.00    -0.336 N 
ATOM     23  C   UNL     1       2.792   6.413   2.702  0.00  0.00    +0.129 C 
ATOM     24  C   UNL     1       4.961   6.464   3.832  0.00  0.00    +0.129 C 
ENDBRANCH  17  22
ENDBRANCH   9  12
ENDBRANCH   8   9
ENDBRANCH   5   8
ENDBRANCH   1   2
BRANCH   1  25
ATOM     25  C   UNL     1       3.601  -7.238   5.531  0.00  0.00    +0.189 C 
BRANCH  25  26
ATOM     26  N   UNL     1       5.059  -7.196   5.179  0.00  0.00    -0.176 NA
ATOM     27  H   UNL     1       5.293  -6.576   4.400  0.00  0.00    +0.149 HD
BRANCH  26  28
ATOM     28  S   UNL     1       6.278  -7.202   6.364  0.00  0.00    +0.060 S 
ATOM     29  O   UNL     1       7.258  -6.222   5.966  0.00  0.00    -0.153 OA
ATOM     30  O   UNL     1       5.663  -7.181   7.668  0.00  0.00    -0.153 OA
BRANCH  28  36
ATOM     31  C   UNL     1       8.065 -10.991   3.230  0.00  0.00    +0.037 A 
ATOM     32  C   UNL     1       7.731 -10.532   4.549  0.00  0.00    +0.005 A 
ATOM     33  C   UNL     1       7.688 -11.396   5.671  0.00  0.00    +0.010 A 
ATOM     34  C   UNL     1       7.200 -11.022   6.921  0.00  0.00    +0.003 A 
ATOM     35  C   UNL     1       6.796  -9.725   7.118  0.00  0.00    +0.029 A 
ATOM     36  C   UNL     1       6.947  -8.805   6.077  0.00  0.00    +0.113 A 
ATOM     37  C   UNL     1       7.447  -9.169   4.789  0.00  0.00    +0.010 A 
ATOM     38  C   UNL     1       7.666  -8.250   3.725  0.00  0.00    +0.010 A 
ATOM     39  C   UNL     1       8.064  -8.665   2.462  0.00  0.00    +0.002 A 
ATOM     40  C   UNL     1       8.244 -10.024   2.223  0.00  0.00    +0.024 A 
BRANCH  31  42
ATOM     41  C   UNL     1       7.112 -13.271   3.304  0.00  0.00    +0.129 C 
ATOM     42  N   UNL     1       8.205 -12.365   2.923  0.00  0.00    -0.336 N 
ATOM     43  C   UNL     1       8.927 -12.739   1.710  0.00  0.00    +0.129 C 
ENDBRANCH  31  42
ENDBRANCH  28  36
ENDBRANCH  26  28
ENDBRANCH  25  26
BRANCH  25  44
ATOM     44  C   UNL     1       3.183  -8.691   5.743  0.00  0.00    +0.324 C 
ATOM     45  O   UNL     1       2.202  -9.057   6.366  0.00  0.00    -0.249 OA
BRANCH  44  46
ATOM     46  O   UNL     1       3.965  -9.565   5.055  0.00  0.00    -0.479 OA
ATOM     47  H   UNL     1       4.691  -9.080   4.610  0.00  0.00    +0.295 HD
ENDBRANCH  44  46
ENDBRANCH  25  44
ENDBRANCH   1  25
TORSDOF 12
