REMARK  Name = 
REMARK  8 active torsions:
REMARK  status: ('A' for Active; 'I' for Inactive)
REMARK    1  A    between atoms: C_1  and  O_2
REMARK    2  A    between atoms: O_2  and  C_3
REMARK    3  A    between atoms: C_5  and  O_6
REMARK    4  A    between atoms: O_6  and  C_7
REMARK    5  A    between atoms: C_9  and  C_10
REMARK    6  A    between atoms: C_10  and  N_11
REMARK    7  A    between atoms: N_11  and  C_12
REMARK    8  A    between atoms: N_11  and  C_13
REMARK                            x       y       z     vdW  Elec       q    Type
REMARK                         _______ _______ _______ _____ _____    ______ ____
ROOT
ATOM      1  C   UNL     1       8.770   1.055   0.684  0.00  0.00    +0.049 A 
ATOM      2  C   UNL     1       9.497  -0.135   0.753  0.00  0.00    +0.039 A 
ATOM      3  C   UNL     1      10.919  -0.149   0.748  0.00  0.00    +0.061 A 
ATOM      4  C   UNL     1      11.604   1.053   0.652  0.00  0.00    +0.167 A 
ATOM      5  N   UNL     1      12.927   1.114   0.616  0.00  0.00    -0.195 NA
ATOM      6  C   UNL     1      13.604  -0.025   0.680  0.00  0.00    +0.216 A 
ATOM      7  N   UNL     1      13.061  -1.232   0.820  0.00  0.00    -0.199 NA
ATOM      8  N   UNL     1      14.981   0.059   0.629  0.00  0.00    -0.327 N 
ATOM      9  H   UNL     1      15.399  -0.728   1.101  0.00  0.00    +0.145 HD
ATOM     10  H   UNL     1      15.273   0.985   0.915  0.00  0.00    +0.145 HD
ATOM     11  N   UNL     1      10.941   2.204   0.600  0.00  0.00    -0.234 NA
ATOM     12  C   UNL     1      11.727  -1.286   0.841  0.00  0.00    +0.131 A 
ATOM     13  N   UNL     1      11.190  -2.566   1.023  0.00  0.00    -0.342 N 
ATOM     14  H   UNL     1      10.511  -2.801   0.309  0.00  0.00    +0.144 HD
ATOM     15  H   UNL     1      11.972  -3.218   1.024  0.00  0.00    +0.144 HD
ATOM     16  C   UNL     1       9.582   2.187   0.627  0.00  0.00    +0.136 A 
ENDROOT
BRANCH   1  17
ATOM     17  N   UNL     1       7.384   1.102   0.710  0.00  0.00    -0.327 N 
ATOM     18  C   UNL     1       6.584  -0.117   0.795  0.00  0.00    +0.129 C 
BRANCH  17  19
ATOM     19  C   UNL     1       6.640   2.346   0.432  0.00  0.00    +0.140 C 
BRANCH  19  22
ATOM     20  C   UNL     1       5.240   5.119   2.663  0.00  0.00    +0.124 A 
ATOM     21  C   UNL     1       5.601   4.360   1.543  0.00  0.00    +0.051 A 
ATOM     22  C   UNL     1       6.332   3.166   1.673  0.00  0.00    -0.023 A 
ATOM     23  C   UNL     1       6.726   2.771   2.960  0.00  0.00    +0.051 A 
ATOM     24  C   UNL     1       6.405   3.538   4.081  0.00  0.00    +0.124 A 
ATOM     25  C   UNL     1       5.651   4.705   3.928  0.00  0.00    +0.091 A 
BRANCH  20  27
ATOM     26  C   UNL     1       3.971   6.950   3.502  0.00  0.00    +0.277 C 
ATOM     27  O   UNL     1       4.489   6.230   2.387  0.00  0.00    -0.495 OA
ENDBRANCH  20  27
BRANCH  24  28
ATOM     28  O   UNL     1       6.764   3.245   5.370  0.00  0.00    -0.495 OA
ATOM     29  C   UNL     1       7.629   2.129   5.550  0.00  0.00    +0.277 C 
ENDBRANCH  24  28
ENDBRANCH  19  22
ENDBRANCH  17  19
ENDBRANCH   1  17
TORSDOF 5
