REMARK  Name = 
REMARK  32 active torsions:
REMARK  status: ('A' for Active; 'I' for Inactive)
REMARK    1  A    between atoms: C_1  and  C_2
REMARK    2  A    between atoms: C_2  and  C_4
REMARK    3  A    between atoms: C_2  and  C_58
REMARK    4  A    between atoms: C_4  and  S_5
REMARK    5  A    between atoms: S_5  and  C_6
REMARK    6  A    between atoms: C_6  and  C_7
REMARK    7  A    between atoms: C_7  and  N_8
REMARK    8  A    between atoms: C_9  and  C_11
REMARK    9  A    between atoms: C_11  and  C_12
REMARK   10  A    between atoms: C_12  and  N_13
REMARK   11  A    between atoms: C_14  and  C_16
REMARK   12  A    between atoms: C_16  and  O_18
REMARK   13  A    between atoms: C_16  and  C_19
REMARK   14  A    between atoms: C_19  and  C_20
REMARK   15  A    between atoms: C_19  and  C_21
REMARK   16  A    between atoms: C_19  and  C_22
REMARK   17  A    between atoms: C_22  and  O_23
REMARK   18  A    between atoms: O_23  and  P_24
REMARK   19  A    between atoms: P_24  and  O_25
REMARK   20  A    between atoms: P_24  and  O_27
REMARK   21  A    between atoms: O_27  and  P_28
REMARK   22  A    between atoms: P_28  and  O_29
REMARK   23  A    between atoms: P_28  and  O_31
REMARK   24  A    between atoms: O_31  and  C_32
REMARK   25  A    between atoms: C_32  and  C_33
REMARK   26  A    between atoms: C_36  and  N_48
REMARK   27  A    between atoms: C_38  and  O_40
REMARK   28  A    between atoms: C_41  and  O_43
REMARK   29  A    between atoms: O_43  and  P_44
REMARK   30  A    between atoms: P_44  and  O_45
REMARK   31  A    between atoms: P_44  and  O_46
REMARK   32  A    between atoms: C_58  and  O_59
REMARK                            x       y       z     vdW  Elec       q    Type
REMARK                         _______ _______ _______ _____ _____    ______ ____
ROOT
ATOM      1  O   UNL     1       9.374 -20.920  -1.232  0.00  0.00    -0.186 OA
ENDROOT
BRANCH   1   2
ATOM      2  P   UNL     1       9.052 -21.704  -2.741  0.00  0.00    +0.483 P 
ATOM      3  O   UNL     1       9.457 -20.462  -3.533  0.00  0.00    -0.227 OA
BRANCH   2   4
ATOM      4  O   UNL     1       8.730 -22.487  -4.249  0.00  0.00    -0.302 OA
ATOM      5  H   UNL     1       9.091 -21.839  -4.894  0.00  0.00    +0.222 HD
ENDBRANCH   2   4
BRANCH   2   6
ATOM      6  O   UNL     1      10.423 -22.629  -2.574  0.00  0.00    -0.286 OA
BRANCH   6   7
ATOM      7  C   UNL     1      10.252 -23.876  -1.908  0.00  0.00    +0.181 C 
BRANCH   7   8
ATOM      8  C   UNL     1      11.536 -24.744  -1.859  0.00  0.00    +0.024 C 
ATOM      9  C   UNL     1      11.191 -26.068  -1.139  0.00  0.00    +0.016 C 
ATOM     10  C   UNL     1      11.964 -25.108  -3.299  0.00  0.00    +0.016 C 
BRANCH   8  11
ATOM     11  C   UNL     1      12.717 -24.000  -1.171  0.00  0.00    +0.208 C 
BRANCH  11  14
ATOM     12  N   UNL     1      12.492 -24.419   1.243  0.00  0.00    -0.313 N 
ATOM     13  H   UNL     1      12.756 -25.349   0.923  0.00  0.00    +0.149 HD
ATOM     14  C   UNL     1      12.420 -23.465   0.249  0.00  0.00    +0.242 C 
ATOM     15  O   UNL     1      12.161 -22.292   0.446  0.00  0.00    -0.273 OA
BRANCH  12  16
ATOM     16  C   UNL     1      12.234 -24.270   2.670  0.00  0.00    +0.113 C 
BRANCH  16  17
ATOM     17  C   UNL     1      12.377 -22.910   3.328  0.00  0.00    +0.114 C 
BRANCH  17  20
ATOM     18  N   UNL     1      10.075 -22.208   2.883  0.00  0.00    -0.314 N 
ATOM     19  H   UNL     1       9.853 -23.212   2.925  0.00  0.00    +0.149 HD
ATOM     20  C   UNL     1      11.390 -21.841   3.039  0.00  0.00    +0.215 C 
ATOM     21  O   UNL     1      11.707 -20.667   2.990  0.00  0.00    -0.276 OA
BRANCH  18  22
ATOM     22  C   UNL     1       9.340 -21.509   1.863  0.00  0.00    +0.115 C 
BRANCH  22  23
ATOM     23  C   UNL     1       9.559 -19.869   1.572  0.00  0.00    +0.088 C 
BRANCH  23  24
ATOM     24  S   UNL     1       8.401 -18.255   0.777  0.00  0.00    -0.158 S 
BRANCH  24  25
ATOM     25  C   UNL     1       8.060 -18.188  -1.183  0.00  0.00    +0.083 C 
BRANCH  25  27
ATOM     26  C   UNL     1       5.302 -18.214  -1.217  0.00  0.00    +0.020 C 
ATOM     27  C   UNL     1       6.642 -18.064  -1.945  0.00  0.00    +0.104 C 
BRANCH  27  28
ATOM     28  C   UNL     1       6.570 -18.722  -3.345  0.00  0.00    +0.308 C 
ATOM     29  O   UNL     1       7.004 -18.205  -4.363  0.00  0.00    -0.251 OA
BRANCH  28  30
ATOM     30  O   UNL     1       5.916 -19.914  -3.418  0.00  0.00    -0.480 OA
ATOM     31  H   UNL     1       5.782 -20.259  -2.521  0.00  0.00    +0.295 HD
ENDBRANCH  28  30
ENDBRANCH  27  28
ENDBRANCH  25  27
ENDBRANCH  24  25
ENDBRANCH  23  24
ENDBRANCH  22  23
ENDBRANCH  18  22
ENDBRANCH  17  20
ENDBRANCH  16  17
ENDBRANCH  12  16
ENDBRANCH  11  14
BRANCH  11  32
ATOM     32  O   UNL     1      13.858 -24.871  -1.073  0.00  0.00    -0.382 OA
ATOM     33  H   UNL     1      14.610 -24.301  -0.820  0.00  0.00    +0.210 HD
ENDBRANCH  11  32
ENDBRANCH   8  11
ENDBRANCH   7   8
ENDBRANCH   6   7
ENDBRANCH   2   6
ENDBRANCH   1   2
BRANCH   1  34
ATOM     34  P   UNL     1       7.942 -20.924  -0.263  0.00  0.00    +0.483 P 
ATOM     35  O   UNL     1       7.952 -22.463  -0.202  0.00  0.00    -0.227 OA
BRANCH  34  36
ATOM     36  O   UNL     1       6.906 -20.883  -1.519  0.00  0.00    -0.302 OA
ATOM     37  H   UNL     1       6.566 -21.817  -1.529  0.00  0.00    +0.222 HD
ENDBRANCH  34  36
BRANCH  34  38
ATOM     38  O   UNL     1       6.509 -20.928   0.707  0.00  0.00    -0.284 OA
BRANCH  38  39
ATOM     39  C   UNL     1       6.472 -20.283   2.005  0.00  0.00    +0.206 C 
BRANCH  39  40
ATOM     40  C   UNL     1       5.183 -20.364   2.808  0.00  0.00    +0.179 C 
ATOM     41  C   UNL     1       4.036 -19.766   2.026  0.00  0.00    +0.194 C 
ATOM     42  C   UNL     1       3.266 -20.980   1.541  0.00  0.00    +0.196 C 
ATOM     43  C   UNL     1       4.088 -22.187   2.019  0.00  0.00    +0.253 C 
ATOM     44  O   UNL     1       4.879 -21.724   3.111  0.00  0.00    -0.346 OA
BRANCH  43  45
ATOM     45  N   UNL     1       3.326 -23.333   2.453  0.00  0.00    -0.286 N 
ATOM     46  C   UNL     1       2.178 -23.781   1.868  0.00  0.00    +0.167 A 
ATOM     47  N   UNL     1       1.458 -23.184   0.906  0.00  0.00    -0.216 NA
ATOM     48  C   UNL     1       0.373 -23.921   0.597  0.00  0.00    +0.225 A 
ATOM     49  N   UNL     1       0.016 -25.118   1.091  0.00  0.00    -0.219 NA
ATOM     50  C   UNL     1       0.804 -25.699   2.033  0.00  0.00    +0.147 A 
ATOM     51  N   UNL     1       0.464 -26.955   2.515  0.00  0.00    -0.341 N 
ATOM     52  H   UNL     1       0.882 -27.171   3.411  0.00  0.00    +0.144 HD
ATOM     53  H   UNL     1      -0.514 -27.172   2.382  0.00  0.00    +0.144 HD
ATOM     54  C   UNL     1       1.932 -24.997   2.479  0.00  0.00    +0.147 A 
ATOM     55  N   UNL     1       2.877 -25.284   3.427  0.00  0.00    -0.231 NA
ATOM     56  C   UNL     1       3.716 -24.258   3.386  0.00  0.00    +0.203 A 
ENDBRANCH  43  45
BRANCH  42  57
ATOM     57  O   UNL     1       3.180 -20.959   0.117  0.00  0.00    -0.385 OA
ATOM     58  H   UNL     1       2.519 -21.642  -0.120  0.00  0.00    +0.210 HD
ENDBRANCH  42  57
BRANCH  41  59
ATOM     59  O   UNL     1       3.274 -18.976   2.928  0.00  0.00    -0.278 OA
BRANCH  59  60
ATOM     60  P   UNL     1       2.058 -18.105   2.355  0.00  0.00    +0.473 P 
ATOM     61  O   UNL     1       1.912 -18.055   0.872  0.00  0.00    -0.228 OA
BRANCH  60  62
ATOM     62  O   UNL     1       0.841 -18.741   3.170  0.00  0.00    -0.303 OA
ATOM     63  H   UNL     1       0.591 -19.627   2.865  0.00  0.00    +0.222 HD
ENDBRANCH  60  62
BRANCH  60  64
ATOM     64  O   UNL     1       2.294 -16.714   3.097  0.00  0.00    -0.303 OA
ATOM     65  H   UNL     1       3.143 -16.301   2.862  0.00  0.00    +0.222 HD
ENDBRANCH  60  64
ENDBRANCH  59  60
ENDBRANCH  41  59
ENDBRANCH  39  40
ENDBRANCH  38  39
ENDBRANCH  34  38
ENDBRANCH   1  34
TORSDOF 29
