REMARK  Name = 
REMARK  7 active torsions:
REMARK  status: ('A' for Active; 'I' for Inactive)
REMARK    1  A    between atoms: C_1  and  O_2
REMARK    2  A    between atoms: O_2  and  C_3
REMARK    3  A    between atoms: C_5  and  C_6
REMARK    4  A    between atoms: C_6  and  C_7
REMARK    5  A    between atoms: C_8  and  C_9
REMARK    6  A    between atoms: C_20  and  O_21
REMARK    7  A    between atoms: O_21  and  C_22
REMARK                            x       y       z     vdW  Elec       q    Type
REMARK                         _______ _______ _______ _____ _____    ______ ____
ROOT
ATOM      1  C   UNL     1       6.137  -0.615  -3.091  0.00  0.00    -0.021 A 
ATOM      2  C   UNL     1       5.288  -0.083  -4.048  0.00  0.00    +0.117 A 
ATOM      3  N   UNL     1       5.460   1.118  -4.642  0.00  0.00    -0.235 NA
ATOM      4  C   UNL     1       6.554   1.830  -4.373  0.00  0.00    +0.167 A 
ATOM      5  N   UNL     1       6.711   2.942  -5.079  0.00  0.00    -0.195 NA
ATOM      6  C   UNL     1       7.826   3.639  -4.907  0.00  0.00    +0.216 A 
ATOM      7  N   UNL     1       8.796   3.323  -4.063  0.00  0.00    -0.199 NA
ATOM      8  C   UNL     1       8.627   2.204  -3.350  0.00  0.00    +0.131 A 
ATOM      9  N   UNL     1       9.745   1.860  -2.577  0.00  0.00    -0.342 N 
ATOM     10  H   UNL     1      10.097   0.950  -2.852  0.00  0.00    +0.144 HD
ATOM     11  H   UNL     1      10.445   2.579  -2.756  0.00  0.00    +0.144 HD
ATOM     12  N   UNL     1       7.995   4.786  -5.658  0.00  0.00    -0.327 N 
ATOM     13  H   UNL     1       8.648   5.405  -5.202  0.00  0.00    +0.145 HD
ATOM     14  H   UNL     1       7.093   5.163  -5.924  0.00  0.00    +0.145 HD
ATOM     15  C   UNL     1       7.478   1.399  -3.419  0.00  0.00    +0.062 A 
ATOM     16  C   UNL     1       7.191   0.202  -2.671  0.00  0.00    -0.032 A 
ATOM     17  C   UNL     1       7.984  -0.150  -1.437  0.00  0.00    +0.045 C 
ENDROOT
BRANCH   1  18
ATOM     18  C   UNL     1       5.933  -2.039  -2.617  0.00  0.00    +0.075 C 
BRANCH  18  23
ATOM     19  C   UNL     1       3.066  -1.583  -0.131  0.00  0.00    +0.121 A 
ATOM     20  C   UNL     1       2.785  -2.903   0.209  0.00  0.00    +0.049 A 
ATOM     21  C   UNL     1       3.560  -3.935  -0.316  0.00  0.00    +0.049 A 
ATOM     22  C   UNL     1       4.604  -3.655  -1.202  0.00  0.00    +0.124 A 
ATOM     23  C   UNL     1       4.889  -2.314  -1.556  0.00  0.00    +0.002 A 
ATOM     24  C   UNL     1       4.144  -1.286  -0.959  0.00  0.00    +0.053 A 
BRANCH  19  26
ATOM     25  C   UNL     1       0.915  -0.757   0.192  0.00  0.00    +0.277 C 
ATOM     26  O   UNL     1       2.318  -0.523   0.303  0.00  0.00    -0.495 OA
ENDBRANCH  19  26
BRANCH  22  27
ATOM     27  O   UNL     1       5.395  -4.614  -1.785  0.00  0.00    -0.495 OA
ATOM     28  C   UNL     1       5.112  -5.972  -1.461  0.00  0.00    +0.277 C 
ENDBRANCH  22  27
ENDBRANCH  18  23
ENDBRANCH   1  18
TORSDOF 4
