REMARK  Name = 
REMARK  10 active torsions:
REMARK  status: ('A' for Active; 'I' for Inactive)
REMARK    1  A    between atoms: O_1  and  C_2
REMARK    2  A    between atoms: C_5  and  N_20
REMARK    3  A    between atoms: C_8  and  C_10
REMARK    4  A    between atoms: C_10  and  O_11
REMARK    5  A    between atoms: O_11  and  P_12
REMARK    6  A    between atoms: P_12  and  O_13
REMARK    7  A    between atoms: P_12  and  O_15
REMARK    8  A    between atoms: O_15  and  P_16
REMARK    9  A    between atoms: P_16  and  O_17
REMARK   10  A    between atoms: P_16  and  O_18
REMARK                            x       y       z     vdW  Elec       q    Type
REMARK                         _______ _______ _______ _____ _____    ______ ____
ROOT
ATOM      1  C   UNL     1       1.436  -0.074  -4.516  0.00  0.00    +0.150 C 
ATOM      2  C   UNL     1       0.664  -1.378  -4.730  0.00  0.00    +0.175 C 
ATOM      3  O   UNL     1      -0.745  -1.047  -4.728  0.00  0.00    -0.348 OA
ATOM      4  C   UNL     1      -0.896   0.350  -4.408  0.00  0.00    +0.226 C 
ATOM      5  C   UNL     1       0.417   0.989  -4.850  0.00  0.00    +0.088 C 
ENDROOT
BRANCH   4   6
ATOM      6  N   UNL     1      -1.220   0.517  -2.982  0.00  0.00    -0.274 N 
ATOM      7  C   UNL     1      -1.447   1.816  -2.529  0.00  0.00    +0.331 A 
ATOM      8  O   UNL     1      -1.385   2.815  -3.243  0.00  0.00    -0.246 OA
ATOM      9  N   UNL     1      -1.764   1.938  -1.201  0.00  0.00    -0.275 N 
ATOM     10  H   UNL     1      -1.932   2.871  -0.859  0.00  0.00    +0.173 HD
ATOM     11  C   UNL     1      -2.037   0.913  -0.345  0.00  0.00    +0.254 A 
ATOM     12  O   UNL     1      -2.441   1.084   0.800  0.00  0.00    -0.268 OA
ATOM     13  C   UNL     1      -1.845  -0.437  -0.888  0.00  0.00    +0.088 A 
ATOM     14  C   UNL     1      -1.464  -0.572  -2.160  0.00  0.00    +0.098 A 
ENDBRANCH   4   6
BRANCH   1  15
ATOM     15  O   UNL     1       1.847   0.071  -3.154  0.00  0.00    -0.389 OA
ATOM     16  H   UNL     1       1.073  -0.055  -2.577  0.00  0.00    +0.210 HD
ENDBRANCH   1  15
BRANCH   2  17
ATOM     17  C   UNL     1       0.995  -2.071  -6.048  0.00  0.00    +0.206 C 
BRANCH  17  18
ATOM     18  O   UNL     1       2.370  -2.424  -6.089  0.00  0.00    -0.284 OA
BRANCH  18  19
ATOM     19  P   UNL     1       2.842  -3.244  -7.429  0.00  0.00    +0.483 P 
ATOM     20  O   UNL     1       4.344  -3.501  -7.314  0.00  0.00    -0.227 OA
BRANCH  19  21
ATOM     21  O   UNL     1       2.582  -4.735  -6.591  0.00  0.00    -0.302 OA
ATOM     22  H   UNL     1       3.483  -4.953  -6.268  0.00  0.00    +0.222 HD
ENDBRANCH  19  21
BRANCH  19  23
ATOM     23  O   UNL     1       3.101  -1.753  -8.267  0.00  0.00    -0.186 OA
BRANCH  23  24
ATOM     24  P   UNL     1       2.559  -1.539  -9.729  0.00  0.00    +0.481 P 
ATOM     25  O   UNL     1       2.071  -2.747 -10.442  0.00  0.00    -0.227 OA
BRANCH  24  26
ATOM     26  O   UNL     1       3.743  -0.746 -10.449  0.00  0.00    -0.302 OA
ATOM     27  H   UNL     1       4.530  -1.305 -10.591  0.00  0.00    +0.222 HD
ENDBRANCH  24  26
BRANCH  24  28
ATOM     28  O   UNL     1       1.510  -0.351  -9.525  0.00  0.00    -0.302 OA
ATOM     29  H   UNL     1       1.975   0.468  -9.271  0.00  0.00    +0.222 HD
ENDBRANCH  24  28
ENDBRANCH  23  24
ENDBRANCH  19  23
ENDBRANCH  18  19
ENDBRANCH  17  18
ENDBRANCH   2  17
TORSDOF 10
