REMARK  Name = 
REMARK  4 active torsions:
REMARK  status: ('A' for Active; 'I' for Inactive)
REMARK    1  A    between atoms: N_6  and  C_7
REMARK    2  A    between atoms: C_7  and  C_8
REMARK    3  A    between atoms: C_8  and  C_9
REMARK    4  A    between atoms: C_9  and  O_10
REMARK                            x       y       z     vdW  Elec       q    Type
REMARK                         _______ _______ _______ _____ _____    ______ ____
ROOT
ATOM      1  N   UNL     1       1.086   0.141   0.057  0.00  0.00    -0.292 N 
ATOM      2  H   UNL     1       0.582   1.015  -0.016  0.00  0.00    +0.255 HD
ATOM      3  H   UNL     1       0.531  -0.702   0.134  0.00  0.00    +0.255 HD
ATOM      4  C   UNL     1       2.422   0.095   0.056  0.00  0.00    +0.341 C 
ATOM      5  N   UNL     1       3.122   1.236  -0.050  0.00  0.00    -0.279 N 
ATOM      6  H   UNL     1       2.601   2.101  -0.118  0.00  0.00    +0.258 HD
ATOM      7  N   UNL     1       3.021  -1.094   0.161  0.00  0.00    -0.292 N 
ATOM      8  H   UNL     1       2.495  -1.954   0.239  0.00  0.00    +0.255 HD
ATOM      9  H   UNL     1       4.030  -1.173   0.175  0.00  0.00    +0.255 HD
ENDROOT
BRANCH   5  10
ATOM     10  C   UNL     1       4.594   1.294  -0.045  0.00  0.00    +0.198 C 
BRANCH  10  11
ATOM     11  C   UNL     1       5.090   2.735  -0.148  0.00  0.00    +0.065 C 
BRANCH  11  12
ATOM     12  C   UNL     1       6.610   2.793  -0.130  0.00  0.00    +0.159 C 
BRANCH  12  13
ATOM     13  O   UNL     1       7.084   2.209   1.074  0.00  0.00    -0.395 OA
ATOM     14  H   UNL     1       7.144   2.915   1.743  0.00  0.00    +0.209 HD
ENDBRANCH  12  13
ENDBRANCH  11  12
ENDBRANCH  10  11
ENDBRANCH   5  10
TORSDOF 4
