REMARK  Name = 
REMARK  6 active torsions:
REMARK  status: ('A' for Active; 'I' for Inactive)
REMARK    1  A    between atoms: N_1  and  CA_2
REMARK    2  A    between atoms: CA_2  and  CB_4
REMARK    3  A    between atoms: CA_2  and  C_12
REMARK    4  A    between atoms: CB_4  and  CG_5
REMARK    5  A    between atoms: CZ_8  and  OH_9
REMARK    6  A    between atoms: C_12  and  O_13
REMARK                            x       y       z     vdW  Elec       q    Type
REMARK                         _______ _______ _______ _____ _____    ______ ____
ROOT
ATOM      1  CB  TYR A   1       2.934   0.413  -1.255  0.00  0.00    +0.065 C 
ENDROOT
BRANCH   1   2
ATOM      2  CG  TYR A   1       2.555  -0.599  -2.313  0.00  0.00    -0.045 A 
ATOM      3  CD2 TYR A   1       3.334  -1.748  -2.506  0.00  0.00    +0.007 A 
ATOM      4  CE2 TYR A   1       2.957  -2.706  -3.448  0.00  0.00    +0.045 A 
ATOM      5  CZ  TYR A   1       1.798  -2.523  -4.193  0.00  0.00    +0.117 A 
ATOM      6  CE1 TYR A   1       1.020  -1.382  -4.028  0.00  0.00    +0.045 A 
ATOM      7  CD1 TYR A   1       1.401  -0.419  -3.092  0.00  0.00    +0.007 A 
BRANCH   5   8
ATOM      8  OH  TYR A   1       1.452  -3.497  -5.080  0.00  0.00    -0.507 OA
ATOM      9  HH  TYR A   1       0.599  -3.265  -5.481  0.00  0.00    +0.292 HD
ENDBRANCH   5   8
ENDBRANCH   1   2
BRANCH   1  10
ATOM     10  CA  TYR A   1       2.437   0.025   0.148  0.00  0.00    +0.165 C 
BRANCH  10  11
ATOM     11  N   TYR A   1       0.944  -0.075   0.253  0.00  0.00    -0.318 NA
ATOM     12  H1  TYR A   1       0.542   0.721  -0.255  0.00  0.00    +0.119 HD
ATOM     13  H2  TYR A   1       0.661  -0.887  -0.308  0.00  0.00    +0.119 HD
ENDBRANCH  10  11
BRANCH  10  14
ATOM     14  C   TYR A   1       2.910   1.055   1.186  0.00  0.00    +0.322 C 
ATOM     15  OXT TYR A   1       3.980   1.638   1.178  0.00  0.00    -0.249 OA
BRANCH  14  16
ATOM     16  O   TYR A   1       1.976   1.221   2.163  0.00  0.00    -0.480 OA
ATOM     17  H   TYR A   1       1.210   0.650   1.901  0.00  0.00    +0.295 HD
ENDBRANCH  14  16
ENDBRANCH  10  14
ENDBRANCH   1  10
TORSDOF 6
