REMARK  Name = 
REMARK  6 active torsions:
REMARK  status: ('A' for Active; 'I' for Inactive)
REMARK    1  A    between atoms: C_1  and  C_2
REMARK    2  A    between atoms: C_2  and  N_3
REMARK    3  A    between atoms: C_4  and  C_6
REMARK    4  A    between atoms: C_9  and  N_17
REMARK    5  A    between atoms: C_11  and  O_13
REMARK    6  A    between atoms: C_14  and  O_16
REMARK                            x       y       z     vdW  Elec       q    Type
REMARK                         _______ _______ _______ _____ _____    ______ ____
ROOT
ATOM      1  C   UNL     1       4.970   0.323  -3.167  0.00  0.00    +0.237 C 
ATOM      2  C   UNL     1       5.792  -0.923  -3.469  0.00  0.00    +0.185 C 
ATOM      3  C   UNL     1       6.859  -0.447  -4.452  0.00  0.00    +0.196 C 
ATOM      4  C   UNL     1       6.702   1.082  -4.475  0.00  0.00    +0.254 C 
ATOM      5  O   UNL     1       5.881   1.415  -3.337  0.00  0.00    -0.339 OA
ENDROOT
BRANCH   4   6
ATOM      6  N   UNL     1       7.939   1.841  -4.411  0.00  0.00    -0.285 N 
ATOM      7  C   UNL     1       9.087   1.574  -5.113  0.00  0.00    +0.167 A 
ATOM      8  N   UNL     1       9.377   0.478  -5.837  0.00  0.00    -0.216 NA
ATOM      9  C   UNL     1      10.600   0.590  -6.402  0.00  0.00    +0.225 A 
ATOM     10  N   UNL     1      11.456   1.633  -6.355  0.00  0.00    -0.219 NA
ATOM     11  C   UNL     1      11.095   2.728  -5.649  0.00  0.00    +0.147 A 
ATOM     12  N   UNL     1      11.941   3.826  -5.665  0.00  0.00    -0.341 N 
ATOM     13  H   UNL     1      11.797   4.484  -4.908  0.00  0.00    +0.144 HD
ATOM     14  H   UNL     1      12.885   3.606  -5.948  0.00  0.00    +0.144 HD
ATOM     15  C   UNL     1       9.877   2.702  -4.949  0.00  0.00    +0.147 A 
ATOM     16  N   UNL     1       9.264   3.613  -4.114  0.00  0.00    -0.231 NA
ATOM     17  C   UNL     1       8.102   3.068  -3.818  0.00  0.00    +0.203 A 
ENDBRANCH   4   6
BRANCH   1  20
ATOM     18  N   UNL     1       2.804  -0.628  -3.827  0.00  0.00    -0.313 N 
ATOM     19  H   UNL     1       2.908  -1.190  -2.991  0.00  0.00    +0.149 HD
ATOM     20  C   UNL     1       3.715   0.386  -4.063  0.00  0.00    +0.245 C 
ATOM     21  O   UNL     1       3.552   1.261  -4.906  0.00  0.00    -0.273 OA
BRANCH  18  23
ATOM     22  C   UNL     1       1.126  -2.154  -4.740  0.00  0.00    +0.024 C 
ATOM     23  C   UNL     1       1.544  -0.708  -4.538  0.00  0.00    +0.101 C 
ENDBRANCH  18  23
ENDBRANCH   1  20
BRANCH   2  24
ATOM     24  O   UNL     1       6.405  -1.395  -2.257  0.00  0.00    -0.386 OA
ATOM     25  H   UNL     1       6.923  -0.666  -1.868  0.00  0.00    +0.210 HD
ENDBRANCH   2  24
BRANCH   3  26
ATOM     26  O   UNL     1       6.627  -1.011  -5.746  0.00  0.00    -0.385 OA
ATOM     27  H   UNL     1       7.422  -0.811  -6.281  0.00  0.00    +0.210 HD
ENDBRANCH   3  26
TORSDOF 5
