REMARK  Name = 
REMARK  4 active torsions:
REMARK  status: ('A' for Active; 'I' for Inactive)
REMARK    1  A    between atoms: C_11  and  N_14
REMARK    2  A    between atoms: N_17  and  C_18
REMARK    3  A    between atoms: C_18  and  C_19
REMARK    4  A    between atoms: C_22  and  N_23
REMARK                            x       y       z     vdW  Elec       q    Type
REMARK                         _______ _______ _______ _____ _____    ______ ____
ROOT
ATOM      1  N   UNL     1       4.562  -2.896   0.583  0.00  0.00    -0.294 N 
ATOM      2  H   UNL     1       5.403  -3.193   0.112  0.00  0.00    +0.151 HD
ATOM      3  C   UNL     1       4.271  -3.575   1.739  0.00  0.00    +0.300 C 
ATOM      4  N   UNL     1       4.893  -4.791   1.806  0.00  0.00    -0.295 N 
ATOM      5  H   UNL     1       5.038  -5.262   0.928  0.00  0.00    +0.151 HD
ATOM      6  O   UNL     1       3.554  -3.149   2.637  0.00  0.00    -0.253 OA
ENDROOT
BRANCH   1   9
ATOM      7  C   UNL     1       4.149   0.429  -1.294  0.00  0.00    -0.008 C 
ATOM      8  C   UNL     1       4.610  -1.019  -1.029  0.00  0.00    +0.029 C 
ATOM      9  C   UNL     1       4.117  -1.511   0.359  0.00  0.00    +0.037 C 
ATOM     10  C   UNL     1       2.568  -1.414   0.369  0.00  0.00    +0.029 C 
ATOM     11  C   UNL     1       2.109   0.030   0.122  0.00  0.00    -0.008 C 
ATOM     12  C   UNL     1       2.694   0.938   1.217  0.00  0.00    +0.007 C 
ATOM     13  C   UNL     1       4.231   0.893   1.178  0.00  0.00    -0.008 C 
ATOM     14  C   UNL     1       4.703  -0.549   1.426  0.00  0.00    +0.029 C 
ATOM     15  C   UNL     1       4.716   1.354  -0.205  0.00  0.00    +0.007 C 
ATOM     16  C   UNL     1       2.613   0.488  -1.253  0.00  0.00    +0.007 C 
ENDBRANCH   1   9
BRANCH   4  17
ATOM     17  C   UNL     1       4.616  -5.628   2.957  0.00  0.00    +0.141 C 
BRANCH  17  18
ATOM     18  C   UNL     1       5.700  -6.643   3.191  0.00  0.00    -0.030 A 
ATOM     19  C   UNL     1       5.399  -8.006   3.278  0.00  0.00    +0.008 A 
ATOM     20  C   UNL     1       6.416  -8.942   3.493  0.00  0.00    +0.042 A 
ATOM     21  C   UNL     1       7.753  -8.543   3.626  0.00  0.00    +0.100 A 
ATOM     22  C   UNL     1       8.035  -7.173   3.610  0.00  0.00    +0.042 A 
ATOM     23  C   UNL     1       7.024  -6.233   3.387  0.00  0.00    +0.008 A 
BRANCH  21  24
ATOM     24  N   UNL     1       8.738  -9.523   3.833  0.00  0.00    -0.244 N 
ATOM     25  H   UNL     1       8.567 -10.401   3.362  0.00  0.00    +0.265 HD
ATOM     26  C   UNL     1       9.980  -9.358   4.339  0.00  0.00    +0.381 C 
ATOM     27  N   UNL     1      10.343  -8.585   5.300  0.00  0.00    -0.129 NA
ATOM     28  H   UNL     1       9.499  -8.124   5.656  0.00  0.00    +0.306 HD
ATOM     29  N   UNL     1      10.911 -10.147   3.757  0.00  0.00    -0.289 N 
ATOM     30  H   UNL     1      11.814  -9.930   4.171  0.00  0.00    +0.255 HD
ATOM     31  H   UNL     1      10.964 -10.006   2.756  0.00  0.00    +0.255 HD
ENDBRANCH  21  24
ENDBRANCH  17  18
ENDBRANCH   4  17
TORSDOF 4
