REMARK  Name = 
REMARK  3 active torsions:
REMARK  status: ('A' for Active; 'I' for Inactive)
REMARK    1  A    between atoms: S_1  and  C_2
REMARK    2  A    between atoms: C_2  and  C_3
REMARK    3  A    between atoms: C_3  and  C_4
REMARK                            x       y       z     vdW  Elec       q    Type
REMARK                         _______ _______ _______ _____ _____    ______ ____
ROOT
ATOM      1  C   UNL     1       4.921  -0.632   1.258  0.00  0.00    +0.217 C 
ATOM      2  N   UNL     1       5.586  -1.293   2.276  0.00  0.00    -0.295 N 
ATOM      3  C   UNL     1       6.899  -0.780   2.692  0.00  0.00    +0.161 C 
ATOM      4  C   UNL     1       7.849  -1.924   2.653  0.00  0.00    +0.038 A 
ATOM      5  N   UNL     1       9.208  -1.809   2.586  0.00  0.00    -0.356 N 
ATOM      6  H   UNL     1       9.726  -0.942   2.555  0.00  0.00    +0.166 HD
ATOM      7  C   UNL     1       9.779  -3.062   2.513  0.00  0.00    +0.047 A 
ATOM      8  C   UNL     1      11.126  -3.429   2.399  0.00  0.00    +0.026 A 
ATOM      9  C   UNL     1      11.422  -4.792   2.315  0.00  0.00    +0.002 A 
ATOM     10  C   UNL     1      10.411  -5.749   2.349  0.00  0.00    +0.001 A 
ATOM     11  C   UNL     1       9.068  -5.367   2.469  0.00  0.00    +0.010 A 
ATOM     12  C   UNL     1       8.743  -3.999   2.552  0.00  0.00    +0.003 A 
ATOM     13  C   UNL     1       7.526  -3.267   2.651  0.00  0.00    -0.016 A 
ATOM     14  C   UNL     1       6.105  -3.725   2.671  0.00  0.00    +0.056 C 
ATOM     15  C   UNL     1       5.153  -2.536   2.956  0.00  0.00    +0.113 C 
ATOM     16  O   UNL     1       5.378   0.382   0.730  0.00  0.00    -0.276 OA
ENDROOT
BRANCH   1  17
ATOM     17  C   UNL     1       3.564  -1.164   0.833  0.00  0.00    +0.106 C 
BRANCH  17  18
ATOM     18  C   UNL     1       3.207  -0.671  -0.565  0.00  0.00    +0.075 C 
BRANCH  18  19
ATOM     19  S   UNL     1       1.568  -1.292  -1.053  0.00  0.00    -0.178 S 
ATOM     20  H   UNL     1       1.578  -0.779  -2.292  0.00  0.00    +0.102 HD
ENDBRANCH  18  19
ENDBRANCH  17  18
ENDBRANCH   1  17
TORSDOF 3
