REMARK  Name = 
REMARK  6 active torsions:
REMARK  status: ('A' for Active; 'I' for Inactive)
REMARK    1  A    between atoms: C_1  and  C_2
REMARK    2  A    between atoms: C_2  and  C_3
REMARK    3  A    between atoms: C_3  and  O_4
REMARK    4  A    between atoms: P_6  and  O_7
REMARK    5  A    between atoms: P_10  and  O_11
REMARK    6  A    between atoms: C_15  and  O_17
REMARK                            x       y       z     vdW  Elec       q    Type
REMARK                         _______ _______ _______ _____ _____    ______ ____
ROOT
ATOM      1  C   UNL     1       2.478  -0.031   1.657  0.00  0.00    +0.047 C 
ATOM      2  C   UNL     1       2.473   0.067   0.119  0.00  0.00    +0.129 C 
ATOM      3  C   UNL     1       2.944   1.457  -0.389  0.00  0.00    +0.175 C 
ATOM      4  C   UNL     1       4.437   1.789  -0.198  0.00  0.00    +0.206 C 
ATOM      5  O   UNL     1       5.019   1.324   0.999  0.00  0.00    -0.284 OA
ATOM      6  P   UNL     1       6.030   0.077   1.047  0.00  0.00    +0.483 P 
ATOM      7  O   UNL     1       7.100   0.204   2.073  0.00  0.00    -0.227 OA
ATOM      8  O   UNL     1       5.159  -1.237   1.151  0.00  0.00    -0.186 OA
ATOM      9  P   UNL     1       4.234  -1.959   0.092  0.00  0.00    +0.484 P 
ATOM     10  O   UNL     1       3.490  -3.138   0.628  0.00  0.00    -0.227 OA
ATOM     11  O   UNL     1       3.332  -0.833  -0.585  0.00  0.00    -0.275 OA
ENDROOT
BRANCH   3  12
ATOM     12  O   UNL     1       2.724   1.533  -1.815  0.00  0.00    -0.387 OA
ATOM     13  H   UNL     1       2.991   0.671  -2.188  0.00  0.00    +0.210 HD
ENDBRANCH   3  12
BRANCH   6  14
ATOM     14  O   UNL     1       6.659  -0.002  -0.431  0.00  0.00    -0.302 OA
ATOM     15  H   UNL     1       7.468   0.555  -0.449  0.00  0.00    +0.222 HD
ENDBRANCH   6  14
BRANCH   9  16
ATOM     16  O   UNL     1       5.275  -2.309  -1.074  0.00  0.00    -0.302 OA
ATOM     17  H   UNL     1       5.872  -1.561  -1.280  0.00  0.00    +0.222 HD
ENDBRANCH   9  16
BRANCH   2  18
ATOM     18  C   UNL     1       1.004  -0.165  -0.348  0.00  0.00    +0.193 C 
BRANCH  18  19
ATOM     19  O   UNL     1       0.544  -1.489  -0.097  0.00  0.00    -0.392 OA
ATOM     20  H   UNL     1       0.535  -1.663   0.858  0.00  0.00    +0.210 HD
ENDBRANCH  18  19
ENDBRANCH   2  18
TORSDOF 5
