REMARK  Name = 
REMARK  8 active torsions:
REMARK  status: ('A' for Active; 'I' for Inactive)
REMARK    1  A    between atoms: O_1  and  C_2
REMARK    2  A    between atoms: C_5  and  C_8
REMARK    3  A    between atoms: C_13  and  O_14
REMARK    4  A    between atoms: C_19  and  C_21
REMARK    5  A    between atoms: C_24  and  O_25
REMARK    6  A    between atoms: O_25  and  C_26
REMARK    7  A    between atoms: C_26  and  C_27
REMARK    8  A    between atoms: C_27  and  N_28
REMARK                            x       y       z     vdW  Elec       q    Type
REMARK                         _______ _______ _______ _____ _____    ______ ____
ROOT
ATOM      1  C   UNL     1       6.190  -0.128   0.685  0.00  0.00    +0.126 C 
ATOM      2  C   UNL     1       7.315  -1.025   0.102  0.00  0.00    +0.221 C 
ATOM      3  O   UNL     1       7.908  -0.493  -1.095  0.00  0.00    -0.482 OA
ATOM      4  C   UNL     1       8.341   0.805  -1.067  0.00  0.00    +0.135 A 
ATOM      5  C   UNL     1       7.961   1.779  -0.135  0.00  0.00    +0.054 A 
ATOM      6  C   UNL     1       8.397   3.103  -0.302  0.00  0.00    +0.063 A 
ATOM      7  C   UNL     1       9.220   3.436  -1.373  0.00  0.00    +0.118 A 
ATOM      8  C   UNL     1       9.640   2.467  -2.272  0.00  0.00    +0.049 A 
ATOM      9  C   UNL     1       9.193   1.154  -2.122  0.00  0.00    +0.050 A 
ATOM     10  S   UNL     1       6.931   1.440   1.273  0.00  0.00    -0.109 S 
ENDROOT
BRANCH   1  14
ATOM     11  C   UNL     1       3.608  -1.806   3.731  0.00  0.00    +0.117 A 
ATOM     12  C   UNL     1       4.936  -2.212   3.677  0.00  0.00    +0.046 A 
ATOM     13  C   UNL     1       5.797  -1.650   2.732  0.00  0.00    +0.008 A 
ATOM     14  C   UNL     1       5.325  -0.707   1.800  0.00  0.00    -0.030 A 
ATOM     15  C   UNL     1       3.991  -0.280   1.912  0.00  0.00    +0.008 A 
ATOM     16  C   UNL     1       3.135  -0.824   2.871  0.00  0.00    +0.046 A 
BRANCH  11  17
ATOM     17  O   UNL     1       2.795  -2.400   4.647  0.00  0.00    -0.507 OA
ATOM     18  H   UNL     1       1.892  -2.066   4.517  0.00  0.00    +0.292 HD
ENDBRANCH  11  17
ENDBRANCH   1  14
BRANCH   2  19
ATOM     19  C   UNL     1       6.798  -2.410  -0.286  0.00  0.00    -0.006 A 
ATOM     20  C   UNL     1       5.719  -2.597  -1.167  0.00  0.00    +0.011 A 
ATOM     21  C   UNL     1       5.174  -3.876  -1.370  0.00  0.00    +0.046 A 
ATOM     22  C   UNL     1       5.704  -4.985  -0.712  0.00  0.00    +0.121 A 
ATOM     23  C   UNL     1       6.830  -4.806   0.098  0.00  0.00    +0.046 A 
ATOM     24  C   UNL     1       7.374  -3.540   0.302  0.00  0.00    +0.011 A 
BRANCH  22  25
ATOM     25  O   UNL     1       5.060  -6.191  -0.905  0.00  0.00    -0.491 OA
BRANCH  25  26
ATOM     26  C   UNL     1       5.563  -7.247  -0.073  0.00  0.00    +0.244 C 
BRANCH  26  27
ATOM     27  C   UNL     1       4.769  -8.555  -0.204  0.00  0.00    +0.125 C 
BRANCH  27  28
ATOM     28  N   UNL     1       5.416  -9.666   0.531  0.00  0.00    -0.299 NA
ATOM     29  C   UNL     1       4.774 -10.962   0.267  0.00  0.00    +0.084 C 
ATOM     30  C   UNL     1       3.421 -11.136   0.961  0.00  0.00    +0.015 C 
ATOM     31  C   UNL     1       3.514 -10.857   2.459  0.00  0.00    +0.002 C 
ATOM     32  C   UNL     1       4.211  -9.529   2.731  0.00  0.00    +0.015 C 
ATOM     33  C   UNL     1       5.542  -9.455   1.983  0.00  0.00    +0.084 C 
ENDBRANCH  27  28
ENDBRANCH  26  27
ENDBRANCH  25  26
ENDBRANCH  22  25
ENDBRANCH   2  19
BRANCH   7  34
ATOM     34  O   UNL     1       9.633   4.719  -1.580  0.00  0.00    -0.507 OA
ATOM     35  H   UNL     1       9.205   5.296  -0.925  0.00  0.00    +0.292 HD
ENDBRANCH   7  34
TORSDOF 8
