REMARK  Name = 
REMARK  5 active torsions:
REMARK  status: ('A' for Active; 'I' for Inactive)
REMARK    1  A    between atoms: O_1  and  C_2
REMARK    2  A    between atoms: C_5  and  O_6
REMARK    3  A    between atoms: C_5  and  C_13
REMARK    4  A    between atoms: C_10  and  O_12
REMARK    5  A    between atoms: C_13  and  O_14
REMARK                            x       y       z     vdW  Elec       q    Type
REMARK                         _______ _______ _______ _____ _____    ______ ____
ROOT
ATOM      1  C   UNL     1       2.364  -0.015  -0.068  0.00  0.00    +0.154 C 
ATOM      2  C   UNL     1       2.885   1.028  -1.063  0.00  0.00    +0.209 C 
ATOM      3  C   UNL     1       2.558   0.614  -2.492  0.00  0.00    +0.167 C 
ATOM      4  O   UNL     1       2.200   1.448  -3.326  0.00  0.00    -0.294 OA
ATOM      5  C   UNL     1       2.870  -0.807  -2.900  0.00  0.00    +0.123 C 
ATOM      6  C   UNL     1       2.416  -1.807  -1.845  0.00  0.00    +0.171 C 
ATOM      7  C   UNL     1       2.834  -1.425  -0.420  0.00  0.00    +0.081 C 
ENDROOT
BRANCH   1   8
ATOM      8  O   UNL     1       0.932  -0.014  -0.053  0.00  0.00    -0.389 OA
ATOM      9  H   UNL     1       0.656  -0.372   0.814  0.00  0.00    +0.210 HD
ENDBRANCH   1   8
BRANCH   2  10
ATOM     10  O   UNL     1       4.295   1.164  -0.933  0.00  0.00    -0.382 OA
ATOM     11  H   UNL     1       4.560   1.904  -1.513  0.00  0.00    +0.210 HD
ENDBRANCH   2  10
BRANCH   6  12
ATOM     12  C   UNL     1       3.023  -3.180  -2.178  0.00  0.00    +0.337 C 
ATOM     13  O   UNL     1       4.214  -3.440  -2.173  0.00  0.00    -0.248 OA
BRANCH  12  14
ATOM     14  O   UNL     1       2.063  -4.089  -2.481  0.00  0.00    -0.479 OA
ATOM     15  H   UNL     1       1.192  -3.623  -2.415  0.00  0.00    +0.295 HD
ENDBRANCH  12  14
ENDBRANCH   6  12
BRANCH   6  16
ATOM     16  O   UNL     1       0.981  -1.967  -1.919  0.00  0.00    -0.377 OA
ATOM     17  H   UNL     1       0.578  -1.196  -1.459  0.00  0.00    +0.211 HD
ENDBRANCH   6  16
TORSDOF 5
