REMARK  Name = 
REMARK  38 active torsions:
REMARK  status: ('A' for Active; 'I' for Inactive)
REMARK    1  A    between atoms: C_1  and  C_2
REMARK    2  A    between atoms: C_2  and  C_3
REMARK    3  A    between atoms: C_3  and  C_4
REMARK    4  A    between atoms: C_4  and  C_5
REMARK    5  A    between atoms: C_5  and  C_6
REMARK    6  A    between atoms: C_6  and  C_7
REMARK    7  A    between atoms: C_7  and  C_8
REMARK    8  A    between atoms: C_8  and  O_10
REMARK    9  A    between atoms: C_8  and  C_11
REMARK   10  A    between atoms: C_11  and  C_12
REMARK   11  A    between atoms: C_12  and  S_14
REMARK   12  A    between atoms: S_14  and  C_15
REMARK   13  A    between atoms: C_15  and  C_16
REMARK   14  A    between atoms: C_16  and  N_17
REMARK   15  A    between atoms: C_18  and  C_20
REMARK   16  A    between atoms: C_20  and  C_21
REMARK   17  A    between atoms: C_21  and  N_22
REMARK   18  A    between atoms: C_23  and  C_25
REMARK   19  A    between atoms: C_25  and  O_27
REMARK   20  A    between atoms: C_25  and  C_28
REMARK   21  A    between atoms: C_28  and  C_29
REMARK   22  A    between atoms: C_28  and  C_30
REMARK   23  A    between atoms: C_28  and  C_31
REMARK   24  A    between atoms: C_31  and  O_32
REMARK   25  A    between atoms: O_32  and  P_33
REMARK   26  A    between atoms: P_33  and  O_34
REMARK   27  A    between atoms: P_33  and  O_36
REMARK   28  A    between atoms: O_36  and  P_37
REMARK   29  A    between atoms: P_37  and  O_38
REMARK   30  A    between atoms: P_37  and  O_40
REMARK   31  A    between atoms: O_40  and  C_41
REMARK   32  A    between atoms: C_41  and  C_42
REMARK   33  A    between atoms: C_45  and  N_57
REMARK   34  A    between atoms: C_47  and  O_49
REMARK   35  A    between atoms: C_50  and  O_52
REMARK   36  A    between atoms: O_52  and  P_53
REMARK   37  A    between atoms: P_53  and  O_54
REMARK   38  A    between atoms: P_53  and  O_55
REMARK                            x       y       z     vdW  Elec       q    Type
REMARK                         _______ _______ _______ _____ _____    ______ ____
ROOT
ATOM      1  P   UNL     1      34.058  -9.615  -0.121  0.00  0.00    +0.483 P 
ATOM      2  O   UNL     1      33.296  -8.376   0.363  0.00  0.00    -0.227 OA
ENDROOT
BRANCH   1   3
ATOM      3  O   UNL     1      33.401  -9.325  -1.695  0.00  0.00    -0.302 OA
ATOM      4  H   UNL     1      32.710  -8.654  -1.524  0.00  0.00    +0.222 HD
ENDBRANCH   1   3
BRANCH   1   5
ATOM      5  O   UNL     1      34.715  -9.904   1.453  0.00  0.00    -0.186 OA
BRANCH   5   6
ATOM      6  P   UNL     1      34.223 -11.468   2.005  0.00  0.00    +0.483 P 
ATOM      7  O   UNL     1      33.220 -11.578   0.860  0.00  0.00    -0.227 OA
BRANCH   6   8
ATOM      8  O   UNL     1      33.489 -10.755   3.272  0.00  0.00    -0.302 OA
ATOM      9  H   UNL     1      32.621 -10.379   3.033  0.00  0.00    +0.222 HD
ENDBRANCH   6   8
BRANCH   6  10
ATOM     10  O   UNL     1      33.731 -13.032   2.557  0.00  0.00    -0.284 OA
BRANCH  10  11
ATOM     11  C   UNL     1      32.279 -13.225   2.485  0.00  0.00    +0.206 C 
BRANCH  11  12
ATOM     12  C   UNL     1      31.696 -14.581   2.878  0.00  0.00    +0.179 C 
ATOM     13  C   UNL     1      32.256 -15.744   2.049  0.00  0.00    +0.194 C 
ATOM     14  C   UNL     1      33.122 -16.504   3.047  0.00  0.00    +0.196 C 
ATOM     15  C   UNL     1      33.094 -15.663   4.339  0.00  0.00    +0.253 C 
ATOM     16  O   UNL     1      31.966 -14.796   4.256  0.00  0.00    -0.346 OA
BRANCH  15  17
ATOM     17  N   UNL     1      32.963 -16.444   5.547  0.00  0.00    -0.286 N 
ATOM     18  C   UNL     1      33.822 -17.432   5.935  0.00  0.00    +0.167 A 
ATOM     19  N   UNL     1      34.936 -17.838   5.304  0.00  0.00    -0.216 NA
ATOM     20  C   UNL     1      35.501 -18.865   5.977  0.00  0.00    +0.225 A 
ATOM     21  N   UNL     1      35.064 -19.480   7.098  0.00  0.00    -0.219 NA
ATOM     22  C   UNL     1      33.915 -19.046   7.666  0.00  0.00    +0.147 A 
ATOM     23  N   UNL     1      33.429 -19.710   8.782  0.00  0.00    -0.341 N 
ATOM     24  H   UNL     1      32.759 -19.177   9.324  0.00  0.00    +0.144 HD
ATOM     25  H   UNL     1      34.132 -20.245   9.270  0.00  0.00    +0.144 HD
ATOM     26  C   UNL     1      33.263 -17.946   7.093  0.00  0.00    +0.147 A 
ATOM     27  N   UNL     1      32.132 -17.243   7.451  0.00  0.00    -0.231 NA
ATOM     28  C   UNL     1      31.993 -16.334   6.510  0.00  0.00    +0.203 A 
ENDBRANCH  15  17
BRANCH  14  29
ATOM     29  O   UNL     1      34.461 -16.606   2.537  0.00  0.00    -0.385 OA
ATOM     30  H   UNL     1      34.981 -17.080   3.219  0.00  0.00    +0.210 HD
ENDBRANCH  14  29
BRANCH  13  31
ATOM     31  O   UNL     1      31.213 -16.600   1.488  0.00  0.00    -0.278 OA
BRANCH  31  32
ATOM     32  P   UNL     1      30.220 -15.719   0.378  0.00  0.00    +0.473 P 
ATOM     33  O   UNL     1      29.332 -14.931  -0.615  0.00  0.00    -0.228 OA
BRANCH  32  34
ATOM     34  O   UNL     1      29.012 -16.002   1.440  0.00  0.00    -0.303 OA
ATOM     35  H   UNL     1      28.606 -16.847   1.167  0.00  0.00    +0.222 HD
ENDBRANCH  32  34
BRANCH  32  36
ATOM     36  O   UNL     1      30.017 -17.146  -0.396  0.00  0.00    -0.303 OA
ATOM     37  H   UNL     1      30.327 -17.076  -1.318  0.00  0.00    +0.222 HD
ENDBRANCH  32  36
ENDBRANCH  31  32
ENDBRANCH  13  31
ENDBRANCH  11  12
ENDBRANCH  10  11
ENDBRANCH   6  10
ENDBRANCH   5   6
ENDBRANCH   1   5
BRANCH   1  38
ATOM     38  O   UNL     1      35.545  -9.064  -0.651  0.00  0.00    -0.286 OA
BRANCH  38  39
ATOM     39  C   UNL     1      36.667  -9.212   0.225  0.00  0.00    +0.181 C 
BRANCH  39  40
ATOM     40  C   UNL     1      38.018  -8.912  -0.418  0.00  0.00    +0.024 C 
ATOM     41  C   UNL     1      39.096  -9.075   0.682  0.00  0.00    +0.016 C 
ATOM     42  C   UNL     1      38.301  -9.977  -1.497  0.00  0.00    +0.016 C 
BRANCH  40  43
ATOM     43  C   UNL     1      38.001  -7.494  -1.040  0.00  0.00    +0.208 C 
BRANCH  43  46
ATOM     44  N   UNL     1      36.605  -5.661  -0.120  0.00  0.00    -0.313 N 
ATOM     45  H   UNL     1      35.850  -6.090  -0.652  0.00  0.00    +0.149 HD
ATOM     46  C   UNL     1      37.768  -6.388   0.023  0.00  0.00    +0.242 C 
ATOM     47  O   UNL     1      38.601  -6.128   0.889  0.00  0.00    -0.273 OA
BRANCH  44  48
ATOM     48  C   UNL     1      36.214  -4.656   0.862  0.00  0.00    +0.113 C 
BRANCH  48  49
ATOM     49  C   UNL     1      37.206  -3.500   1.003  0.00  0.00    +0.114 C 
BRANCH  49  52
ATOM     50  N   UNL     1      37.764  -1.949   2.792  0.00  0.00    -0.314 N 
ATOM     51  H   UNL     1      38.718  -2.064   2.456  0.00  0.00    +0.149 HD
ATOM     52  C   UNL     1      36.741  -2.528   2.065  0.00  0.00    +0.215 C 
ATOM     53  O   UNL     1      35.561  -2.256   2.243  0.00  0.00    -0.276 OA
BRANCH  50  54
ATOM     54  C   UNL     1      37.510  -0.891   3.757  0.00  0.00    +0.115 C 
BRANCH  54  55
ATOM     55  C   UNL     1      38.595  -0.775   4.831  0.00  0.00    +0.096 C 
BRANCH  55  56
ATOM     56  S   UNL     1      40.205  -0.303   4.115  0.00  0.00    -0.087 S 
BRANCH  56  57
ATOM     57  C   UNL     1      41.182  -0.265   5.588  0.00  0.00    +0.192 C 
ATOM     58  O   UNL     1      40.722  -0.582   6.681  0.00  0.00    -0.285 OA
BRANCH  57  59
ATOM     59  C   UNL     1      42.618   0.156   5.357  0.00  0.00    +0.117 C 
BRANCH  59  60
ATOM     60  C   UNL     1      43.395   0.297   6.670  0.00  0.00    +0.122 C 
BRANCH  60  61
ATOM     61  O   UNL     1      43.494  -0.984   7.301  0.00  0.00    -0.391 OA
ATOM     62  H   UNL     1      42.590  -1.233   7.582  0.00  0.00    +0.210 HD
ENDBRANCH  60  61
BRANCH  60  63
ATOM     63  C   UNL     1      44.839   0.800   6.480  0.00  0.00    +0.032 C 
BRANCH  63  64
ATOM     64  C   UNL     1      44.941   2.134   5.740  0.00  0.00    +0.003 C 
BRANCH  64  65
ATOM     65  C   UNL     1      46.380   2.648   5.643  0.00  0.00    +0.000 C 
BRANCH  65  66
ATOM     66  C   UNL     1      46.414   3.967   4.867  0.00  0.00    -0.000 C 
BRANCH  66  67
ATOM     67  C   UNL     1      47.832   4.519   4.721  0.00  0.00    -0.000 C 
BRANCH  67  69
ATOM     68  C   UNL     1      49.227   6.402   3.789  0.00  0.00    +0.004 C 
ATOM     69  C   UNL     1      47.825   5.837   3.944  0.00  0.00    -0.003 C 
ENDBRANCH  67  69
ENDBRANCH  66  67
ENDBRANCH  65  66
ENDBRANCH  64  65
ENDBRANCH  63  64
ENDBRANCH  60  63
ENDBRANCH  59  60
ENDBRANCH  57  59
ENDBRANCH  56  57
ENDBRANCH  55  56
ENDBRANCH  54  55
ENDBRANCH  50  54
ENDBRANCH  49  52
ENDBRANCH  48  49
ENDBRANCH  44  48
ENDBRANCH  43  46
BRANCH  43  70
ATOM     70  O   UNL     1      39.240  -7.261  -1.711  0.00  0.00    -0.382 OA
ATOM     71  H   UNL     1      39.274  -6.311  -1.918  0.00  0.00    +0.210 HD
ENDBRANCH  43  70
ENDBRANCH  40  43
ENDBRANCH  39  40
ENDBRANCH  38  39
ENDBRANCH   1  38
TORSDOF 35
