REMARK  Name = 
REMARK  13 active torsions:
REMARK  status: ('A' for Active; 'I' for Inactive)
REMARK    1  A    between atoms: C_1  and  C_2
REMARK    2  A    between atoms: N_4  and  C_5
REMARK    3  A    between atoms: C_7  and  O_9
REMARK    4  A    between atoms: C_11  and  C_13
REMARK    5  A    between atoms: C_13  and  O_14
REMARK    6  A    between atoms: C_15  and  O_17
REMARK    7  A    between atoms: O_17  and  C_18
REMARK    8  A    between atoms: C_21  and  C_23
REMARK    9  A    between atoms: C_23  and  O_24
REMARK   10  A    between atoms: C_25  and  O_27
REMARK   11  A    between atoms: C_28  and  O_30
REMARK   12  A    between atoms: C_31  and  O_33
REMARK   13  A    between atoms: C_34  and  O_36
REMARK                            x       y       z     vdW  Elec       q    Type
REMARK                         _______ _______ _______ _____ _____    ______ ____
ROOT
ATOM      1  C   UNL     1       1.831  -1.074  -9.049  0.00  0.00    +0.160 C 
ATOM      2  C   UNL     1       3.174  -1.557  -8.481  0.00  0.00    +0.171 C 
ATOM      3  C   UNL     1       3.386  -1.053  -7.041  0.00  0.00    +0.183 C 
ATOM      4  C   UNL     1       3.286   0.495  -7.019  0.00  0.00    +0.178 C 
ATOM      5  O   UNL     1       2.000   0.898  -7.532  0.00  0.00    -0.341 OA
ATOM      6  C   UNL     1       1.694   0.458  -8.860  0.00  0.00    +0.270 C 
ENDROOT
BRANCH   1   9
ATOM      7  C   UNL     1      -0.718  -3.737  -8.098  0.00  0.00    +0.109 C 
ATOM      8  C   UNL     1       0.472  -3.146  -8.794  0.00  0.00    +0.210 C 
ATOM      9  N   UNL     1       0.690  -1.816  -8.490  0.00  0.00    -0.305 N 
ATOM     10  H   UNL     1       0.171  -1.389  -7.725  0.00  0.00    +0.149 HD
ATOM     11  O   UNL     1       1.184  -3.804  -9.551  0.00  0.00    -0.276 OA
ENDBRANCH   1   9
BRANCH   2  12
ATOM     12  O   UNL     1       4.260  -1.132  -9.318  0.00  0.00    -0.387 OA
ATOM     13  H   UNL     1       5.071  -1.325  -8.800  0.00  0.00    +0.210 HD
ENDBRANCH   2  12
BRANCH   6  14
ATOM     14  O   UNL     1       2.426   1.187  -9.834  0.00  0.00    -0.365 OA
ATOM     15  H   UNL     1       3.139   0.602 -10.157  0.00  0.00    +0.213 HD
ENDBRANCH   6  14
BRANCH   3  16
ATOM     16  O   UNL     1       4.592  -1.545  -6.431  0.00  0.00    -0.340 OA
BRANCH  16  17
ATOM     17  C   UNL     1       4.665  -2.967  -6.178  0.00  0.00    +0.282 C 
ATOM     18  C   UNL     1       3.594  -3.451  -5.155  0.00  0.00    +0.201 C 
ATOM     19  C   UNL     1       3.540  -4.987  -5.089  0.00  0.00    +0.179 C 
ATOM     20  C   UNL     1       3.455  -5.578  -6.504  0.00  0.00    +0.177 C 
ATOM     21  C   UNL     1       4.678  -5.100  -7.300  0.00  0.00    +0.178 C 
ATOM     22  O   UNL     1       4.700  -3.672  -7.411  0.00  0.00    -0.341 OA
BRANCH  18  23
ATOM     23  O   UNL     1       3.875  -2.929  -3.841  0.00  0.00    -0.384 OA
ATOM     24  H   UNL     1       4.517  -2.202  -3.925  0.00  0.00    +0.210 HD
ENDBRANCH  18  23
BRANCH  19  25
ATOM     25  O   UNL     1       2.423  -5.408  -4.288  0.00  0.00    -0.386 OA
ATOM     26  H   UNL     1       1.956  -6.117  -4.760  0.00  0.00    +0.210 HD
ENDBRANCH  19  25
BRANCH  20  27
ATOM     27  O   UNL     1       2.207  -5.163  -7.074  0.00  0.00    -0.386 OA
ATOM     28  H   UNL     1       2.175  -5.379  -8.026  0.00  0.00    +0.210 HD
ENDBRANCH  20  27
BRANCH  21  29
ATOM     29  C   UNL     1       4.686  -5.670  -8.723  0.00  0.00    +0.190 C 
BRANCH  29  30
ATOM     30  O   UNL     1       5.891  -5.297  -9.388  0.00  0.00    -0.392 OA
ATOM     31  H   UNL     1       5.868  -4.322  -9.450  0.00  0.00    +0.210 HD
ENDBRANCH  29  30
ENDBRANCH  21  29
ENDBRANCH  16  17
ENDBRANCH   3  16
BRANCH   4  32
ATOM     32  C   UNL     1       4.429   1.332  -7.633  0.00  0.00    +0.190 C 
BRANCH  32  33
ATOM     33  O   UNL     1       5.673   1.099  -6.984  0.00  0.00    -0.392 OA
ATOM     34  H   UNL     1       6.157   1.943  -6.989  0.00  0.00    +0.210 HD
ENDBRANCH  32  33
ENDBRANCH   4  32
TORSDOF 12
