REMARK  Name = 
REMARK  5 active torsions:
REMARK  status: ('A' for Active; 'I' for Inactive)
REMARK    1  A    between atoms: N_6  and  C_12
REMARK    2  A    between atoms: C_9  and  O_10
REMARK    3  A    between atoms: C_14  and  C_18
REMARK    4  A    between atoms: N_20  and  C_21
REMARK    5  A    between atoms: C_21  and  C_22
REMARK                            x       y       z     vdW  Elec       q    Type
REMARK                         _______ _______ _______ _____ _____    ______ ____
ROOT
ATOM      1  C   UNL     1       8.549  -1.411  -0.074  0.00  0.00    +0.087 A 
ATOM      2  C   UNL     1       8.951  -2.757  -0.063  0.00  0.00    +0.029 A 
ATOM      3  C   UNL     1      10.302  -3.090  -0.180  0.00  0.00    +0.003 A 
ATOM      4  C   UNL     1      11.256  -2.082  -0.313  0.00  0.00    +0.013 A 
ATOM      5  C   UNL     1      10.872  -0.733  -0.312  0.00  0.00    +0.039 A 
ATOM      6  C   UNL     1       9.513  -0.394  -0.196  0.00  0.00    +0.042 A 
ENDROOT
BRANCH   1  16
ATOM      7  N   UNL     1       2.177   1.367   0.637  0.00  0.00    -0.327 N 
ATOM      8  H   UNL     1       1.284   0.936   0.439  0.00  0.00    +0.145 HD
ATOM      9  H   UNL     1       2.376   2.262   0.215  0.00  0.00    +0.145 HD
ATOM     10  C   UNL     1       3.205   0.463   0.463  0.00  0.00    +0.218 A 
ATOM     11  N   UNL     1       2.826  -0.841   0.501  0.00  0.00    -0.178 NA
ATOM     12  C   UNL     1       3.765  -1.800   0.393  0.00  0.00    +0.247 A 
ATOM     13  C   UNL     1       5.087  -1.387   0.238  0.00  0.00    +0.193 A 
ATOM     14  C   UNL     1       5.391   0.008   0.181  0.00  0.00    +0.210 A 
ATOM     15  N   UNL     1       6.707   0.182   0.032  0.00  0.00    -0.127 NA
ATOM     16  N   UNL     1       7.164  -1.097   0.025  0.00  0.00    -0.148 N 
ATOM     17  N   UNL     1       6.229  -2.083   0.128  0.00  0.00    -0.140 NA
ATOM     18  N   UNL     1       4.445   0.973   0.278  0.00  0.00    -0.191 NA
BRANCH  12  19
ATOM     19  O   UNL     1       3.374  -3.111   0.460  0.00  0.00    -0.491 OA
ATOM     20  H   UNL     1       4.199  -3.626   0.396  0.00  0.00    +0.294 HD
ENDBRANCH  12  19
ENDBRANCH   1  16
BRANCH   5  21
ATOM     21  C   UNL     1      11.936   0.293  -0.507  0.00  0.00    +0.244 C 
ATOM     22  N   UNL     1      11.712   1.531   0.056  0.00  0.00    -0.307 N 
ATOM     23  H   UNL     1      10.953   1.657   0.709  0.00  0.00    +0.149 HD
ATOM     24  O   UNL     1      12.950   0.013  -1.137  0.00  0.00    -0.270 OA
BRANCH  22  25
ATOM     25  C   UNL     1      12.635   2.627  -0.134  0.00  0.00    +0.140 C 
BRANCH  25  26
ATOM     26  C   UNL     1      13.621   2.751   0.998  0.00  0.00    -0.028 A 
ATOM     27  C   UNL     1      13.303   3.485   2.151  0.00  0.00    +0.025 A 
ATOM     28  C   UNL     1      14.238   3.618   3.181  0.00  0.00    +0.043 A 
ATOM     29 CL   UNL     1      13.833   4.536   4.580  0.00  0.00    -0.083 Cl
ATOM     30  C   UNL     1      15.493   3.025   3.085  0.00  0.00    +0.040 A 
ATOM     31  C   UNL     1      15.807   2.284   1.949  0.00  0.00    +0.043 A 
ATOM     32 CL   UNL     1      17.359   1.551   1.816  0.00  0.00    -0.083 Cl
ATOM     33  C   UNL     1      14.881   2.137   0.915  0.00  0.00    +0.025 A 
ENDBRANCH  25  26
ENDBRANCH  22  25
ENDBRANCH   5  21
TORSDOF 5
