REMARK  Name = 
REMARK  15 active torsions:
REMARK  status: ('A' for Active; 'I' for Inactive)
REMARK    1  A    between atoms: CG2_1  and  CB_2
REMARK    2  A    between atoms: CB_2  and  OG1_4
REMARK    3  A    between atoms: CB_2  and  CA_5
REMARK    4  A    between atoms: CA_5  and  N_7
REMARK    5  A    between atoms: CA_5  and  C_23
REMARK    6  A    between atoms: N_7  and  C_8
REMARK    7  A    between atoms: C_8  and  C_9
REMARK    8  A    between atoms: C_10  and  O_11
REMARK    9  A    between atoms: C_12  and  C_13
REMARK   10  A    between atoms: C_16  and  C_17
REMARK   11  A    between atoms: C_17  and  O_18
REMARK   12  A    between atoms: O_18  and  P_19
REMARK   13  A    between atoms: P_19  and  O_20
REMARK   14  A    between atoms: P_19  and  O_21
REMARK   15  A    between atoms: C_23  and  O_24
REMARK                            x       y       z     vdW  Elec       q    Type
REMARK                         _______ _______ _______ _____ _____    ______ ____
ROOT
ATOM      1  C   UNK A   0       0.692   1.509  -3.438  0.00  0.00    +0.016 A 
ATOM      2  C   UNK A   0       0.875   2.880  -3.157  0.00  0.00    +0.005 A 
ATOM      3  C   UNK A   0       0.463   3.796  -4.129  0.00  0.00    +0.117 A 
ATOM      4  N   UNK A   0      -0.129   3.471  -5.298  0.00  0.00    -0.256 NA
ATOM      5  C   UNK A   0      -0.325   2.157  -5.549  0.00  0.00    +0.080 A 
ATOM      6  C   UNK A   0      -1.006   1.835  -6.845  0.00  0.00    +0.069 C 
ATOM      7  C   UNK A   0       0.066   1.166  -4.650  0.00  0.00    +0.142 A 
ENDROOT
BRANCH   7   8
ATOM      8  O   UNK A   0      -0.187  -0.145  -4.961  0.00  0.00    -0.505 OA
ATOM      9  H   UNK A   0      -0.580  -0.551  -4.173  0.00  0.00    +0.292 HD
ENDBRANCH   7   8
BRANCH   1  10
ATOM     10  C   UNK A   0       1.097   0.432  -2.457  0.00  0.00    +0.121 C 
BRANCH  10  11
ATOM     11  N   THR A   1       2.041  -0.531  -3.020  0.00  0.00    -0.298 NA
ATOM     12  H   THR A   1       1.677  -0.948  -3.876  0.00  0.00    +0.123 HD
BRANCH  11  13
ATOM     13  CA  THR A   1       2.488  -1.558  -2.046  0.00  0.00    +0.192 C 
BRANCH  13  15
ATOM     14  CG2 THR A   1       0.578  -3.195  -2.598  0.00  0.00    +0.040 C 
ATOM     15  CB  THR A   1       1.337  -2.455  -1.497  0.00  0.00    +0.139 C 
BRANCH  15  16
ATOM     16  OG1 THR A   1       1.880  -3.438  -0.598  0.00  0.00    -0.390 OA
ATOM     17  HG1 THR A   1       1.133  -3.989  -0.287  0.00  0.00    +0.210 HD
ENDBRANCH  15  16
ENDBRANCH  13  15
BRANCH  13  18
ATOM     18  C   THR A   1       3.320  -0.891  -0.910  0.00  0.00    +0.324 C 
ATOM     19  OXT THR A   1       3.861   0.209  -0.989  0.00  0.00    -0.249 OA
BRANCH  18  20
ATOM     20  O   THR A   1       3.452  -1.643   0.209  0.00  0.00    -0.479 OA
ATOM     21  H   THR A   1       3.006  -2.521   0.123  0.00  0.00    +0.295 HD
ENDBRANCH  18  20
ENDBRANCH  13  18
ENDBRANCH  11  13
ENDBRANCH  10  11
ENDBRANCH   1  10
BRANCH   2  22
ATOM     22  C   UNK A   0       1.535   3.398  -1.901  0.00  0.00    +0.209 C 
BRANCH  22  23
ATOM     23  O   UNK A   0       1.001   4.665  -1.556  0.00  0.00    -0.282 OA
BRANCH  23  24
ATOM     24  P   UNK A   0       1.663   5.398  -0.300  0.00  0.00    +0.473 P 
ATOM     25  O   UNK A   0       1.953   4.546   0.885  0.00  0.00    -0.228 OA
BRANCH  24  26
ATOM     26  O   UNK A   0       0.641   6.592  -0.029  0.00  0.00    -0.303 OA
ATOM     27  H   UNK A   0      -0.197   6.269   0.345  0.00  0.00    +0.222 HD
ENDBRANCH  24  26
BRANCH  24  28
ATOM     28  O   UNK A   0       2.922   6.141  -0.934  0.00  0.00    -0.303 OA
ATOM     29  H   UNK A   0       3.693   5.558  -1.049  0.00  0.00    +0.222 HD
ENDBRANCH  24  28
ENDBRANCH  23  24
ENDBRANCH  22  23
ENDBRANCH   2  22
TORSDOF 13
