REMARK  Name = 
REMARK  6 active torsions:
REMARK  status: ('A' for Active; 'I' for Inactive)
REMARK    1  A    between atoms: C_1  and  C_2
REMARK    2  A    between atoms: C_2  and  C_3
REMARK    3  A    between atoms: C_4  and  O_5
REMARK    4  A    between atoms: C_7  and  O_8
REMARK    5  A    between atoms: C_9  and  C_11
REMARK    6  A    between atoms: C_15  and  C_16
REMARK                            x       y       z     vdW  Elec       q    Type
REMARK                         _______ _______ _______ _____ _____    ______ ____
ROOT
ATOM      1  C   UNL     1       3.024   1.133  -1.117  0.00  0.00    -0.005 A 
ATOM      2  C   UNL     1       3.441   0.554  -2.333  0.00  0.00    +0.021 A 
ATOM      3  C   UNL     1       3.596   1.314  -3.506  0.00  0.00    +0.045 A 
ATOM      4  C   UNL     1       3.418   2.705  -3.413  0.00  0.00    +0.130 A 
ATOM      5  C   UNL     1       3.060   3.305  -2.202  0.00  0.00    +0.091 A 
ATOM      6  C   UNL     1       2.855   2.520  -1.070  0.00  0.00    +0.124 A 
ENDROOT
BRANCH   3   7
ATOM      7  C   UNL     1       3.708   0.612  -4.795  0.00  0.00    +0.105 A 
ATOM      8  C   UNL     1       4.440  -0.559  -5.180  0.00  0.00    +0.047 A 
ATOM      9  C   UNL     1       4.017  -0.856  -6.457  0.00  0.00    +0.115 A 
ATOM     10  N   UNL     1       3.129   0.112  -6.788  0.00  0.00    -0.283 N 
ATOM     11  H   UNL     1       2.628   0.233  -7.660  0.00  0.00    +0.188 HD
ATOM     12  N   UNL     1       2.879   0.969  -5.800  0.00  0.00    -0.173 NA
BRANCH   8  13
ATOM     13  C   UNL     1       5.419  -1.344  -4.439  0.00  0.00    +0.092 A 
ATOM     14  N   UNL     1       6.292  -0.780  -3.545  0.00  0.00    -0.236 NA
ATOM     15  C   UNL     1       7.104  -1.751  -3.193  0.00  0.00    +0.197 A 
ATOM     16  N   UNL     1       6.762  -2.934  -3.786  0.00  0.00    -0.350 N 
ATOM     17  H   UNL     1       7.248  -3.815  -3.675  0.00  0.00    +0.166 HD
ATOM     18  C   UNL     1       5.683  -2.690  -4.587  0.00  0.00    +0.112 A 
ENDBRANCH   8  13
ENDBRANCH   3   7
BRANCH   1  20
ATOM     19  C   UNL     1       3.784   0.089   1.067  0.00  0.00    +0.009 C 
ATOM     20  C   UNL     1       2.682   0.215   0.030  0.00  0.00    +0.035 C 
ENDBRANCH   1  20
BRANCH   4  21
ATOM     21  O   UNL     1       3.583   3.514  -4.510  0.00  0.00    -0.506 OA
ATOM     22  H   UNL     1       3.171   4.374  -4.329  0.00  0.00    +0.292 HD
ENDBRANCH   4  21
BRANCH   6  23
ATOM     23  O   UNL     1       2.453   3.187   0.052  0.00  0.00    -0.506 OA
ATOM     24  H   UNL     1       2.441   2.572   0.801  0.00  0.00    +0.292 HD
ENDBRANCH   6  23
TORSDOF 5
