REMARK  Name = 
REMARK  7 active torsions:
REMARK  status: ('A' for Active; 'I' for Inactive)
REMARK    1  A    between atoms: C_1  and  C_2
REMARK    2  A    between atoms: C_2  and  C_3
REMARK    3  A    between atoms: C_3  and  C_4
REMARK    4  A    between atoms: C_4  and  C_5
REMARK    5  A    between atoms: N_8  and  C_19
REMARK    6  A    between atoms: N_9  and  C_12
REMARK    7  A    between atoms: C_15  and  O_16
REMARK                            x       y       z     vdW  Elec       q    Type
REMARK                         _______ _______ _______ _____ _____    ______ ____
ROOT
ATOM      1  C   UNL     1       5.008   1.377  -2.648  0.00  0.00    +0.165 C 
ATOM      2  C   UNL     1       6.403   1.031  -3.114  0.00  0.00    +0.249 C 
ATOM      3  O   UNL     1       6.943  -0.056  -2.956  0.00  0.00    -0.273 OA
ATOM      4  N   UNL     1       6.912   2.188  -3.737  0.00  0.00    -0.180 N 
ATOM      5  N   UNL     1       6.037   3.288  -3.514  0.00  0.00    -0.180 N 
ATOM      6  C   UNL     1       4.999   2.890  -2.653  0.00  0.00    +0.249 C 
ATOM      7  O   UNL     1       4.148   3.583  -2.116  0.00  0.00    -0.273 OA
ENDROOT
BRANCH   4   8
ATOM      8  C   UNL     1       8.316   2.334  -3.891  0.00  0.00    +0.057 A 
ATOM      9  C   UNL     1       9.018   3.413  -3.334  0.00  0.00    +0.029 A 
ATOM     10  C   UNL     1      10.396   3.530  -3.538  0.00  0.00    +0.047 A 
ATOM     11  C   UNL     1      11.063   2.602  -4.329  0.00  0.00    +0.117 A 
ATOM     12  C   UNL     1      10.374   1.548  -4.923  0.00  0.00    +0.047 A 
ATOM     13  C   UNL     1       9.003   1.407  -4.687  0.00  0.00    +0.029 A 
BRANCH  11  14
ATOM     14  O   UNL     1      12.405   2.754  -4.503  0.00  0.00    -0.507 OA
ATOM     15  H   UNL     1      12.750   1.975  -4.971  0.00  0.00    +0.292 HD
ENDBRANCH  11  14
ENDBRANCH   4   8
BRANCH   5  16
ATOM     16  C   UNL     1       5.816   4.300  -4.516  0.00  0.00    +0.057 A 
ATOM     17  C   UNL     1       6.587   4.355  -5.687  0.00  0.00    +0.025 A 
ATOM     18  C   UNL     1       6.303   5.268  -6.710  0.00  0.00    +0.002 A 
ATOM     19  C   UNL     1       5.233   6.146  -6.587  0.00  0.00    +0.000 A 
ATOM     20  C   UNL     1       4.469   6.131  -5.429  0.00  0.00    +0.002 A 
ATOM     21  C   UNL     1       4.768   5.230  -4.400  0.00  0.00    +0.025 A 
ENDBRANCH   5  16
BRANCH   1  22
ATOM     22  C   UNL     1       4.553   0.738  -1.331  0.00  0.00    +0.022 C 
BRANCH  22  23
ATOM     23  C   UNL     1       3.051   0.963  -1.082  0.00  0.00    +0.001 C 
BRANCH  23  25
ATOM     24  C   UNL     1       1.074   0.668   0.432  0.00  0.00    +0.004 C 
ATOM     25  C   UNL     1       2.544   0.327   0.210  0.00  0.00    -0.003 C 
ENDBRANCH  23  25
ENDBRANCH  22  23
ENDBRANCH   1  22
TORSDOF 6
