REMARK  Name = 
REMARK  6 active torsions:
REMARK  status: ('A' for Active; 'I' for Inactive)
REMARK    1  A    between atoms: N_2  and  C_4
REMARK    2  A    between atoms: C_6  and  N_21
REMARK    3  A    between atoms: C_7  and  N_8
REMARK    4  A    between atoms: N_8  and  N_9
REMARK    5  A    between atoms: C_10  and  C_11
REMARK    6  A    between atoms: C_10  and  C_13
REMARK                            x       y       z     vdW  Elec       q    Type
REMARK                         _______ _______ _______ _____ _____    ______ ____
ROOT
ATOM      1  C   UNL     1       2.929  -0.475  -1.287  0.00  0.00    +0.280 A 
ATOM      2  C   UNL     1       2.389  -1.606  -1.911  0.00  0.00    +0.086 A 
ATOM      3  C   UNL     1       2.937  -2.065  -3.119  0.00  0.00    +0.038 A 
ATOM      4  C   UNL     1       3.996  -1.391  -3.752  0.00  0.00    +0.126 A 
ATOM      5  C   UNL     1       4.535  -0.285  -3.068  0.00  0.00    +0.302 A 
ATOM      6  C   UNL     1       4.022   0.187  -1.849  0.00  0.00    +0.170 A 
ENDROOT
BRANCH   1   8
ATOM      7  O   UNL     1       2.841   1.041   0.465  0.00  0.00    -0.576 OA
ATOM      8  N   UNL     1       2.344   0.022  -0.035  0.00  0.00    +0.080 N 
ATOM      9  O   UNL     1       1.384  -0.599   0.439  0.00  0.00    +0.041 OA
ENDBRANCH   1   8
BRANCH   5  10
ATOM     10  N   UNL     1       5.695   0.403  -3.604  0.00  0.00    +0.082 N 
ATOM     11  O   UNL     1       5.603   0.853  -4.753  0.00  0.00    +0.042 OA
ATOM     12  O   UNL     1       6.678   0.515  -2.859  0.00  0.00    -0.576 OA
ENDBRANCH   5  10
BRANCH   4  13
ATOM     13  N   UNL     1       4.548  -1.875  -4.953  0.00  0.00    -0.231 N 
ATOM     14  H   UNL     1       4.971  -1.187  -5.584  0.00  0.00    +0.175 HD
BRANCH  13  15
ATOM     15  N   UNL     1       4.389  -3.163  -5.302  0.00  0.00    -0.185 NA
ATOM     16  C   UNL     1       4.805  -3.607  -6.459  0.00  0.00    +0.081 C 
BRANCH  16  17
ATOM     17  C   UNL     1       4.683  -5.099  -6.674  0.00  0.00    -0.001 A 
ATOM     18  C   UNL     1       4.755  -5.953  -5.563  0.00  0.00    +0.010 A 
ATOM     19  C   UNL     1       4.688  -7.339  -5.729  0.00  0.00    +0.001 A 
ATOM     20  C   UNL     1       4.543  -7.884  -7.003  0.00  0.00    +0.000 A 
ATOM     21  C   UNL     1       4.462  -7.045  -8.112  0.00  0.00    +0.001 A 
ATOM     22  C   UNL     1       4.532  -5.658  -7.951  0.00  0.00    +0.010 A 
ENDBRANCH  16  17
BRANCH  16  23
ATOM     23  C   UNL     1       5.435  -2.854  -7.625  0.00  0.00    +0.166 C 
ATOM     24 CL   UNL     1       5.689  -1.119  -7.453  0.00  0.00    -0.119 Cl
ENDBRANCH  16  23
ENDBRANCH  13  15
ENDBRANCH   4  13
TORSDOF 6
