REMARK  Name = 
REMARK  6 active torsions:
REMARK  status: ('A' for Active; 'I' for Inactive)
REMARK    1  A    between atoms: O_1  and  C_2
REMARK    2  A    between atoms: C_4  and  O_6
REMARK    3  A    between atoms: C_7  and  O_9
REMARK    4  A    between atoms: C_10  and  O_12
REMARK    5  A    between atoms: C_13  and  O_15
REMARK    6  A    between atoms: C_16  and  O_18
REMARK                            x       y       z     vdW  Elec       q    Type
REMARK                         _______ _______ _______ _____ _____    ______ ____
ROOT
ATOM      1  C   UNL     1       2.427  -0.045   0.081  0.00  0.00    +0.176 C 
ATOM      2  C   UNL     1       2.932   0.986  -0.948  0.00  0.00    +0.176 C 
ATOM      3  C   UNL     1       2.483   0.591  -2.376  0.00  0.00    +0.176 C 
ATOM      4  C   UNL     1       2.935  -0.837  -2.755  0.00  0.00    +0.176 C 
ATOM      5  C   UNL     1       2.533  -1.885  -1.692  0.00  0.00    +0.176 C 
ATOM      6  C   UNL     1       2.930  -1.463  -0.263  0.00  0.00    +0.176 C 
ENDROOT
BRANCH   1   7
ATOM      7  O   UNL     1       0.993  -0.005   0.111  0.00  0.00    -0.386 OA
ATOM      8  H   UNL     1       0.718  -0.533   0.886  0.00  0.00    +0.210 HD
ENDBRANCH   1   7
BRANCH   2   9
ATOM      9  O   UNL     1       4.352   1.098  -0.838  0.00  0.00    -0.386 OA
ATOM     10  H   UNL     1       4.669   1.611  -1.605  0.00  0.00    +0.210 HD
ENDBRANCH   2   9
BRANCH   3  11
ATOM     11  O   UNL     1       1.062   0.706  -2.524  0.00  0.00    -0.386 OA
ATOM     12  H   UNL     1       0.668   0.826  -1.634  0.00  0.00    +0.210 HD
ENDBRANCH   3  11
BRANCH   4  13
ATOM     13  O   UNL     1       4.354  -0.834  -2.953  0.00  0.00    -0.386 OA
ATOM     14  H   UNL     1       4.621  -1.750  -3.154  0.00  0.00    +0.210 HD
ENDBRANCH   4  13
BRANCH   5  15
ATOM     15  O   UNL     1       1.131  -2.170  -1.755  0.00  0.00    -0.386 OA
ATOM     16  H   UNL     1       0.650  -1.329  -1.622  0.00  0.00    +0.210 HD
ENDBRANCH   5  15
BRANCH   6  17
ATOM     17  O   UNL     1       4.346  -1.558  -0.085  0.00  0.00    -0.386 OA
ATOM     18  H   UNL     1       4.744  -0.758  -0.499  0.00  0.00    +0.210 HD
ENDBRANCH   6  17
TORSDOF 6
