REMARK  Name = 
REMARK  24 active torsions:
REMARK  status: ('A' for Active; 'I' for Inactive)
REMARK    1  A    between atoms: C_1  and  C_2
REMARK    2  A    between atoms: N_4  and  C_5
REMARK    3  A    between atoms: C_7  and  O_9
REMARK    4  A    between atoms: C_11  and  O_12
REMARK    5  A    between atoms: C_11  and  C_56
REMARK    6  A    between atoms: O_12  and  C_13
REMARK    7  A    between atoms: C_15  and  O_17
REMARK    8  A    between atoms: C_18  and  C_20
REMARK    9  A    between atoms: C_20  and  O_21
REMARK   10  A    between atoms: C_23  and  O_25
REMARK   11  A    between atoms: O_25  and  C_26
REMARK   12  A    between atoms: C_28  and  C_30
REMARK   13  A    between atoms: C_30  and  O_31
REMARK   14  A    between atoms: C_33  and  O_35
REMARK   15  A    between atoms: C_36  and  O_38
REMARK   16  A    between atoms: C_39  and  O_41
REMARK   17  A    between atoms: C_42  and  O_44
REMARK   18  A    between atoms: C_46  and  C_48
REMARK   19  A    between atoms: C_48  and  O_50
REMARK   20  A    between atoms: C_48  and  C_51
REMARK   21  A    between atoms: C_51  and  O_53
REMARK   22  A    between atoms: C_51  and  C_54
REMARK   23  A    between atoms: C_54  and  O_55
REMARK   24  A    between atoms: C_56  and  O_57
REMARK                            x       y       z     vdW  Elec       q    Type
REMARK                         _______ _______ _______ _____ _____    ______ ____
ROOT
ATOM      1  C   UNL     1       4.346  -2.666 -10.225  0.00  0.00    +0.186 C 
ATOM      2  C   UNL     1       3.319  -2.372 -11.346  0.00  0.00    +0.202 C 
ATOM      3  C   UNL     1       3.903  -2.356 -12.793  0.00  0.00    +0.282 C 
ATOM      4  O   UNL     1       5.164  -1.682 -12.888  0.00  0.00    -0.341 OA
ATOM      5  C   UNL     1       6.101  -1.886 -11.810  0.00  0.00    +0.178 C 
ATOM      6  C   UNL     1       5.463  -1.646 -10.425  0.00  0.00    +0.177 C 
ENDROOT
BRANCH   6   7
ATOM      7  O   UNL     1       6.390  -1.710  -9.343  0.00  0.00    -0.386 OA
ATOM      8  H   UNL     1       7.000  -2.449  -9.545  0.00  0.00    +0.210 HD
ENDBRANCH   6   7
BRANCH   2   9
ATOM      9  O   UNL     1       2.166  -3.204 -11.232  0.00  0.00    -0.384 OA
ATOM     10  H   UNL     1       2.451  -4.077 -11.553  0.00  0.00    +0.210 HD
ENDBRANCH   2   9
BRANCH   1  11
ATOM     11  O   UNL     1       4.804  -4.021 -10.309  0.00  0.00    -0.331 OA
BRANCH  11  15
ATOM     12  C   UNL     1       7.716  -4.173  -7.172  0.00  0.00    +0.133 C 
ATOM     13  C   UNL     1       8.064  -4.748  -8.559  0.00  0.00    +0.176 C 
ATOM     14  O   UNL     1       7.062  -4.249  -9.532  0.00  0.00    -0.332 OA
ATOM     15  C   UNL     1       5.687  -4.619  -9.295  0.00  0.00    +0.273 C 
ATOM     16  C   UNL     1       5.245  -4.345  -7.842  0.00  0.00    +0.110 C 
ATOM     17  C   UNL     1       6.307  -4.662  -6.780  0.00  0.00    +0.143 C 
BRANCH  12  20
ATOM     18  C   UNL     1       8.851  -0.507  -7.326  0.00  0.00    +0.109 C 
ATOM     19  C   UNL     1       8.978  -2.010  -7.181  0.00  0.00    +0.210 C 
ATOM     20  N   UNL     1       7.774  -2.694  -7.163  0.00  0.00    -0.308 N 
ATOM     21  H   UNL     1       6.970  -2.160  -7.474  0.00  0.00    +0.149 HD
ATOM     22  O   UNL     1      10.071  -2.564  -7.091  0.00  0.00    -0.276 OA
ENDBRANCH  12  20
BRANCH  17  23
ATOM     23  O   UNL     1       6.343  -6.070  -6.555  0.00  0.00    -0.390 OA
ATOM     24  H   UNL     1       5.436  -6.404  -6.435  0.00  0.00    +0.210 HD
ENDBRANCH  17  23
BRANCH  15  25
ATOM     25  C   UNL     1       5.428  -6.069  -9.792  0.00  0.00    +0.365 C 
ATOM     26  O   UNL     1       6.085  -6.654 -10.643  0.00  0.00    -0.245 OA
BRANCH  25  27
ATOM     27  O   UNL     1       4.342  -6.672  -9.269  0.00  0.00    -0.477 OA
ATOM     28  H   UNL     1       4.274  -7.499  -9.794  0.00  0.00    +0.295 HD
ENDBRANCH  25  27
ENDBRANCH  15  25
BRANCH  13  29
ATOM     29  C   UNL     1       8.267  -6.301  -8.643  0.00  0.00    +0.176 C 
BRANCH  29  30
ATOM     30  O   UNL     1       8.784  -6.587  -9.962  0.00  0.00    -0.387 OA
ATOM     31  H   UNL     1       8.031  -6.476 -10.579  0.00  0.00    +0.210 HD
ENDBRANCH  29  30
BRANCH  29  32
ATOM     32  C   UNL     1       9.161  -7.044  -7.618  0.00  0.00    +0.171 C 
BRANCH  32  33
ATOM     33  O   UNL     1      10.493  -6.525  -7.639  0.00  0.00    -0.387 OA
ATOM     34  H   UNL     1      10.810  -6.615  -8.554  0.00  0.00    +0.210 HD
ENDBRANCH  32  33
BRANCH  32  35
ATOM     35  C   UNL     1       9.186  -8.556  -7.974  0.00  0.00    +0.189 C 
BRANCH  35  36
ATOM     36  O   UNL     1       9.792  -9.349  -6.955  0.00  0.00    -0.392 OA
ATOM     37  H   UNL     1      10.717  -9.494  -7.223  0.00  0.00    +0.210 HD
ENDBRANCH  35  36
ENDBRANCH  32  35
ENDBRANCH  29  32
ENDBRANCH  13  29
ENDBRANCH  11  15
ENDBRANCH   1  11
BRANCH   3  38
ATOM     38  O   UNL     1       3.862  -3.650 -13.443  0.00  0.00    -0.340 OA
BRANCH  38  39
ATOM     39  C   UNL     1       4.130  -3.617 -14.870  0.00  0.00    +0.183 C 
ATOM     40  C   UNL     1       4.209  -5.045 -15.485  0.00  0.00    +0.179 C 
ATOM     41  C   UNL     1       4.599  -4.980 -16.980  0.00  0.00    +0.201 C 
ATOM     42  C   UNL     1       3.805  -3.918 -17.769  0.00  0.00    +0.279 C 
ATOM     43  O   UNL     1       3.633  -2.695 -17.072  0.00  0.00    -0.341 OA
ATOM     44  C   UNL     1       3.111  -2.825 -15.737  0.00  0.00    +0.178 C 
BRANCH  42  45
ATOM     45  O   UNL     1       4.502  -3.574 -18.960  0.00  0.00    -0.365 OA
ATOM     46  H   UNL     1       5.040  -2.803 -18.708  0.00  0.00    +0.213 HD
ENDBRANCH  42  45
BRANCH  41  47
ATOM     47  O   UNL     1       4.411  -6.270 -17.585  0.00  0.00    -0.384 OA
ATOM     48  H   UNL     1       4.976  -6.898 -17.098  0.00  0.00    +0.210 HD
ENDBRANCH  41  47
BRANCH  40  49
ATOM     49  O   UNL     1       5.155  -5.889 -14.809  0.00  0.00    -0.386 OA
ATOM     50  H   UNL     1       6.027  -5.460 -14.827  0.00  0.00    +0.210 HD
ENDBRANCH  40  49
BRANCH  44  51
ATOM     51  C   UNL     1       1.673  -3.391 -15.757  0.00  0.00    +0.190 C 
BRANCH  51  52
ATOM     52  O   UNL     1       0.825  -2.555 -16.547  0.00  0.00    -0.392 OA
ATOM     53  H   UNL     1       1.179  -2.552 -17.456  0.00  0.00    +0.210 HD
ENDBRANCH  51  52
ENDBRANCH  44  51
ENDBRANCH  38  39
ENDBRANCH   3  38
BRANCH   5  54
ATOM     54  C   UNL     1       7.265  -0.904 -12.021  0.00  0.00    +0.190 C 
BRANCH  54  55
ATOM     55  O   UNL     1       6.797   0.445 -11.970  0.00  0.00    -0.392 OA
ATOM     56  H   UNL     1       6.091   0.514 -12.639  0.00  0.00    +0.210 HD
ENDBRANCH  54  55
ENDBRANCH   5  54
TORSDOF 23
