REMARK  Name = 
REMARK  5 active torsions:
REMARK  status: ('A' for Active; 'I' for Inactive)
REMARK    1  A    between atoms: N_1  and  CA_2
REMARK    2  A    between atoms: CA_2  and  CB_4
REMARK    3  A    between atoms: CA_2  and  C_8
REMARK    4  A    between atoms: CB_4  and  CG_5
REMARK    5  A    between atoms: CG_5  and  OD1_6
REMARK                            x       y       z     vdW  Elec       q    Type
REMARK                         _______ _______ _______ _____ _____    ______ ____
ROOT
ATOM      1  CA  ASP A   1       2.482   0.007   0.013  0.00  0.00    +0.107 C 
ENDROOT
BRANCH   1   2
ATOM      2  N   ASP A   1       2.961   0.329   1.407  0.00  0.00    -0.322 NA
ATOM      3  H1  ASP A   1       3.838  -0.184   1.561  0.00  0.00    +0.119 HD
ATOM      4  H2  ASP A   1       3.367   1.282   1.281  0.00  0.00    +0.119 HD
ENDBRANCH   1   2
BRANCH   1   5
ATOM      5  C   ASP A   1       3.134   0.969  -1.016  0.00  0.00    +0.059 C 
ATOM      6  OXT ASP A   1       4.187   1.539  -0.616  0.00  0.00    -0.548 OA
ATOM      7  O   ASP A   1       2.517   1.092  -2.115  0.00  0.00    -0.548 OA
ENDBRANCH   1   5
BRANCH   1   8
ATOM      8  CB  ASP A   1       2.907  -1.398  -0.388  0.00  0.00    +0.144 C 
BRANCH   8   9
ATOM      9  CG  ASP A   1       2.359  -2.505   0.486  0.00  0.00    +0.307 C 
ATOM     10  OD2 ASP A   1       2.494  -3.693   0.215  0.00  0.00    -0.251 OA
BRANCH   9  11
ATOM     11  OD1 ASP A   1       1.758  -2.112   1.633  0.00  0.00    -0.481 OA
ATOM     12  HD1 ASP A   1       1.859  -1.136   1.777  0.00  0.00    +0.295 HD
ENDBRANCH   9  11
ENDBRANCH   8   9
ENDBRANCH   1   8
TORSDOF 5
