REMARK  Name = 
REMARK  16 active torsions:
REMARK  status: ('A' for Active; 'I' for Inactive)
REMARK    1  A    between atoms: C_2  and  C_3
REMARK    2  A    between atoms: C_2  and  N_4
REMARK    3  A    between atoms: C_2  and  C_27
REMARK    4  A    between atoms: C_5  and  C_7
REMARK    5  A    between atoms: C_7  and  C_9
REMARK    6  A    between atoms: C_7  and  N_16
REMARK    7  A    between atoms: C_9  and  C_10
REMARK    8  A    between atoms: C_10  and  C_11
REMARK    9  A    between atoms: C_11  and  N_12
REMARK   10  A    between atoms: N_12  and  C_13
REMARK   11  A    between atoms: C_13  and  N_14
REMARK   12  A    between atoms: C_13  and  N_15
REMARK   13  A    between atoms: C_17  and  O_19
REMARK   14  A    between atoms: O_19  and  C_20
REMARK   15  A    between atoms: C_20  and  C_21
REMARK   16  A    between atoms: C_27  and  C_28
REMARK                            x       y       z     vdW  Elec       q    Type
REMARK                         _______ _______ _______ _____ _____    ______ ____
ROOT
ATOM      1  C   UNL     1       2.714  -2.961   2.784  0.00  0.00    +0.162 C 
ENDROOT
BRANCH   1   4
ATOM      2  N   UNL     1       2.162  -5.347   2.493  0.00  0.00    -0.304 N 
ATOM      3  H   UNL     1       2.808  -5.487   3.262  0.00  0.00    +0.149 HD
ATOM      4  C   UNL     1       2.135  -4.094   1.908  0.00  0.00    +0.234 C 
ATOM      5  O   UNL     1       1.824  -3.895   0.731  0.00  0.00    -0.274 OA
BRANCH   2   6
ATOM      6  C   UNL     1       1.682  -6.550   1.807  0.00  0.00    +0.136 C 
ATOM      7  C   UNL     1       0.203  -6.447   1.447  0.00  0.00    +0.036 C 
BRANCH   6   8
ATOM      8  C   UNL     1       2.591  -6.926   0.615  0.00  0.00    +0.150 C 
ATOM      9  O   UNL     1       3.619  -6.302   0.343  0.00  0.00    -0.296 OA
ATOM     10  C   UNL     1       2.198  -8.131  -0.205  0.00  0.00    +0.088 C 
ENDBRANCH   6   8
ENDBRANCH   2   6
ENDBRANCH   1   4
BRANCH   1  11
ATOM     11  N   UNL     1       2.345  -3.144   4.181  0.00  0.00    -0.270 N 
ATOM     12  H   UNL     1       1.828  -3.955   4.495  0.00  0.00    +0.153 HD
ATOM     13  C   UNL     1       2.564  -2.172   5.113  0.00  0.00    +0.401 C 
ATOM     14  O   UNL     1       3.066  -1.087   4.873  0.00  0.00    -0.226 OA
BRANCH  13  15
ATOM     15  O   UNL     1       2.226  -2.644   6.333  0.00  0.00    -0.446 OA
BRANCH  15  16
ATOM     16  C   UNL     1       2.848  -1.962   7.427  0.00  0.00    +0.269 C 
BRANCH  16  17
ATOM     17  C   UNL     1       1.868  -1.156   8.235  0.00  0.00    -0.010 A 
ATOM     18  C   UNL     1       1.702   0.214   7.989  0.00  0.00    +0.007 A 
ATOM     19  C   UNL     1       0.863   0.981   8.800  0.00  0.00    +0.000 A 
ATOM     20  C   UNL     1       0.173   0.384   9.854  0.00  0.00    +0.000 A 
ATOM     21  C   UNL     1       0.310  -0.983  10.089  0.00  0.00    +0.000 A 
ATOM     22  C   UNL     1       1.148  -1.751   9.280  0.00  0.00    +0.007 A 
ENDBRANCH  16  17
ENDBRANCH  15  16
ENDBRANCH  13  15
ENDBRANCH   1  11
BRANCH   1  23
ATOM     23  C   UNL     1       4.246  -2.880   2.626  0.00  0.00    +0.033 C 
BRANCH  23  24
ATOM     24  C   UNL     1       4.741  -2.674   1.194  0.00  0.00    +0.017 C 
BRANCH  24  25
ATOM     25  C   UNL     1       4.163  -1.434   0.519  0.00  0.00    +0.083 C 
BRANCH  25  26
ATOM     26  N   UNL     1       4.658  -1.285  -0.857  0.00  0.00    -0.289 NA
ATOM     27  H   UNL     1       5.189  -0.455  -1.086  0.00  0.00    +0.125 HD
BRANCH  26  28
ATOM     28  C   UNL     1       4.366  -2.272  -1.847  0.00  0.00    +0.188 C 
BRANCH  28  29
ATOM     29  N   UNL     1       4.777  -1.801  -3.125  0.00  0.00    -0.303 NA
ATOM     30  H   UNL     1       5.294  -2.415  -3.748  0.00  0.00    +0.121 HD
ATOM     31  H   UNL     1       4.769  -0.825  -3.393  0.00  0.00    +0.121 HD
ENDBRANCH  28  29
BRANCH  28  32
ATOM     32  N   UNL     1       2.974  -2.522  -1.903  0.00  0.00    -0.303 NA
ATOM     33  H   UNL     1       2.530  -3.174  -1.245  0.00  0.00    +0.121 HD
ATOM     34  H   UNL     1       2.382  -2.200  -2.654  0.00  0.00    +0.121 HD
ENDBRANCH  28  32
ENDBRANCH  26  28
ENDBRANCH  25  26
ENDBRANCH  24  25
ENDBRANCH  23  24
ENDBRANCH   1  23
TORSDOF 14
