REMARK  Name = 
REMARK  4 active torsions:
REMARK  status: ('A' for Active; 'I' for Inactive)
REMARK    1  A    between atoms: C_1  and  C_2
REMARK    2  A    between atoms: C_2  and  C_11
REMARK    3  A    between atoms: C_14  and  O_15
REMARK    4  A    between atoms: O_15  and  C_16
REMARK                            x       y       z     vdW  Elec       q    Type
REMARK                         _______ _______ _______ _____ _____    ______ ____
ROOT
ATOM      1  C   UNL     1       3.044   0.440   1.394  0.00  0.00    -0.024 A 
ATOM      2  C   UNL     1       3.776  -0.492   2.153  0.00  0.00    +0.009 A 
ATOM      3  C   UNL     1       4.307  -0.168   3.404  0.00  0.00    +0.046 A 
ATOM      4  C   UNL     1       4.047   1.073   3.980  0.00  0.00    +0.128 A 
ATOM      5  C   UNL     1       3.343   2.022   3.242  0.00  0.00    +0.046 A 
ATOM      6  C   UNL     1       2.838   1.708   1.970  0.00  0.00    +0.009 A 
ENDROOT
BRANCH   1   8
ATOM      7  C   UNL     1       3.274  -1.057  -0.678  0.00  0.00    +0.036 C 
ATOM      8  C   UNL     1       2.443   0.054   0.023  0.00  0.00    +0.145 C 
ATOM      9  C   UNL     1       1.026  -0.507   0.188  0.00  0.00    +0.240 C 
ATOM     10  O   UNL     1       0.583  -1.001   1.225  0.00  0.00    -0.274 OA
ATOM     11  N   UNL     1       0.239  -0.496  -0.934  0.00  0.00    -0.239 N 
ATOM     12  H   UNL     1      -0.689  -0.886  -0.823  0.00  0.00    +0.159 HD
ATOM     13  C   UNL     1       0.372   0.380  -1.964  0.00  0.00    +0.312 C 
ATOM     14  O   UNL     1      -0.548   0.596  -2.746  0.00  0.00    -0.252 OA
ATOM     15  N   UNL     1       1.535   1.080  -2.025  0.00  0.00    -0.239 N 
ATOM     16  H   UNL     1       1.553   1.823  -2.712  0.00  0.00    +0.159 HD
ATOM     17  C   UNL     1       2.428   1.201  -0.993  0.00  0.00    +0.240 C 
ATOM     18  O   UNL     1       3.191   2.167  -0.978  0.00  0.00    -0.274 OA
ENDBRANCH   1   8
BRANCH   4  19
ATOM     19  O   UNL     1       4.470   1.452   5.236  0.00  0.00    -0.456 OA
BRANCH  19  20
ATOM     20  C   UNL     1       4.633   0.496   6.217  0.00  0.00    +0.128 A 
ATOM     21  C   UNL     1       3.801  -0.618   6.369  0.00  0.00    +0.046 A 
ATOM     22  C   UNL     1       4.083  -1.578   7.342  0.00  0.00    +0.004 A 
ATOM     23  C   UNL     1       5.156  -1.394   8.212  0.00  0.00    +0.000 A 
ATOM     24  C   UNL     1       5.936  -0.241   8.120  0.00  0.00    +0.004 A 
ATOM     25  C   UNL     1       5.675   0.703   7.124  0.00  0.00    +0.046 A 
ENDBRANCH  19  20
ENDBRANCH   4  19
TORSDOF 3
