REMARK  Name = 
REMARK  3 active torsions:
REMARK  status: ('A' for Active; 'I' for Inactive)
REMARK    1  A    between atoms: O_1  and  C_2
REMARK    2  A    between atoms: C_11  and  O_12
REMARK    3  A    between atoms: C_15  and  N_19
REMARK                            x       y       z     vdW  Elec       q    Type
REMARK                         _______ _______ _______ _____ _____    ______ ____
ROOT
ATOM      1  C   UNL     1       2.415   0.041  -0.013  0.00  0.00    +0.128 A 
ATOM      2  C   UNL     1       3.068  -1.204  -0.003  0.00  0.00    +0.075 A 
ATOM      3  C   UNL     1       2.324  -2.483  -0.003  0.00  0.00    +0.202 C 
ATOM      4  C   UNL     1       3.052  -3.770  -0.005  0.00  0.00    +0.081 A 
ATOM      5  C   UNL     1       4.450  -3.802   0.013  0.00  0.00    +0.113 A 
ATOM      6  C   UNL     1       5.191  -2.523   0.071  0.00  0.00    +0.201 C 
ATOM      7  O   UNL     1       6.407  -2.515   0.204  0.00  0.00    -0.286 OA
ATOM      8  C   UNL     1       5.081  -5.058   0.015  0.00  0.00    +0.285 A 
ATOM      9  C   UNL     1       4.352  -6.258   0.009  0.00  0.00    +0.088 A 
ATOM     10  C   UNL     1       2.965  -6.211  -0.004  0.00  0.00    +0.053 A 
ATOM     11  C   UNL     1       2.323  -4.977  -0.012  0.00  0.00    +0.129 A 
ATOM     12  O   UNL     1       1.097  -2.530  -0.000  0.00  0.00    -0.286 OA
ATOM     13  C   UNL     1       4.461  -1.238   0.016  0.00  0.00    +0.037 A 
ATOM     14  C   UNL     1       5.194  -0.039   0.012  0.00  0.00    +0.012 A 
ATOM     15  C   UNL     1       4.536   1.191  -0.001  0.00  0.00    +0.004 A 
ATOM     16  C   UNL     1       3.144   1.231  -0.010  0.00  0.00    +0.046 A 
ENDROOT
BRANCH   8  17
ATOM     17  N   UNL     1       6.524  -5.199   0.004  0.00  0.00    +0.080 N 
ATOM     18  O   UNL     1       7.097  -4.977  -1.073  0.00  0.00    +0.041 OA
ATOM     19  O   UNL     1       7.042  -5.663   1.028  0.00  0.00    -0.576 OA
ENDBRANCH   8  17
BRANCH   1  20
ATOM     20  O   UNL     1       1.051   0.117  -0.021  0.00  0.00    -0.506 OA
ATOM     21  H   UNL     1       0.757   1.041  -0.005  0.00  0.00    +0.292 HD
ENDBRANCH   1  20
BRANCH  11  22
ATOM     22  O   UNL     1       0.954  -5.030  -0.021  0.00  0.00    -0.506 OA
ATOM     23  H   UNL     1       0.608  -4.106  -0.012  0.00  0.00    +0.292 HD
ENDBRANCH  11  22
TORSDOF 3
