REMARK  Name = 
REMARK  36 active torsions:
REMARK  status: ('A' for Active; 'I' for Inactive)
REMARK    1  A    between atoms: O_1  and  C_2
REMARK    2  A    between atoms: C_2  and  C_3
REMARK    3  A    between atoms: C_6  and  S_8
REMARK    4  A    between atoms: S_8  and  C_9
REMARK    5  A    between atoms: C_11  and  O_13
REMARK    6  A    between atoms: C_14  and  O_16
REMARK    7  A    between atoms: C_17  and  O_19
REMARK    8  A    between atoms: O_19  and  C_20
REMARK    9  A    between atoms: C_22  and  O_24
REMARK   10  A    between atoms: C_25  and  O_27
REMARK   11  A    between atoms: C_28  and  S_35
REMARK   12  A    between atoms: C_31  and  C_33
REMARK   13  A    between atoms: C_33  and  O_34
REMARK   14  A    between atoms: S_35  and  C_36
REMARK   15  A    between atoms: C_38  and  O_40
REMARK   16  A    between atoms: C_41  and  O_43
REMARK   17  A    between atoms: C_44  and  O_46
REMARK   18  A    between atoms: O_46  and  C_47
REMARK   19  A    between atoms: C_49  and  O_51
REMARK   20  A    between atoms: C_52  and  O_54
REMARK   21  A    between atoms: C_55  and  S_62
REMARK   22  A    between atoms: C_58  and  C_60
REMARK   23  A    between atoms: C_60  and  O_61
REMARK   24  A    between atoms: S_62  and  C_63
REMARK   25  A    between atoms: C_65  and  O_67
REMARK   26  A    between atoms: C_68  and  O_70
REMARK   27  A    between atoms: C_71  and  O_73
REMARK   28  A    between atoms: C_75  and  C_77
REMARK   29  A    between atoms: C_77  and  O_78
REMARK   30  A    between atoms: C_80  and  C_82
REMARK   31  A    between atoms: C_82  and  O_83
REMARK   32  A    between atoms: C_85  and  C_87
REMARK   33  A    between atoms: C_87  and  O_88
REMARK   34  A    between atoms: C_89  and  O_91
REMARK   35  A    between atoms: C_92  and  O_94
REMARK   36  A    between atoms: C_95  and  O_97
REMARK                            x       y       z     vdW  Elec       q    Type
REMARK                         _______ _______ _______ _____ _____    ______ ____
ROOT
ATOM      1  S   UNL     1       8.691 -10.179   5.743  0.00  0.00    -0.118 S 
ENDROOT
BRANCH   1   5
ATOM      2  C   UNL     1       5.254  -9.255   2.796  0.00  0.00    +0.183 C 
ATOM      3  C   UNL     1       6.443 -10.210   2.472  0.00  0.00    +0.176 C 
ATOM      4  O   UNL     1       7.175 -10.635   3.622  0.00  0.00    -0.355 OA
ATOM      5  C   UNL     1       7.353  -9.637   4.610  0.00  0.00    +0.207 C 
ATOM      6  C   UNL     1       5.996  -9.460   5.302  0.00  0.00    +0.184 C 
ATOM      7  C   UNL     1       5.016  -8.865   4.284  0.00  0.00    +0.178 C 
BRANCH   6   8
ATOM      8  O   UNL     1       5.468 -10.703   5.797  0.00  0.00    -0.386 OA
ATOM      9  H   UNL     1       4.500 -10.564   5.850  0.00  0.00    +0.210 HD
ENDBRANCH   6   8
BRANCH   7  10
ATOM     10  O   UNL     1       3.663  -9.184   4.686  0.00  0.00    -0.386 OA
ATOM     11  H   UNL     1       3.071  -8.824   3.997  0.00  0.00    +0.210 HD
ENDBRANCH   7  10
BRANCH   3  12
ATOM     12  C   UNL     1       7.431  -9.924   1.325  0.00  0.00    +0.190 C 
BRANCH  12  13
ATOM     13  O   UNL     1       6.819  -9.562   0.100  0.00  0.00    -0.392 OA
ATOM     14  H   UNL     1       6.294 -10.318  -0.206  0.00  0.00    +0.210 HD
ENDBRANCH  12  13
ENDBRANCH   3  12
BRANCH   2  15
ATOM     15  O   UNL     1       5.045  -8.150   1.921  0.00  0.00    -0.340 OA
BRANCH  15  19
ATOM     16  C   UNL     1       7.415  -4.979   0.607  0.00  0.00    +0.111 C 
ATOM     17  C   UNL     1       8.034  -5.989   1.600  0.00  0.00    +0.162 C 
ATOM     18  O   UNL     1       7.198  -7.140   1.833  0.00  0.00    -0.342 OA
ATOM     19  C   UNL     1       5.809  -6.939   2.054  0.00  0.00    +0.282 C 
ATOM     20  C   UNL     1       5.155  -5.940   1.081  0.00  0.00    +0.200 C 
ATOM     21  C   UNL     1       5.964  -4.658   1.021  0.00  0.00    +0.163 C 
BRANCH  20  22
ATOM     22  O   UNL     1       5.043  -6.460  -0.258  0.00  0.00    -0.384 OA
ATOM     23  H   UNL     1       4.798  -5.691  -0.807  0.00  0.00    +0.210 HD
ENDBRANCH  20  22
BRANCH  21  24
ATOM     24  O   UNL     1       5.325  -3.791   0.063  0.00  0.00    -0.388 OA
ATOM     25  H   UNL     1       5.932  -3.034  -0.046  0.00  0.00    +0.210 HD
ENDBRANCH  21  24
BRANCH  17  26
ATOM     26  C   UNL     1       8.525  -5.409   2.941  0.00  0.00    +0.188 C 
BRANCH  26  27
ATOM     27  O   UNL     1       7.464  -4.819   3.683  0.00  0.00    -0.392 OA
ATOM     28  H   UNL     1       7.850  -4.094   4.210  0.00  0.00    +0.210 HD
ENDBRANCH  26  27
ENDBRANCH  17  26
BRANCH  16  29
ATOM     29  S   UNL     1       8.254  -3.343   0.381  0.00  0.00    -0.118 S 
BRANCH  29  34
ATOM     30  C   UNL     1      11.203  -5.037  -1.795  0.00  0.00    +0.176 C 
ATOM     31  C   UNL     1      12.002  -3.805  -2.263  0.00  0.00    +0.176 C 
ATOM     32  C   UNL     1      12.032  -2.783  -1.107  0.00  0.00    +0.177 C 
ATOM     33  C   UNL     1      10.616  -2.483  -0.621  0.00  0.00    +0.184 C 
ATOM     34  C   UNL     1       9.915  -3.802  -0.229  0.00  0.00    +0.207 C 
ATOM     35  O   UNL     1       9.873  -4.668  -1.363  0.00  0.00    -0.355 OA
BRANCH  33  36
ATOM     36  O   UNL     1       9.915  -1.779  -1.669  0.00  0.00    -0.386 OA
ATOM     37  H   UNL     1       8.988  -2.029  -1.604  0.00  0.00    +0.210 HD
ENDBRANCH  33  36
BRANCH  32  38
ATOM     38  O   UNL     1      12.715  -1.586  -1.496  0.00  0.00    -0.386 OA
ATOM     39  H   UNL     1      12.024  -0.914  -1.671  0.00  0.00    +0.210 HD
ENDBRANCH  32  38
BRANCH  31  40
ATOM     40  O   UNL     1      13.327  -4.206  -2.630  0.00  0.00    -0.386 OA
ATOM     41  H   UNL     1      13.961  -3.743  -2.051  0.00  0.00    +0.210 HD
ENDBRANCH  31  40
BRANCH  30  42
ATOM     42  C   UNL     1      11.135  -6.105  -2.898  0.00  0.00    +0.190 C 
BRANCH  42  43
ATOM     43  O   UNL     1      10.592  -7.305  -2.341  0.00  0.00    -0.392 OA
ATOM     44  H   UNL     1      10.328  -7.873  -3.085  0.00  0.00    +0.210 HD
ENDBRANCH  42  43
ENDBRANCH  30  42
ENDBRANCH  29  34
ENDBRANCH  16  29
ENDBRANCH  15  19
ENDBRANCH   2  15
ENDBRANCH   1   5
BRANCH   1  45
ATOM     45  C   UNL     1      10.117 -10.181   4.564  0.00  0.00    +0.111 C 
ATOM     46  C   UNL     1      11.469  -9.886   5.274  0.00  0.00    +0.162 C 
ATOM     47  O   UNL     1      12.556  -9.819   4.315  0.00  0.00    -0.342 OA
ATOM     48  C   UNL     1      12.741 -11.011   3.511  0.00  0.00    +0.282 C 
ATOM     49  C   UNL     1      11.428 -11.271   2.741  0.00  0.00    +0.200 C 
ATOM     50  C   UNL     1      10.297 -11.481   3.756  0.00  0.00    +0.163 C 
BRANCH  49  51
ATOM     51  O   UNL     1      11.128 -10.162   1.876  0.00  0.00    -0.384 OA
ATOM     52  H   UNL     1      11.591  -9.377   2.229  0.00  0.00    +0.210 HD
ENDBRANCH  49  51
BRANCH  50  53
ATOM     53  O   UNL     1       9.164 -11.941   3.040  0.00  0.00    -0.388 OA
ATOM     54  H   UNL     1       8.364 -11.746   3.572  0.00  0.00    +0.210 HD
ENDBRANCH  50  53
BRANCH  48  55
ATOM     55  O   UNL     1      13.874 -10.778   2.662  0.00  0.00    -0.340 OA
BRANCH  55  56
ATOM     56  C   UNL     1      14.132 -11.754   1.637  0.00  0.00    +0.183 C 
ATOM     57  C   UNL     1      15.241 -11.226   0.701  0.00  0.00    +0.176 C 
ATOM     58  O   UNL     1      15.553 -12.148  -0.366  0.00  0.00    -0.355 OA
ATOM     59  C   UNL     1      15.896 -13.470   0.049  0.00  0.00    +0.207 C 
ATOM     60  C   UNL     1      14.799 -14.077   0.954  0.00  0.00    +0.184 C 
ATOM     61  C   UNL     1      14.548 -13.149   2.156  0.00  0.00    +0.178 C 
BRANCH  60  62
ATOM     62  O   UNL     1      13.532 -14.214   0.274  0.00  0.00    -0.386 OA
ATOM     63  H   UNL     1      13.707 -14.083  -0.681  0.00  0.00    +0.210 HD
ENDBRANCH  60  62
BRANCH  61  64
ATOM     64  O   UNL     1      13.520 -13.723   2.979  0.00  0.00    -0.386 OA
ATOM     65  H   UNL     1      12.847 -14.072   2.366  0.00  0.00    +0.210 HD
ENDBRANCH  61  64
BRANCH  59  66
ATOM     66  S   UNL     1      16.096 -14.545  -1.431  0.00  0.00    -0.118 S 
BRANCH  66  67
ATOM     67  C   UNL     1      17.464 -13.672  -2.361  0.00  0.00    +0.111 C 
ATOM     68  C   UNL     1      17.863 -14.466  -3.639  0.00  0.00    +0.162 C 
ATOM     69  O   UNL     1      18.512 -15.711  -3.310  0.00  0.00    -0.342 OA
ATOM     70  C   UNL     1      19.715 -15.545  -2.557  0.00  0.00    +0.279 C 
ATOM     71  C   UNL     1      19.469 -14.799  -1.234  0.00  0.00    +0.200 C 
ATOM     72  C   UNL     1      18.744 -13.470  -1.517  0.00  0.00    +0.163 C 
BRANCH  70  73
ATOM     73  O   UNL     1      20.697 -14.848  -3.316  0.00  0.00    -0.365 OA
ATOM     74  H   UNL     1      21.521 -15.362  -3.231  0.00  0.00    +0.213 HD
ENDBRANCH  70  73
BRANCH  71  75
ATOM     75  O   UNL     1      18.726 -15.613  -0.321  0.00  0.00    -0.384 OA
ATOM     76  H   UNL     1      17.931 -15.926  -0.801  0.00  0.00    +0.210 HD
ENDBRANCH  71  75
BRANCH  72  77
ATOM     77  O   UNL     1      19.620 -12.547  -2.185  0.00  0.00    -0.388 OA
ATOM     78  H   UNL     1      20.137 -13.038  -2.859  0.00  0.00    +0.210 HD
ENDBRANCH  72  77
BRANCH  68  79
ATOM     79  C   UNL     1      16.711 -14.742  -4.616  0.00  0.00    +0.188 C 
BRANCH  79  80
ATOM     80  O   UNL     1      16.115 -13.519  -5.031  0.00  0.00    -0.392 OA
ATOM     81  H   UNL     1      15.665 -13.690  -5.877  0.00  0.00    +0.210 HD
ENDBRANCH  79  80
ENDBRANCH  68  79
ENDBRANCH  66  67
ENDBRANCH  59  66
BRANCH  57  82
ATOM     82  C   UNL     1      16.516 -10.801   1.447  0.00  0.00    +0.190 C 
BRANCH  82  83
ATOM     83  O   UNL     1      17.424 -10.134   0.568  0.00  0.00    -0.392 OA
ATOM     84  H   UNL     1      17.375 -10.571  -0.298  0.00  0.00    +0.210 HD
ENDBRANCH  82  83
ENDBRANCH  57  82
ENDBRANCH  55  56
ENDBRANCH  48  55
BRANCH  46  85
ATOM     85  C   UNL     1      11.841 -10.844   6.429  0.00  0.00    +0.188 C 
BRANCH  85  86
ATOM     86  O   UNL     1      13.053 -10.409   7.044  0.00  0.00    -0.392 OA
ATOM     87  H   UNL     1      13.635 -10.081   6.332  0.00  0.00    +0.210 HD
ENDBRANCH  85  86
ENDBRANCH  46  85
ENDBRANCH   1  45
TORSDOF 36
