REMARK  Name = 
REMARK  8 active torsions:
REMARK  status: ('A' for Active; 'I' for Inactive)
REMARK    1  A    between atoms: C_1  and  C_2
REMARK    2  A    between atoms: C_2  and  C_3
REMARK    3  A    between atoms: C_3  and  C_4
REMARK    4  A    between atoms: C_4  and  C_5
REMARK    5  A    between atoms: C_5  and  C_6
REMARK    6  A    between atoms: C_6  and  C_7
REMARK    7  A    between atoms: C_7  and  C_8
REMARK    8  A    between atoms: C_11  and  O_12
REMARK                            x       y       z     vdW  Elec       q    Type
REMARK                         _______ _______ _______ _____ _____    ______ ____
ROOT
ATOM      1  C   UNL     1       8.652  -4.091  -1.255  0.00  0.00    -0.047 A 
ATOM      2  C   UNL     1       9.325  -3.643  -2.400  0.00  0.00    +0.007 A 
ATOM      3  C   UNL     1      10.719  -3.572  -2.419  0.00  0.00    +0.045 A 
ATOM      4  C   UNL     1      11.443  -3.945  -1.293  0.00  0.00    +0.117 A 
ATOM      5  C   UNL     1      10.795  -4.396  -0.148  0.00  0.00    +0.045 A 
ATOM      6  C   UNL     1       9.400  -4.467  -0.129  0.00  0.00    +0.007 A 
ENDROOT
BRANCH   4   7
ATOM      7  O   UNL     1      12.802  -3.845  -1.349  0.00  0.00    -0.507 OA
ATOM      8  H   UNL     1      13.163  -4.076  -0.478  0.00  0.00    +0.292 HD
ENDBRANCH   4   7
BRANCH   1   9
ATOM      9  C   UNL     1       7.144  -4.127  -1.221  0.00  0.00    +0.035 C 
BRANCH   9  10
ATOM     10  C   UNL     1       6.566  -2.782  -0.778  0.00  0.00    +0.005 C 
BRANCH  10  11
ATOM     11  C   UNL     1       5.036  -2.802  -0.754  0.00  0.00    +0.000 C 
BRANCH  11  12
ATOM     12  C   UNL     1       4.480  -1.450  -0.303  0.00  0.00    +0.000 C 
BRANCH  12  13
ATOM     13  C   UNL     1       2.950  -1.444  -0.273  0.00  0.00    -0.000 C 
BRANCH  13  15
ATOM     14  C   UNL     1       0.897  -0.060   0.215  0.00  0.00    +0.004 C 
ATOM     15  C   UNL     1       2.416  -0.084   0.180  0.00  0.00    -0.003 C 
ENDBRANCH  13  15
ENDBRANCH  12  13
ENDBRANCH  11  12
ENDBRANCH  10  11
ENDBRANCH   9  10
ENDBRANCH   1   9
TORSDOF 7
