REMARK  Name = 
REMARK  3 active torsions:
REMARK  status: ('A' for Active; 'I' for Inactive)
REMARK    1  A    between atoms: C_1  and  O_2
REMARK    2  A    between atoms: O_2  and  C_3
REMARK    3  A    between atoms: C_7  and  C_9
REMARK                            x       y       z     vdW  Elec       q    Type
REMARK                         _______ _______ _______ _____ _____    ______ ____
ROOT
ATOM      1  C   UNL     1       3.029  -0.266  -1.285  0.00  0.00    +0.121 A 
ATOM      2  C   UNL     1       3.179  -1.535  -1.845  0.00  0.00    +0.058 A 
ATOM      3  C   UNL     1       3.755  -1.696  -3.114  0.00  0.00    +0.040 A 
ATOM      4  C   UNL     1       4.203  -0.566  -3.810  0.00  0.00    +0.013 A 
ATOM      5  C   UNL     1       4.080   0.703  -3.236  0.00  0.00    +0.004 A 
ATOM      6  C   UNL     1       3.500   0.850  -1.975  0.00  0.00    +0.045 A 
ENDROOT
BRANCH   3   7
ATOM      7  C   UNL     1       3.845  -3.087  -3.645  0.00  0.00    +0.242 C 
ATOM      8  O   UNL     1       3.461  -4.049  -2.989  0.00  0.00    -0.270 OA
ATOM      9  N   UNL     1       4.351  -3.284  -4.898  0.00  0.00    -0.325 N 
ATOM     10  H   UNL     1       4.362  -4.240  -5.231  0.00  0.00    +0.145 HD
ATOM     11  H   UNL     1       4.644  -2.558  -5.531  0.00  0.00    +0.145 HD
ENDBRANCH   3   7
BRANCH   1  13
ATOM     12  C   UNL     1       1.477  -0.957   0.348  0.00  0.00    +0.277 C 
ATOM     13  O   UNL     1       2.470  -0.018  -0.060  0.00  0.00    -0.495 OA
ENDBRANCH   1  13
TORSDOF 2
