REMARK  Name = 
REMARK  3 active torsions:
REMARK  status: ('A' for Active; 'I' for Inactive)
REMARK    1  A    between atoms: C_1  and  O_2
REMARK    2  A    between atoms: O_2  and  C_3
REMARK    3  A    between atoms: C_11  and  C_12
REMARK                            x       y       z     vdW  Elec       q    Type
REMARK                         _______ _______ _______ _____ _____    ______ ____
ROOT
ATOM      1  C   UNL     1       3.035   0.159  -1.165  0.00  0.00    +0.121 A 
ATOM      2  C   UNL     1       3.130   1.474  -1.630  0.00  0.00    +0.056 A 
ATOM      3  C   UNL     1       3.773   1.697  -2.834  0.00  0.00    +0.012 A 
ATOM      4  C   UNL     1       4.287   0.630  -3.571  0.00  0.00    +0.042 A 
ATOM      5  N   UNL     1       4.895   1.093  -4.730  0.00  0.00    -0.281 N 
ATOM      6  H   UNL     1       5.347   0.520  -5.429  0.00  0.00    +0.155 HD
ATOM      7  C   UNL     1       4.818   2.471  -4.826  0.00  0.00    +0.249 C 
ATOM      8  O   UNL     1       5.265   3.154  -5.728  0.00  0.00    -0.270 OA
ATOM      9  C   UNL     1       4.182  -0.680  -3.155  0.00  0.00    +0.027 A 
ATOM     10  C   UNL     1       4.085   2.925  -3.587  0.00  0.00    +0.048 C 
ATOM     11  C   UNL     1       3.750   4.154  -3.155  0.00  0.00    +0.041 C 
ATOM     12  C   UNL     1       3.539  -0.908  -1.934  0.00  0.00    +0.047 A 
ENDROOT
BRANCH  11  13
ATOM     13  C   UNL     1       4.010   5.407  -3.763  0.00  0.00    +0.059 A 
ATOM     14  N   UNL     1       4.670   5.554  -4.956  0.00  0.00    -0.345 N 
ATOM     15  H   UNL     1       5.040   4.809  -5.538  0.00  0.00    +0.167 HD
ATOM     16  C   UNL     1       4.756   6.886  -5.238  0.00  0.00    +0.196 A 
ATOM     17  N   UNL     1       4.188   7.613  -4.305  0.00  0.00    -0.244 NA
ATOM     18  C   UNL     1       3.722   6.707  -3.387  0.00  0.00    +0.138 A 
ENDBRANCH  11  13
BRANCH   1  20
ATOM     19  C   UNL     1       2.455   0.823   1.022  0.00  0.00    +0.277 C 
ATOM     20  O   UNL     1       2.452  -0.196   0.024  0.00  0.00    -0.495 OA
ENDBRANCH   1  20
TORSDOF 2
