REMARK  Name = 
REMARK  5 active torsions:
REMARK  status: ('A' for Active; 'I' for Inactive)
REMARK    1  A    between atoms: O5*_1  and  C5*_2
REMARK    2  A    between atoms: C5*_2  and  C4*_3
REMARK    3  A    between atoms: C1*_6  and  N_12
REMARK    4  A    between atoms: C3*_9  and  O3*_11
REMARK    5  A    between atoms: C_14  and  C_15
REMARK                            x       y       z     vdW  Elec       q    Type
REMARK                         _______ _______ _______ _____ _____    ______ ____
ROOT
ATOM      1  N   UNL     1       3.414  -2.255   3.853  0.00  0.00    -0.273 N 
ATOM      2  C   UNL     1       3.760  -3.388   4.577  0.00  0.00    +0.331 A 
ATOM      3  O   UNL     1       3.194  -4.474   4.471  0.00  0.00    -0.246 OA
ATOM      4  N   UNL     1       4.823  -3.241   5.430  0.00  0.00    -0.274 N 
ATOM      5  H   UNL     1       5.142  -4.076   5.897  0.00  0.00    +0.173 HD
ATOM      6  C   UNL     1       5.609  -2.129   5.555  0.00  0.00    +0.261 A 
ATOM      7  O   UNL     1       6.660  -2.151   6.185  0.00  0.00    -0.267 OA
ATOM      8  C   UNL     1       5.109  -0.895   4.884  0.00  0.00    +0.056 A 
ATOM      9  C   UNL     1       4.044  -1.045   4.085  0.00  0.00    +0.106 A 
ENDROOT
BRANCH   1  13
ATOM     10  C4* UNL     1       2.908  -1.047   1.072  0.00  0.00    +0.175 C 
ATOM     11  C3* UNL     1       3.035  -2.473   0.558  0.00  0.00    +0.150 C 
ATOM     12  C2* UNL     1       2.599  -3.343   1.722  0.00  0.00    +0.088 C 
ATOM     13  C1* UNL     1       2.321  -2.373   2.873  0.00  0.00    +0.226 C 
ATOM     14  O4* UNL     1       2.064  -1.108   2.240  0.00  0.00    -0.348 OA
BRANCH  11  15
ATOM     15  O3* UNL     1       4.390  -2.747   0.205  0.00  0.00    -0.389 OA
ATOM     16  H3* UNL     1       4.430  -3.669  -0.104  0.00  0.00    +0.210 HD
ENDBRANCH  11  15
BRANCH  10  17
ATOM     17  C5* UNL     1       2.362  -0.038   0.068  0.00  0.00    +0.190 C 
BRANCH  17  18
ATOM     18  O5* UNL     1       1.087  -0.431  -0.429  0.00  0.00    -0.392 OA
ATOM     19  H5* UNL     1       0.712   0.348  -0.878  0.00  0.00    +0.210 HD
ENDBRANCH  17  18
ENDBRANCH  10  17
ENDBRANCH   1  13
BRANCH   8  20
ATOM     20  C   UNL     1       5.846   0.354   5.007  0.00  0.00    +0.022 C 
ATOM     21  C   UNL     1       5.327   1.583   4.884  0.00  0.00    +0.052 C 
ATOM     22 BR   UNL     1       6.326   3.143   4.988  0.00  0.00    -0.059 Br
ENDBRANCH   8  20
TORSDOF 5
