REMARK  Name = 
REMARK  3 active torsions:
REMARK  status: ('A' for Active; 'I' for Inactive)
REMARK    1  A    between atoms: C_1  and  C_2
REMARK    2  A    between atoms: C_2  and  O_4
REMARK    3  A    between atoms: C_2  and  C_5
REMARK                            x       y       z     vdW  Elec       q    Type
REMARK                         _______ _______ _______ _____ _____    ______ ____
ROOT
ATOM      1  C   UNL     1       3.042   1.346   0.249  0.00  0.00    +0.045 C 
ATOM      2  C   UNL     1       2.583  -0.078   0.002  0.00  0.00    +0.174 C 
ENDROOT
BRANCH   2   3
ATOM      3  C   UNL     1       3.127  -0.583  -1.326  0.00  0.00    +0.254 C 
ATOM      4  O   UNL     1       3.678  -1.675  -1.450  0.00  0.00    -0.298 OA
ENDBRANCH   2   3
BRANCH   2   5
ATOM      5  O   UNL     1       3.013  -0.891   1.086  0.00  0.00    -0.385 OA
ATOM      6  H   UNL     1       3.146  -1.789   0.721  0.00  0.00    +0.210 HD
ENDBRANCH   2   5
TORSDOF 2
