REMARK  Name = 
REMARK  11 active torsions:
REMARK  status: ('A' for Active; 'I' for Inactive)
REMARK    1  A    between atoms: C_1  and  C_2
REMARK    2  A    between atoms: C_2  and  C_3
REMARK    3  A    between atoms: C_3  and  C_4
REMARK    4  A    between atoms: C_4  and  C_5
REMARK    5  A    between atoms: C_5  and  C_6
REMARK    6  A    between atoms: C_6  and  C_7
REMARK    7  A    between atoms: C_7  and  C_8
REMARK    8  A    between atoms: C_8  and  C_9
REMARK    9  A    between atoms: C_9  and  C_10
REMARK   10  A    between atoms: C_10  and  N_11
REMARK   11  A    between atoms: N_14  and  C_15
REMARK                            x       y       z     vdW  Elec       q    Type
REMARK                         _______ _______ _______ _____ _____    ______ ____
ROOT
ATOM      1  N   UNL     1      11.202   3.427   6.467  0.00  0.00    -0.299 N 
ATOM      2  H   UNL     1      10.778   3.230   7.362  0.00  0.00    +0.150 HD
ATOM      3  C   UNL     1      12.578   3.476   6.514  0.00  0.00    +0.300 C 
ATOM      4  N   UNL     1      13.045   3.930   7.718  0.00  0.00    -0.297 N 
ATOM      5  H   UNL     1      12.432   4.581   8.188  0.00  0.00    +0.151 HD
ATOM      6  O   UNL     1      13.306   3.117   5.596  0.00  0.00    -0.253 OA
ENDROOT
BRANCH   4   7
ATOM      7  C   UNL     1      14.485   4.080   7.918  0.00  0.00    +0.074 C 
ATOM      8  C   UNL     1      14.854   3.970   9.396  0.00  0.00    +0.022 C 
ATOM      9  C   UNL     1      14.380   5.170  10.211  0.00  0.00    +0.002 C 
ATOM     10  C   UNL     1      14.794   6.508   9.603  0.00  0.00    +0.000 C 
ATOM     11  C   UNL     1      14.538   6.616   8.102  0.00  0.00    +0.002 C 
ATOM     12  C   UNL     1      15.014   5.391   7.325  0.00  0.00    +0.022 C 
ENDBRANCH   4   7
BRANCH   1  13
ATOM     13  C   UNL     1      10.649   2.739   5.321  0.00  0.00    +0.106 C 
BRANCH  13  14
ATOM     14  C   UNL     1       9.126   2.715   5.258  0.00  0.00    +0.019 C 
BRANCH  14  15
ATOM     15  C   UNL     1       8.637   2.005   3.985  0.00  0.00    +0.002 C 
BRANCH  15  16
ATOM     16  C   UNL     1       9.119   0.557   3.910  0.00  0.00    +0.000 C 
BRANCH  16  17
ATOM     17  C   UNL     1       8.701  -0.159   2.629  0.00  0.00    +0.000 C 
BRANCH  17  18
ATOM     18  C   UNL     1       9.275  -1.578   2.634  0.00  0.00    -0.000 C 
BRANCH  18  19
ATOM     19  C   UNL     1       8.909  -2.345   1.370  0.00  0.00    -0.000 C 
BRANCH  19  20
ATOM     20  C   UNL     1       9.478  -3.763   1.420  0.00  0.00    -0.000 C 
BRANCH  20  22
ATOM     21  C   UNL     1       9.667  -5.959   0.212  0.00  0.00    +0.004 C 
ATOM     22  C   UNL     1       9.110  -4.547   0.163  0.00  0.00    -0.003 C 
ENDBRANCH  20  22
ENDBRANCH  19  20
ENDBRANCH  18  19
ENDBRANCH  17  18
ENDBRANCH  16  17
ENDBRANCH  15  16
ENDBRANCH  14  15
ENDBRANCH  13  14
ENDBRANCH   1  13
TORSDOF 10
