REMARK  Name = 
REMARK  15 active torsions:
REMARK  status: ('A' for Active; 'I' for Inactive)
REMARK    1  A    between atoms: C_1  and  S_2
REMARK    2  A    between atoms: S_2  and  C_4
REMARK    3  A    between atoms: C_4  and  C_5
REMARK    4  A    between atoms: C_5  and  N_7
REMARK    5  A    between atoms: C_5  and  C_27
REMARK    6  A    between atoms: C_8  and  S_10
REMARK    7  A    between atoms: C_11  and  N_13
REMARK    8  A    between atoms: C_14  and  C_16
REMARK    9  A    between atoms: C_16  and  C_17
REMARK   10  A    between atoms: C_17  and  C_18
REMARK   11  A    between atoms: C_18  and  C_19
REMARK   12  A    between atoms: C_19  and  N_21
REMARK   13  A    between atoms: C_19  and  C_22
REMARK   14  A    between atoms: C_22  and  O_23
REMARK   15  A    between atoms: C_27  and  O_28
REMARK                            x       y       z     vdW  Elec       q    Type
REMARK                         _______ _______ _______ _____ _____    ______ ____
ROOT
ATOM      1  N   UNK A   2       1.014   2.770 -15.576  0.00  0.00    -0.272 N 
ATOM      2  C   UNK A   1       2.032   3.177 -14.743  0.00  0.00    +0.240 C 
ATOM      3  O   UNK A   1       3.181   3.463 -14.964  0.00  0.00    -0.273 OA
ATOM      4  C   UNK A   1       1.049   3.157 -13.550  0.00  0.00    +0.190 C 
ATOM      5  C   UNK A   1       0.301   2.123 -14.461  0.00  0.00    +0.161 C 
ENDROOT
BRANCH   4   6
ATOM      6  N   UNK A   1       1.457   2.667 -12.213  0.00  0.00    -0.302 N 
ATOM      7  H   UNK A   1       2.229   2.018 -12.102  0.00  0.00    +0.150 HD
ATOM      8  C   UNK A   1       0.582   2.862 -11.170  0.00  0.00    +0.214 C 
ATOM      9  O   UNK A   1      -0.472   3.481 -11.307  0.00  0.00    -0.276 OA
BRANCH   8  10
ATOM     10  C   UNK A   1       0.994   2.293  -9.832  0.00  0.00    +0.096 C 
BRANCH  10  11
ATOM     11  C   UNK A   1      -0.210   1.709  -9.088  0.00  0.00    +0.011 C 
BRANCH  11  12
ATOM     12  C   UNK A   1      -0.940   0.554  -9.801  0.00  0.00    +0.030 C 
BRANCH  12  13
ATOM     13  C   UNK A   1      -0.186  -0.775  -9.952  0.00  0.00    +0.161 C 
BRANCH  13  14
ATOM     14  N   UNK A   1       0.292  -1.301  -8.641  0.00  0.00    -0.318 NA
ATOM     15  H   UNK A   1      -0.487  -1.229  -7.977  0.00  0.00    +0.119 HD
ATOM     16  H   UNK A   1       0.428  -2.314  -8.737  0.00  0.00    +0.119 HD
ENDBRANCH  13  14
BRANCH  13  17
ATOM     17  C   UNK A   1       1.009  -0.667 -10.913  0.00  0.00    +0.322 C 
ATOM     18  O   UNK A   1       0.956  -0.348 -12.091  0.00  0.00    -0.249 OA
BRANCH  17  19
ATOM     19  O   UNK A   1       2.183  -0.903 -10.270  0.00  0.00    -0.480 OA
ATOM     20  H   UNK A   1       1.949  -1.049  -9.318  0.00  0.00    +0.295 HD
ENDBRANCH  17  19
ENDBRANCH  13  17
ENDBRANCH  12  13
ENDBRANCH  11  12
ENDBRANCH  10  11
ENDBRANCH   8  10
ENDBRANCH   4   6
BRANCH   5  21
ATOM     21  S   UNK A   1      -1.484   2.449 -14.477  0.00  0.00    -0.154 S 
ATOM     22  H   UNK A   1      -1.476   3.761 -14.736  0.00  0.00    +0.104 HD
ENDBRANCH   5  21
BRANCH   1  23
ATOM     23  C   UNK A   2       1.237   2.375 -16.968  0.00  0.00    +0.198 C 
BRANCH  23  24
ATOM     24  C   UNK A   2       0.723   3.467 -17.920  0.00  0.00    +0.326 C 
ATOM     25  O   UNK A   2       0.872   3.433 -19.137  0.00  0.00    -0.249 OA
BRANCH  24  26
ATOM     26  O   UNK A   2       0.150   4.521 -17.289  0.00  0.00    -0.479 OA
ATOM     27  H   UNK A   2       0.107   4.355 -16.328  0.00  0.00    +0.295 HD
ENDBRANCH  24  26
ENDBRANCH  23  24
BRANCH  23  28
ATOM     28  C   UNK A   2       0.820   0.978 -17.437  0.00  0.00    +0.137 C 
BRANCH  28  30
ATOM     29  C   UNK A   2      -0.949  -0.929 -18.211  0.00  0.00    +0.121 C 
ATOM     30  S   UNK A   2      -0.949   0.620 -17.286  0.00  0.00    +0.021 S 
ATOM     31  O   UNK A   2      -1.703   1.636 -18.086  0.00  0.00    -0.257 OA
ENDBRANCH  28  30
ENDBRANCH  23  28
ENDBRANCH   1  23
TORSDOF 14
