REMARK  Name = 
REMARK  12 active torsions:
REMARK  status: ('A' for Active; 'I' for Inactive)
REMARK    1  A    between atoms: C_1  and  O_2
REMARK    2  A    between atoms: O_2  and  C_3
REMARK    3  A    between atoms: C_5  and  C_11
REMARK    4  A    between atoms: C_7  and  O_8
REMARK    5  A    between atoms: O_8  and  C_9
REMARK    6  A    between atoms: N_13  and  C_14
REMARK    7  A    between atoms: C_16  and  O_18
REMARK    8  A    between atoms: C_19  and  C_21
REMARK    9  A    between atoms: C_21  and  O_22
REMARK   10  A    between atoms: C_24  and  N_26
REMARK   11  A    between atoms: N_35  and  C_36
REMARK   12  A    between atoms: C_36  and  C_37
REMARK                            x       y       z     vdW  Elec       q    Type
REMARK                         _______ _______ _______ _____ _____    ______ ____
ROOT
ATOM      1  C   UNL     1       7.785  -2.704  -4.344  0.00  0.00    +0.154 C 
ATOM      2  C   UNL     1       8.836  -3.802  -4.059  0.00  0.00    +0.245 C 
ATOM      3  O   UNL     1      10.152  -3.250  -4.299  0.00  0.00    -0.346 OA
ATOM      4  C   UNL     1      10.034  -1.854  -4.643  0.00  0.00    +0.176 C 
ATOM      5  C   UNL     1       8.611  -1.413  -4.299  0.00  0.00    +0.170 C 
ENDROOT
BRANCH   2   6
ATOM      6  N   UNL     1       8.847  -4.424  -2.743  0.00  0.00    -0.286 N 
ATOM      7  C   UNL     1       8.422  -3.930  -1.537  0.00  0.00    +0.167 A 
ATOM      8  N   UNL     1       7.925  -2.709  -1.271  0.00  0.00    -0.216 NA
ATOM      9  C   UNL     1       7.559  -2.605   0.025  0.00  0.00    +0.225 A 
ATOM     10  N   UNL     1       7.647  -3.533   1.000  0.00  0.00    -0.219 NA
ATOM     11  C   UNL     1       8.179  -4.747   0.706  0.00  0.00    +0.150 A 
ATOM     12  N   UNL     1       8.311  -5.725   1.697  0.00  0.00    -0.323 N 
ATOM     13  H   UNL     1       8.475  -6.638   1.280  0.00  0.00    +0.148 HD
ATOM     14  C   UNL     1       8.590  -4.971  -0.631  0.00  0.00    +0.147 A 
ATOM     15  N   UNL     1       9.136  -6.071  -1.255  0.00  0.00    -0.231 NA
ATOM     16  C   UNL     1       9.286  -5.708  -2.511  0.00  0.00    +0.203 A 
BRANCH  12  17
ATOM     17  C   UNL     1       7.280  -5.692   2.724  0.00  0.00    +0.139 C 
BRANCH  17  18
ATOM     18  C   UNL     1       7.441  -6.857   3.686  0.00  0.00    -0.023 A 
ATOM     19  C   UNL     1       6.791  -8.113   3.498  0.00  0.00    -0.013 A 
ATOM     20  C   UNL     1       5.990  -8.428   2.377  0.00  0.00    +0.009 A 
ATOM     21  C   UNL     1       5.336  -9.658   2.262  0.00  0.00    +0.001 A 
ATOM     22  C   UNL     1       5.474 -10.613   3.261  0.00  0.00    +0.001 A 
ATOM     23  C   UNL     1       6.282 -10.348   4.365  0.00  0.00    +0.008 A 
ATOM     24  C   UNL     1       6.944  -9.114   4.495  0.00  0.00    -0.018 A 
ATOM     25  C   UNL     1       7.747  -8.873   5.617  0.00  0.00    +0.008 A 
ATOM     26  C   UNL     1       8.403  -7.656   5.779  0.00  0.00    +0.001 A 
ATOM     27  C   UNL     1       8.251  -6.658   4.822  0.00  0.00    +0.006 A 
ENDBRANCH  17  18
ENDBRANCH  12  17
ENDBRANCH   2   6
BRANCH   1  29
ATOM     28  C   UNL     1       6.320  -3.882  -6.016  0.00  0.00    +0.245 C 
ATOM     29  N   UNL     1       7.146  -2.834  -5.672  0.00  0.00    -0.302 N 
ATOM     30  H   UNL     1       7.526  -2.250  -6.410  0.00  0.00    +0.150 HD
ATOM     31  O   UNL     1       6.111  -4.808  -5.239  0.00  0.00    -0.270 OA
BRANCH  28  36
ATOM     32  C   UNL     1       4.227  -4.919  -9.018  0.00  0.00    +0.124 A 
ATOM     33  C   UNL     1       4.436  -3.858  -9.901  0.00  0.00    +0.091 A 
ATOM     34  C   UNL     1       5.269  -2.800  -9.541  0.00  0.00    +0.124 A 
ATOM     35  C   UNL     1       5.905  -2.809  -8.295  0.00  0.00    +0.059 A 
ATOM     36  C   UNL     1       5.704  -3.859  -7.389  0.00  0.00    +0.044 A 
ATOM     37  C   UNL     1       4.859  -4.915  -7.767  0.00  0.00    +0.059 A 
BRANCH  32  39
ATOM     38  C   UNL     1       2.734  -6.018 -10.515  0.00  0.00    +0.277 C 
ATOM     39  O   UNL     1       3.428  -6.004  -9.268  0.00  0.00    -0.495 OA
ENDBRANCH  32  39
BRANCH  34  40
ATOM     40  O   UNL     1       5.532  -1.696 -10.306  0.00  0.00    -0.495 OA
ATOM     41  C   UNL     1       4.865  -1.598 -11.560  0.00  0.00    +0.277 C 
ENDBRANCH  34  40
ENDBRANCH  28  36
ENDBRANCH   1  29
BRANCH   5  42
ATOM     42  O   UNL     1       8.588  -0.767  -3.026  0.00  0.00    -0.387 OA
ATOM     43  H   UNL     1       8.451  -1.437  -2.325  0.00  0.00    +0.210 HD
ENDBRANCH   5  42
BRANCH   4  44
ATOM     44  C   UNL     1      10.364  -1.682  -6.136  0.00  0.00    +0.190 C 
BRANCH  44  45
ATOM     45  O   UNL     1       9.461  -2.414  -6.964  0.00  0.00    -0.392 OA
ATOM     46  H   UNL     1       9.669  -3.358  -6.818  0.00  0.00    +0.210 HD
ENDBRANCH  44  45
ENDBRANCH   4  44
TORSDOF 10
