REMARK  Name = 
REMARK  14 active torsions:
REMARK  status: ('A' for Active; 'I' for Inactive)
REMARK    1  A    between atoms: O_1  and  C_2
REMARK    2  A    between atoms: C_4  and  O_6
REMARK    3  A    between atoms: C_7  and  O_18
REMARK    4  A    between atoms: C_10  and  C_12
REMARK    5  A    between atoms: C_12  and  O_13
REMARK    6  A    between atoms: O_13  and  P_14
REMARK    7  A    between atoms: P_14  and  O_15
REMARK    8  A    between atoms: P_14  and  O_16
REMARK    9  A    between atoms: O_18  and  P_19
REMARK   10  A    between atoms: P_19  and  O_20
REMARK   11  A    between atoms: P_19  and  O_22
REMARK   12  A    between atoms: O_22  and  P_23
REMARK   13  A    between atoms: P_23  and  O_24
REMARK   14  A    between atoms: P_23  and  O_25
REMARK                            x       y       z     vdW  Elec       q    Type
REMARK                         _______ _______ _______ _____ _____    ______ ____
ROOT
ATOM      1  C   UNL     1       6.623  -3.149  -2.101  0.00  0.00    +0.151 C 
ATOM      2  C   UNL     1       7.313  -2.718  -3.393  0.00  0.00    +0.049 C 
ATOM      3  C   UNL     1       7.403  -1.176  -3.165  0.00  0.00    +0.043 C 
ATOM      4  C   UNL     1       7.762  -0.980  -1.666  0.00  0.00    +0.162 C 
ATOM      5  C   UNL     1       7.196  -2.243  -0.983  0.00  0.00    +0.172 C 
ENDROOT
BRANCH   1   6
ATOM      6  O   UNL     1       5.211  -2.939  -2.237  0.00  0.00    -0.389 OA
ATOM      7  H   UNL     1       5.023  -1.985  -2.302  0.00  0.00    +0.210 HD
ENDBRANCH   1   6
BRANCH   5   8
ATOM      8  O   UNL     1       8.297  -2.860  -0.317  0.00  0.00    -0.387 OA
ATOM      9  H   UNL     1       8.041  -3.777  -0.112  0.00  0.00    +0.210 HD
ENDBRANCH   5   8
BRANCH   2  10
ATOM     10  C   UNL     1       8.695  -3.382  -3.607  0.00  0.00    +0.178 C 
BRANCH  10  11
ATOM     11  O   UNL     1       8.738  -4.838  -3.793  0.00  0.00    -0.286 OA
BRANCH  11  12
ATOM     12  P   UNL     1      10.409  -5.268  -3.920  0.00  0.00    +0.472 P 
ATOM     13  O   UNL     1      11.904  -5.653  -4.033  0.00  0.00    -0.228 OA
BRANCH  12  14
ATOM     14  O   UNL     1       9.830  -6.787  -4.131  0.00  0.00    -0.303 OA
ATOM     15  H   UNL     1       9.324  -6.859  -4.959  0.00  0.00    +0.222 HD
ENDBRANCH  12  14
BRANCH  12  16
ATOM     16  O   UNL     1      10.354  -5.378  -2.286  0.00  0.00    -0.303 OA
ATOM     17  H   UNL     1      10.341  -6.335  -2.094  0.00  0.00    +0.222 HD
ENDBRANCH  12  16
ENDBRANCH  11  12
ENDBRANCH  10  11
ENDBRANCH   2  10
BRANCH   4  18
ATOM     18  O   UNL     1       7.237   0.233  -1.113  0.00  0.00    -0.280 OA
BRANCH  18  19
ATOM     19  P   UNL     1       7.829   0.793   0.354  0.00  0.00    +0.484 P 
ATOM     20  O   UNL     1       7.128   2.127   0.609  0.00  0.00    -0.227 OA
BRANCH  19  21
ATOM     21  O   UNL     1       6.506   0.016   1.153  0.00  0.00    -0.302 OA
ATOM     22  H   UNL     1       5.757   0.617   0.959  0.00  0.00    +0.222 HD
ENDBRANCH  19  21
BRANCH  19  23
ATOM     23  O   UNL     1       9.152   1.570  -0.445  0.00  0.00    -0.186 OA
BRANCH  23  24
ATOM     24  P   UNL     1      10.426   2.062   0.354  0.00  0.00    +0.481 P 
ATOM     25  O   UNL     1      10.713   1.358   1.630  0.00  0.00    -0.227 OA
BRANCH  24  26
ATOM     26  O   UNL     1      10.344   3.653   0.383  0.00  0.00    -0.302 OA
ATOM     27  H   UNL     1      10.364   4.026  -0.512  0.00  0.00    +0.222 HD
ENDBRANCH  24  26
BRANCH  24  28
ATOM     28  O   UNL     1      11.602   1.863  -0.708  0.00  0.00    -0.302 OA
ATOM     29  H   UNL     1      12.045   1.003  -0.590  0.00  0.00    +0.222 HD
ENDBRANCH  24  28
ENDBRANCH  23  24
ENDBRANCH  19  23
ENDBRANCH  18  19
ENDBRANCH   4  18
TORSDOF 14
