REMARK  Name = 
REMARK  3 active torsions:
REMARK  status: ('A' for Active; 'I' for Inactive)
REMARK    1  A    between atoms: N_10  and  C_11
REMARK    2  A    between atoms: C_15  and  O_17
REMARK    3  A    between atoms: C_18  and  O_20
REMARK                            x       y       z     vdW  Elec       q    Type
REMARK                         _______ _______ _______ _____ _____    ______ ____
ROOT
ATOM      1  N   UNL     1       7.811  -1.444   5.730  0.00  0.00    -0.341 N 
ATOM      2  H   UNL     1       8.301  -2.326   5.825  0.00  0.00    +0.144 HD
ATOM      3  H   UNL     1       7.350  -1.061   6.543  0.00  0.00    +0.144 HD
ATOM      4  C   UNL     1       7.041  -1.357   4.578  0.00  0.00    +0.147 A 
ATOM      5  C   UNL     1       7.247  -2.180   3.459  0.00  0.00    +0.147 A 
ATOM      6  N   UNL     1       8.137  -3.204   3.221  0.00  0.00    -0.231 NA
ATOM      7  C   UNL     1       7.889  -3.576   1.984  0.00  0.00    +0.202 A 
ATOM      8  N   UNL     1       6.860  -2.863   1.419  0.00  0.00    -0.305 N 
ATOM      9  C   UNL     1       6.432  -1.962   2.360  0.00  0.00    +0.166 A 
ATOM     10  N   UNL     1       5.450  -1.052   2.250  0.00  0.00    -0.216 NA
ATOM     11  C   UNL     1       5.329  -0.337   3.389  0.00  0.00    +0.225 A 
ATOM     12  N   UNL     1       6.049  -0.440   4.529  0.00  0.00    -0.219 NA
ENDROOT
BRANCH   8  13
ATOM     13  C   UNL     1       6.337  -2.990   0.066  0.00  0.00    +0.144 C 
ATOM     14  C   UNL     1       7.116  -2.135  -0.964  0.00  0.00    +0.173 C 
ATOM     15  C   UNL     1       8.115  -3.123  -1.613  0.00  0.00    +0.168 C 
ATOM     16  C   UNL     1       7.473  -4.456  -1.398  0.00  0.00    +0.004 C 
ATOM     17  C   UNL     1       6.488  -4.387  -0.489  0.00  0.00    -0.001 C 
BRANCH  14  18
ATOM     18  O   UNL     1       6.210  -1.629  -1.962  0.00  0.00    -0.387 OA
ATOM     19  H   UNL     1       6.736  -1.103  -2.589  0.00  0.00    +0.210 HD
ENDBRANCH  14  18
BRANCH  15  20
ATOM     20  O   UNL     1       9.358  -3.097  -0.934  0.00  0.00    -0.385 OA
ATOM     21  H   UNL     1       9.895  -3.835  -1.269  0.00  0.00    +0.210 HD
ENDBRANCH  15  20
ENDBRANCH   8  13
TORSDOF 3
