REMARK  Name = 
REMARK  3 active torsions:
REMARK  status: ('A' for Active; 'I' for Inactive)
REMARK    1  A    between atoms: O_1  and  C_2
REMARK    2  A    between atoms: C_2  and  C_3
REMARK    3  A    between atoms: C_3  and  S_4
REMARK                            x       y       z     vdW  Elec       q    Type
REMARK                         _______ _______ _______ _____ _____    ______ ____
ROOT
ATOM      1  C   UNL     1       2.395   0.063  -0.052  0.00  0.00    +0.166 C 
ENDROOT
BRANCH   1   2
ATOM      2  O   UNL     1       0.971   0.128  -0.009  0.00  0.00    -0.394 OA
ATOM      3  H   UNL     1       0.673   0.396  -0.895  0.00  0.00    +0.209 HD
ENDBRANCH   1   2
BRANCH   1   4
ATOM      4  C   UNL     1       2.948  -0.443   1.277  0.00  0.00    +0.093 C 
BRANCH   4   5
ATOM      5  S   UNL     1       2.468  -2.173   1.577  0.00  0.00    -0.176 S 
ATOM      6  H   UNL     1       1.146  -1.955   1.474  0.00  0.00    +0.102 HD
ENDBRANCH   4   5
ENDBRANCH   1   4
TORSDOF 3
