REMARK  Name = 
REMARK  2 active torsions:
REMARK  status: ('A' for Active; 'I' for Inactive)
REMARK    1  A    between atoms: C_1  and  C_2
REMARK    2  A    between atoms: C_2  and  C_4
REMARK                            x       y       z     vdW  Elec       q    Type
REMARK                         _______ _______ _______ _____ _____    ______ ____
ROOT
ATOM      1  C   UNL     1       0.967   0.007  -0.104  0.00  0.00    +0.094 C 
ATOM      2  C   UNL     1       2.463  -0.005  -0.023  0.00  0.00    +0.192 C 
ATOM      3  O   UNL     1       3.105  -0.153   1.009  0.00  0.00    -0.290 OA
ENDROOT
BRANCH   2   4
ATOM      4  C   UNL     1       3.218   0.182  -1.317  0.00  0.00    +0.296 C 
ATOM      5  O   UNL     1       2.632   0.334  -2.376  0.00  0.00    -0.293 OA
ENDBRANCH   2   4
TORSDOF 1
