REMARK  Name = 
REMARK  3 active torsions:
REMARK  status: ('A' for Active; 'I' for Inactive)
REMARK    1  A    between atoms: C_1  and  O_2
REMARK    2  A    between atoms: O_2  and  C_3
REMARK    3  A    between atoms: C_6  and  S_9
REMARK                            x       y       z     vdW  Elec       q    Type
REMARK                         _______ _______ _______ _____ _____    ______ ____
ROOT
ATOM      1  C   UNL     1       2.912   1.048  -0.744  0.00  0.00    +0.120 A 
ATOM      2  C   UNL     1       3.657   0.663  -1.860  0.00  0.00    +0.047 A 
ATOM      3  C   UNL     1       4.145   1.626  -2.749  0.00  0.00    +0.032 A 
ATOM      4  C   UNL     1       3.908   2.984  -2.513  0.00  0.00    +0.113 A 
ATOM      5  C   UNL     1       3.203   3.368  -1.370  0.00  0.00    +0.032 A 
ATOM      6  C   UNL     1       2.711   2.405  -0.484  0.00  0.00    +0.047 A 
ENDROOT
BRANCH   4   7
ATOM      7  S   UNL     1       4.460   4.212  -3.667  0.00  0.00    +0.120 S 
ATOM      8  O   UNL     1       5.643   3.680  -4.436  0.00  0.00    -0.147 OA
ATOM      9  O   UNL     1       4.647   5.524  -2.945  0.00  0.00    -0.147 OA
ENDBRANCH   4   7
BRANCH   1  11
ATOM     10  C   UNL     1       1.223   0.318   0.717  0.00  0.00    +0.277 C 
ATOM     11  O   UNL     1       2.448   0.030   0.047  0.00  0.00    -0.495 OA
ENDBRANCH   1  11
TORSDOF 2
