REMARK  Name = 
REMARK  17 active torsions:
REMARK  status: ('A' for Active; 'I' for Inactive)
REMARK    1  A    between atoms: C_1  and  C_2
REMARK    2  A    between atoms: C_2  and  C_3
REMARK    3  A    between atoms: C_2  and  C_4
REMARK    4  A    between atoms: C_4  and  N_6
REMARK    5  A    between atoms: C_4  and  C_22
REMARK    6  A    between atoms: C_7  and  C_9
REMARK    7  A    between atoms: C_12  and  C_15
REMARK    8  A    between atoms: N_17  and  C_18
REMARK    9  A    between atoms: C_18  and  C_19
REMARK   10  A    between atoms: C_19  and  O_20
REMARK   11  A    between atoms: C_28  and  C_30
REMARK   12  A    between atoms: N_32  and  C_33
REMARK   13  A    between atoms: C_33  and  C_35
REMARK   14  A    between atoms: C_33  and  C_38
REMARK   15  A    between atoms: C_35  and  C_36
REMARK   16  A    between atoms: C_35  and  C_37
REMARK   17  A    between atoms: C_38  and  C_40
REMARK                            x       y       z     vdW  Elec       q    Type
REMARK                         _______ _______ _______ _____ _____    ______ ____
ROOT
ATOM      1  C   UNL     1       6.077  -4.175  -0.974  0.00  0.00    +0.162 C 
ENDROOT
BRANCH   1   2
ATOM      2  C   UNL     1       5.979  -2.969  -1.935  0.00  0.00    +0.237 C 
ATOM      3  N   UNL     1       4.799  -2.733  -2.641  0.00  0.00    -0.288 N 
ATOM      4  C   UNL     1       3.400  -3.249  -2.496  0.00  0.00    +0.162 C 
ATOM      5  C   UNL     1       2.540  -1.959  -2.740  0.00  0.00    +0.033 C 
ATOM      6  C   UNL     1       3.538  -0.813  -2.877  0.00  0.00    +0.021 C 
ATOM      7  C   UNL     1       4.749  -1.516  -3.438  0.00  0.00    +0.109 C 
ATOM      8  O   UNL     1       6.941  -2.197  -2.030  0.00  0.00    -0.274 OA
BRANCH   4   9
ATOM      9  C   UNL     1       2.760  -4.041  -1.304  0.00  0.00    +0.234 C 
ATOM     10  N   UNL     1       2.921  -5.424  -1.338  0.00  0.00    -0.304 N 
ATOM     11  H   UNL     1       3.177  -5.839  -2.229  0.00  0.00    +0.149 HD
ATOM     12  O   UNL     1       2.105  -3.520  -0.403  0.00  0.00    -0.274 OA
BRANCH  10  13
ATOM     13  C   UNL     1       2.169  -6.291  -0.404  0.00  0.00    +0.151 C 
BRANCH  13  14
ATOM     14  C   UNL     1       3.047  -7.351   0.300  0.00  0.00    +0.011 C 
ATOM     15  C   UNL     1       4.086  -6.685   1.193  0.00  0.00    +0.009 C 
ATOM     16  C   UNL     1       3.745  -8.318  -0.660  0.00  0.00    +0.009 C 
ENDBRANCH  13  14
BRANCH  13  17
ATOM     17  C   UNL     1       1.006  -6.965  -1.136  0.00  0.00    +0.256 C 
ATOM     18  O   UNL     1       1.079  -7.208  -2.347  0.00  0.00    -0.286 OA
BRANCH  17  19
ATOM     19  C   UNL     1      -0.158  -7.403  -0.257  0.00  0.00    +0.453 C 
ATOM     20  F   UNL     1      -0.166  -8.749  -0.057  0.00  0.00    -0.163 F 
ATOM     21  F   UNL     1      -1.368  -7.080  -0.787  0.00  0.00    -0.163 F 
ATOM     22  F   UNL     1      -0.126  -6.844   0.985  0.00  0.00    -0.163 F 
ENDBRANCH  17  19
ENDBRANCH  13  17
ENDBRANCH  10  13
ENDBRANCH   4   9
ENDBRANCH   1   2
BRANCH   1  23
ATOM     23  N   UNL     1       5.809  -3.850   0.447  0.00  0.00    -0.300 N 
ATOM     24  H   UNL     1       6.025  -4.576   1.110  0.00  0.00    +0.150 HD
ATOM     25  C   UNL     1       4.949  -2.849   0.838  0.00  0.00    +0.245 C 
ATOM     26  O   UNL     1       4.581  -1.954   0.086  0.00  0.00    -0.270 OA
BRANCH  25  27
ATOM     27  C   UNL     1       4.393  -2.860   2.220  0.00  0.00    +0.037 A 
ATOM     28  C   UNL     1       3.310  -1.993   2.447  0.00  0.00    +0.014 A 
ATOM     29  C   UNL     1       2.680  -1.931   3.685  0.00  0.00    +0.014 A 
ATOM     30  C   UNL     1       3.116  -2.761   4.720  0.00  0.00    +0.037 A 
ATOM     31  C   UNL     1       4.218  -3.607   4.518  0.00  0.00    +0.014 A 
ATOM     32  C   UNL     1       4.855  -3.661   3.270  0.00  0.00    +0.014 A 
BRANCH  30  33
ATOM     33  C   UNL     1       2.439  -2.736   6.039  0.00  0.00    +0.245 C 
ATOM     34  N   UNL     1       1.091  -2.428   6.018  0.00  0.00    -0.301 N 
ATOM     35  H   UNL     1       0.604  -2.507   5.132  0.00  0.00    +0.150 HD
ATOM     36  O   UNL     1       3.049  -2.980   7.071  0.00  0.00    -0.270 OA
BRANCH  34  37
ATOM     37  C   UNL     1       0.267  -2.577   7.220  0.00  0.00    +0.225 C 
BRANCH  37  38
ATOM     38  C   UNL     1       0.133  -1.286   8.024  0.00  0.00    +0.322 C 
ATOM     39  O   UNL     1      -0.554  -1.181   9.029  0.00  0.00    -0.249 OA
BRANCH  38  40
ATOM     40  O   UNL     1       0.815  -0.242   7.496  0.00  0.00    -0.480 OA
ATOM     41  H   UNL     1       1.345  -0.554   6.734  0.00  0.00    +0.295 HD
ENDBRANCH  38  40
ENDBRANCH  37  38
ENDBRANCH  34  37
ENDBRANCH  30  33
ENDBRANCH  25  27
ENDBRANCH   1  23
BRANCH   1  43
ATOM     42  C   UNL     1       7.946  -5.159  -2.499  0.00  0.00    +0.009 C 
ATOM     43  C   UNL     1       7.462  -4.910  -1.065  0.00  0.00    +0.012 C 
ATOM     44  C   UNL     1       8.592  -4.248  -0.262  0.00  0.00    +0.009 C 
ENDBRANCH   1  43
TORSDOF 13
