REMARK  Name = 
REMARK  3 active torsions:
REMARK  status: ('A' for Active; 'I' for Inactive)
REMARK    1  A    between atoms: O_1  and  C_2
REMARK    2  A    between atoms: C_2  and  C_4
REMARK    3  A    between atoms: C_8  and  O_9
REMARK                            x       y       z     vdW  Elec       q    Type
REMARK                         _______ _______ _______ _____ _____    ______ ____
ROOT
ATOM      1  C   UNL     1       2.992   0.979   0.952  0.00  0.00    +0.219 A 
ATOM      2  C   UNL     1       4.019   0.681   1.896  0.00  0.00    +0.255 A 
ATOM      3  N   UNL     1       4.462   1.676   2.656  0.00  0.00    -0.154 NA
ATOM      4  S   UNL     1       3.557   2.994   2.154  0.00  0.00    +0.120 S 
ATOM      5  N   UNL     1       2.602   2.272   0.975  0.00  0.00    -0.180 NA
ENDROOT
BRANCH   1   6
ATOM      6  C   UNL     1       2.354   0.059   0.019  0.00  0.00    +0.361 C 
ATOM      7  O   UNL     1       2.646  -1.119  -0.124  0.00  0.00    -0.243 OA
BRANCH   6   8
ATOM      8  O   UNL     1       1.364   0.646  -0.717  0.00  0.00    -0.476 OA
ATOM      9  H   UNL     1       1.294   1.589  -0.451  0.00  0.00    +0.295 HD
ENDBRANCH   6   8
ENDBRANCH   1   6
BRANCH   2  10
ATOM     10  O   UNL     1       4.615  -0.492   2.139  0.00  0.00    -0.490 OA
ATOM     11  H   UNL     1       5.259  -0.331   2.849  0.00  0.00    +0.294 HD
ENDBRANCH   2  10
TORSDOF 3
