REMARK  Name = 
REMARK  9 active torsions:
REMARK  status: ('A' for Active; 'I' for Inactive)
REMARK    1  A    between atoms: C_1  and  C_2
REMARK    2  A    between atoms: C_2  and  C_3
REMARK    3  A    between atoms: C_2  and  C_4
REMARK    4  A    between atoms: C_4  and  C_5
REMARK    5  A    between atoms: C_5  and  N_7
REMARK    6  A    between atoms: C_5  and  C_14
REMARK    7  A    between atoms: C_9  and  C_10
REMARK    8  A    between atoms: C_10  and  N_11
REMARK    9  A    between atoms: C_14  and  O_15
REMARK                            x       y       z     vdW  Elec       q    Type
REMARK                         _______ _______ _______ _____ _____    ______ ____
ROOT
ATOM      1  C   UNL     1       4.486  -0.668   1.255  0.00  0.00    +0.217 C 
ENDROOT
BRANCH   1   2
ATOM      2  N   UNL     1       5.033   0.576   1.758  0.00  0.00    -0.238 N 
ATOM      3  N   UNL     1       4.490   1.143   2.856  0.00  0.00    -0.065 NA
ATOM      4  N   UNL     1       5.419   1.902   3.417  0.00  0.00    -0.133 NA
ATOM      5  C   UNL     1       6.555   1.826   2.651  0.00  0.00    +0.096 A 
ATOM      6  C   UNL     1       6.298   1.043   1.545  0.00  0.00    +0.135 A 
BRANCH   5   7
ATOM      7  C   UNL     1       7.835   2.425   3.110  0.00  0.00    +0.137 C 
BRANCH   7   8
ATOM      8  N   UNL     1       8.768   1.341   3.416  0.00  0.00    -0.325 NA
ATOM      9  H   UNL     1       9.623   1.735   3.801  0.00  0.00    +0.119 HD
ATOM     10  H   UNL     1       8.366   0.765   4.158  0.00  0.00    +0.119 HD
ENDBRANCH   7   8
ENDBRANCH   5   7
ENDBRANCH   1   2
BRANCH   1  11
ATOM     11  C   UNL     1       4.908  -1.811   2.166  0.00  0.00    +0.330 C 
ATOM     12  O   UNL     1       5.151  -2.936   1.736  0.00  0.00    -0.249 OA
BRANCH  11  13
ATOM     13  O   UNL     1       4.936  -1.551   3.495  0.00  0.00    -0.479 OA
ATOM     14  H   UNL     1       4.733  -0.615   3.739  0.00  0.00    +0.295 HD
ENDBRANCH  11  13
ENDBRANCH   1  11
BRANCH   1  15
ATOM     15  C   UNL     1       2.956  -0.706   1.100  0.00  0.00    +0.041 C 
BRANCH  15  17
ATOM     16  C   UNL     1       2.911  -0.025  -1.357  0.00  0.00    +0.007 C 
ATOM     17  C   UNL     1       2.375   0.257   0.047  0.00  0.00    -0.015 C 
ATOM     18  C   UNL     1       0.846   0.146   0.039  0.00  0.00    +0.007 C 
ENDBRANCH  15  17
ENDBRANCH   1  15
TORSDOF 7
