REMARK  Name = 
REMARK  8 active torsions:
REMARK  status: ('A' for Active; 'I' for Inactive)
REMARK    1  A    between atoms: N_1  and  C_2
REMARK    2  A    between atoms: C_2  and  C_4
REMARK    3  A    between atoms: C_2  and  C_10
REMARK    4  A    between atoms: C_4  and  S_5
REMARK    5  A    between atoms: S_5  and  P_6
REMARK    6  A    between atoms: P_6  and  O_7
REMARK    7  A    between atoms: P_6  and  O_8
REMARK    8  A    between atoms: C_10  and  O_11
REMARK                            x       y       z     vdW  Elec       q    Type
REMARK                         _______ _______ _______ _____ _____    ______ ____
ROOT
ATOM      1  C   UNK     1       2.637  -0.025   0.027  0.00  0.00    +0.171 C 
ENDROOT
BRANCH   1   2
ATOM      2  N   UNK     1       3.086  -1.157   0.913  0.00  0.00    -0.318 NA
ATOM      3  H   UNK     1       4.018  -0.949   1.286  0.00  0.00    +0.119 HD
ATOM      4  H   UNK     1       2.479  -1.177   1.741  0.00  0.00    +0.119 HD
ENDBRANCH   1   2
BRANCH   1   5
ATOM      5  C   UNK     1       3.040  -0.383  -1.432  0.00  0.00    +0.323 C 
ATOM      6  O   UNK     1       2.843   0.284  -2.436  0.00  0.00    -0.249 OA
BRANCH   5   7
ATOM      7  O   UNK     1       3.621  -1.610  -1.493  0.00  0.00    -0.480 OA
ATOM      8  H   UNK     1       3.576  -1.970  -0.573  0.00  0.00    +0.295 HD
ENDBRANCH   5   7
ENDBRANCH   1   5
BRANCH   1   9
ATOM      9  C   UNK     1       3.189   1.328   0.523  0.00  0.00    +0.111 C 
BRANCH   9  10
ATOM     10  S   UNK     1       2.654   2.678  -0.550  0.00  0.00    -0.039 S 
BRANCH  10  11
ATOM     11  P   UNK     1       2.872   4.477   0.413  0.00  0.00    +0.386 P 
ATOM     12  O   UNK     1       4.269   4.718   0.862  0.00  0.00    -0.246 OA
BRANCH  11  13
ATOM     13  O   UNK     1       1.757   4.522   1.559  0.00  0.00    -0.316 OA
ATOM     14  H   UNK     1       0.998   3.942   1.379  0.00  0.00    +0.221 HD
ENDBRANCH  11  13
BRANCH  11  15
ATOM     15  O   UNK     1       2.302   5.563  -0.618  0.00  0.00    -0.316 OA
ATOM     16  H   UNK     1       2.116   5.166  -1.490  0.00  0.00    +0.221 HD
ENDBRANCH  11  15
ENDBRANCH  10  11
ENDBRANCH   9  10
ENDBRANCH   1   9
TORSDOF 8
