REMARK  Name = 
REMARK  7 active torsions:
REMARK  status: ('A' for Active; 'I' for Inactive)
REMARK    1  A    between atoms: C_1  and  C_2
REMARK    2  A    between atoms: C_2  and  O_4
REMARK    3  A    between atoms: C_2  and  C_5
REMARK    4  A    between atoms: C_8  and  N_16
REMARK    5  A    between atoms: C_10  and  O_12
REMARK    6  A    between atoms: C_13  and  O_15
REMARK    7  A    between atoms: C_24  and  C_25
REMARK                            x       y       z     vdW  Elec       q    Type
REMARK                         _______ _______ _______ _____ _____    ______ ____
ROOT
ATOM      1  C   UNL     1       3.077  -0.681   1.418  0.00  0.00    +0.180 C 
ATOM      2  C   UNL     1       2.955  -2.206   1.396  0.00  0.00    +0.179 C 
ATOM      3  C   UNL     1       2.492  -2.606   2.793  0.00  0.00    +0.195 C 
ATOM      4  C   UNL     1       2.321  -1.275   3.535  0.00  0.00    +0.253 C 
ATOM      5  O   UNL     1       2.255  -0.244   2.527  0.00  0.00    -0.345 OA
ENDROOT
BRANCH   4   6
ATOM      6  N   UNL     1       1.112  -1.241   4.342  0.00  0.00    -0.286 N 
ATOM      7  C   UNL     1       0.801  -2.137   5.334  0.00  0.00    +0.166 A 
ATOM      8  N   UNL     1       1.528  -3.194   5.742  0.00  0.00    -0.216 NA
ATOM      9  C   UNL     1       0.886  -3.857   6.729  0.00  0.00    +0.223 A 
ATOM     10  N   UNL     1      -0.317  -3.581   7.280  0.00  0.00    -0.238 NA
ATOM     11  C   UNL     1      -1.014  -2.499   6.821  0.00  0.00    +0.069 A 
ATOM     12  C   UNL     1      -2.350  -2.202   7.423  0.00  0.00    +0.068 C 
ATOM     13  C   UNL     1      -0.440  -1.731   5.801  0.00  0.00    +0.129 A 
ATOM     14  N   UNL     1      -0.873  -0.612   5.129  0.00  0.00    -0.232 NA
ATOM     15  C   UNL     1       0.086  -0.339   4.269  0.00  0.00    +0.203 A 
ENDBRANCH   4   6
BRANCH   1  17
ATOM     16  C   UNL     1       5.397  -0.480   0.379  0.00  0.00    +0.040 C 
ATOM     17  C   UNL     1       4.516  -0.143   1.577  0.00  0.00    +0.143 C 
BRANCH  17  18
ATOM     18  O   UNL     1       5.124  -0.665   2.756  0.00  0.00    -0.389 OA
ATOM     19  H   UNL     1       6.016  -0.280   2.824  0.00  0.00    +0.210 HD
ENDBRANCH  17  18
ENDBRANCH   1  17
BRANCH   2  20
ATOM     20  O   UNL     1       1.948  -2.577   0.433  0.00  0.00    -0.386 OA
ATOM     21  H   UNL     1       1.140  -2.065   0.618  0.00  0.00    +0.210 HD
ENDBRANCH   2  20
BRANCH   3  22
ATOM     22  O   UNL     1       3.440  -3.464   3.433  0.00  0.00    -0.385 OA
ATOM     23  H   UNL     1       3.088  -3.647   4.329  0.00  0.00    +0.210 HD
ENDBRANCH   3  22
TORSDOF 5
