REMARK  Name = 
REMARK  11 active torsions:
REMARK  status: ('A' for Active; 'I' for Inactive)
REMARK    1  A    between atoms: C_1  and  O_2
REMARK    2  A    between atoms: O_2  and  N_3
REMARK    3  A    between atoms: C_4  and  C_5
REMARK    4  A    between atoms: C_4  and  C_24
REMARK    5  A    between atoms: N_7  and  CA_8
REMARK    6  A    between atoms: CA_8  and  C_10
REMARK    7  A    between atoms: CA_8  and  C_12
REMARK    8  A    between atoms: CA_15  and  C_17
REMARK    9  A    between atoms: C_17  and  O_18
REMARK   10  A    between atoms: C_20  and  C_21
REMARK   11  A    between atoms: C_20  and  C_22
REMARK                            x       y       z     vdW  Elec       q    Type
REMARK                         _______ _______ _______ _____ _____    ______ ____
ROOT
ATOM      1  C   UNL     1       5.201  -0.681   9.388  0.00  0.00    +0.268 C 
ATOM      2  N   UNL     1       4.637   0.269   8.545  0.00  0.00    -0.298 N 
ATOM      3  H   UNL     1       3.836   0.796   8.858  0.00  0.00    +0.150 HD
ATOM      4  O   UNL     1       6.333  -1.117   9.211  0.00  0.00    -0.268 OA
ENDROOT
BRANCH   1   6
ATOM      5  N   UNL     1       5.070  -1.604  11.615  0.00  0.00    -0.078 NA
ATOM      6  C   UNL     1       4.348  -1.201  10.593  0.00  0.00    +0.190 C 
BRANCH   6   7
ATOM      7  C   UNL     1       2.855  -1.267  10.557  0.00  0.00    +0.107 A 
ATOM      8  N   UNL     1       2.104  -1.795  11.630  0.00  0.00    -0.223 NA
ATOM      9  C   UNL     1       0.828  -1.796  11.386  0.00  0.00    +0.156 A 
ATOM     10  N   UNL     1      -0.073  -2.326  12.226  0.00  0.00    -0.338 N 
ATOM     11  H   UNL     1       0.259  -2.563  13.154  0.00  0.00    +0.144 HD
ATOM     12  H   UNL     1      -1.046  -2.062  12.159  0.00  0.00    +0.144 HD
ATOM     13  S   UNL     1       0.368  -1.059   9.918  0.00  0.00    -0.060 S 
ATOM     14  C   UNL     1       2.027  -0.857   9.523  0.00  0.00    +0.078 A 
ENDBRANCH   6   7
BRANCH   5  16
ATOM     15  C   UNL     1       5.171  -2.754  13.620  0.00  0.00    +0.313 C 
ATOM     16  O   UNL     1       4.317  -2.138  12.670  0.00  0.00    -0.396 OA
ENDBRANCH   5  16
ENDBRANCH   1   6
BRANCH   2  17
ATOM     17  CA  UNL     1       5.264   0.628   7.261  0.00  0.00    +0.163 C 
BRANCH  17  18
ATOM     18  C   UNL     1       4.223   0.852   6.113  0.00  0.00    +0.141 C 
ATOM     19  S   UNL     1       5.015   1.154   4.511  0.00  0.00    -0.131 S 
ATOM     20  C   UNL     1       4.747  -0.550   3.882  0.00  0.00    +0.038 C 
ATOM     21  C   UNL     1       6.126  -1.170   3.644  0.00  0.00    +0.024 C 
ATOM     22  C   UNL     1       4.001  -0.421   2.545  0.00  0.00    +0.024 C 
ATOM     23  CA  UNL     1       3.848  -1.237   4.945  0.00  0.00    +0.180 C 
ATOM     24  N   UNL     1       3.235  -0.208   5.855  0.00  0.00    -0.290 NA
ATOM     25  H   UNL     1       2.482   0.227   5.317  0.00  0.00    +0.124 HD
BRANCH  23  26
ATOM     26  C   UNL     1       4.456  -2.383   5.760  0.00  0.00    +0.323 C 
ATOM     27  OXT UNL     1       4.501  -2.476   6.973  0.00  0.00    -0.249 OA
BRANCH  26  28
ATOM     28  O   UNL     1       4.864  -3.424   5.000  0.00  0.00    -0.479 OA
ATOM     29  H   UNL     1       5.158  -4.085   5.667  0.00  0.00    +0.295 HD
ENDBRANCH  26  28
ENDBRANCH  23  26
ENDBRANCH  17  18
BRANCH  17  30
ATOM     30  C   UNL     1       6.042   1.925   7.474  0.00  0.00    +0.247 C 
ATOM     31  O   UNL     1       7.077   2.027   8.126  0.00  0.00    -0.299 OA
ENDBRANCH  17  30
ENDBRANCH   2  17
TORSDOF 8
