REMARK  Name = 
REMARK  6 active torsions:
REMARK  status: ('A' for Active; 'I' for Inactive)
REMARK    1  A    between atoms: N_1  and  C_2
REMARK    2  A    between atoms: C_2  and  C_3
REMARK    3  A    between atoms: C_6  and  C_7
REMARK    4  A    between atoms: C_10  and  O_11
REMARK    5  A    between atoms: N_16  and  C_17
REMARK    6  A    between atoms: C_17  and  C_18
REMARK                            x       y       z     vdW  Elec       q    Type
REMARK                         _______ _______ _______ _____ _____    ______ ____
ROOT
ATOM      1  C   UNL     1       2.900  -1.145   0.967  0.00  0.00    +0.311 C 
ATOM      2  N   UNL     1       3.787  -1.147   1.984  0.00  0.00    -0.146 N 
ATOM      3  C   UNL     1       3.878  -2.424   2.463  0.00  0.00    +0.379 C 
ATOM      4  O   UNL     1       4.575  -2.863   3.359  0.00  0.00    -0.237 OA
ATOM      5  C   UNL     1       2.883  -3.154   1.625  0.00  0.00    +0.263 C 
ATOM      6  C   UNL     1       2.509  -4.420   1.865  0.00  0.00    +0.071 C 
ATOM      7  N   UNL     1       2.355  -2.291   0.692  0.00  0.00    -0.037 NA
ENDROOT
BRANCH   6   8
ATOM      8  C   UNL     1       1.372  -5.097   1.213  0.00  0.00    -0.020 A 
ATOM      9  C   UNL     1       0.622  -6.020   1.956  0.00  0.00    +0.011 A 
ATOM     10  C   UNL     1      -0.534  -6.596   1.420  0.00  0.00    +0.046 A 
ATOM     11  C   UNL     1      -0.942  -6.256   0.137  0.00  0.00    +0.117 A 
ATOM     12  C   UNL     1      -0.188  -5.386  -0.639  0.00  0.00    +0.046 A 
ATOM     13  C   UNL     1       0.976  -4.826  -0.105  0.00  0.00    +0.011 A 
BRANCH  11  14
ATOM     14  O   UNL     1      -2.106  -6.790  -0.328  0.00  0.00    -0.507 OA
ATOM     15  H   UNL     1      -2.315  -6.371  -1.179  0.00  0.00    +0.292 HD
ENDBRANCH  11  14
ENDBRANCH   6   8
BRANCH   1  16
ATOM     16  C   UNL     1       2.552   0.100   0.178  0.00  0.00    +0.208 C 
BRANCH  16  17
ATOM     17  N   UNL     1       3.742   0.598  -0.524  0.00  0.00    -0.320 NA
ATOM     18  H   UNL     1       4.053  -0.120  -1.181  0.00  0.00    +0.119 HD
ATOM     19  H   UNL     1       3.462   1.389  -1.106  0.00  0.00    +0.119 HD
ENDBRANCH  16  17
ENDBRANCH   1  16
BRANCH   2  20
ATOM     20  C   UNL     1       4.469  -0.020   2.584  0.00  0.00    +0.306 C 
BRANCH  20  21
ATOM     21  C   UNL     1       3.581   0.645   3.618  0.00  0.00    +0.267 C 
ATOM     22  O   UNL     1       2.414   0.341   3.845  0.00  0.00    -0.297 OA
ENDBRANCH  20  21
ENDBRANCH   2  20
TORSDOF 6
