REMARK  Name = 
REMARK  6 active torsions:
REMARK  status: ('A' for Active; 'I' for Inactive)
REMARK    1  A    between atoms: C_13  and  C_15
REMARK    2  A    between atoms: C_15  and  O_16
REMARK    3  A    between atoms: O_16  and  P_17
REMARK    4  A    between atoms: P_17  and  O_18
REMARK    5  A    between atoms: P_17  and  O_19
REMARK    6  A    between atoms: MO_24  and  S_25
REMARK                            x       y       z     vdW  Elec       q    Type
REMARK                         _______ _______ _______ _____ _____    ______ ____
ROOT
ATOM      1  N   UNL     1       1.482   0.404  -1.084  0.00  0.00    +0.000 N 
ATOM      2  H   UNL     1       0.635   0.008  -0.636  0.00  0.00    +0.000 HD
ATOM      3  H   UNL     1       1.373   1.180  -1.743  0.00  0.00    +0.000 HD
ATOM      4  C   UNL     1       2.752   0.105  -0.556  0.00  0.00    +0.000 A 
ATOM      5  N   UNL     1       2.813  -0.668   0.565  0.00  0.00    +0.000 N 
ATOM      6  H   UNL     1       1.960  -1.128   0.956  0.00  0.00    +0.000 HD
ATOM      7  C   UNL     1       3.983  -0.811   1.239  0.00  0.00    +0.000 A 
ATOM      8  O   UNL     1       4.034  -1.472   2.263  0.00  0.00    +0.000 OA
ATOM      9  C   UNL     1       5.138  -0.255   0.720  0.00  0.00    +0.000 A 
ATOM     10  N   UNL     1       6.378  -0.408   1.369  0.00  0.00    +0.000 N 
ATOM     11  H   UNL     1       6.624   0.423   1.945  0.00  0.00    +0.000 HD
ATOM     12  C   UNL     1       7.483  -0.914   0.606  0.00  0.00    +0.000 C 
ATOM     13  C   UNL     1       7.764  -2.278   1.122  0.00  0.00    +0.000 C 
ATOM     14  S   UNL     1       7.473  -2.680   2.833  0.00  0.00    +0.000 S 
ATOM     15 MO   UNL     1       6.280  -4.779   2.338  0.00  0.00    +0.000 Mo
ATOM     16  S   UNL     1       8.295  -4.911   0.959  0.00  0.00    +0.000 S 
ATOM     17  O   UNL     1       6.639  -5.070   4.079  0.00  0.00    +0.000 OA
ATOM     18  O   UNL     1       5.072  -3.864   1.366  0.00  0.00    +0.000 OA
ATOM     19  C   UNL     1       8.110  -3.237   0.281  0.00  0.00    +0.000 C 
ATOM     20  C   UNL     1       8.392  -2.939  -1.202  0.00  0.00    +0.000 C 
ATOM     21  O   UNL     1       8.194  -1.528  -1.595  0.00  0.00    +0.000 OA
ATOM     22  C   UNL     1       7.074  -1.032  -0.879  0.00  0.00    +0.000 C 
ATOM     23  N   UNL     1       6.373   0.211  -1.292  0.00  0.00    +0.000 N 
ATOM     24  H   UNL     1       6.563   0.692  -2.186  0.00  0.00    +0.000 HD
ATOM     25  C   UNL     1       5.117   0.284  -0.571  0.00  0.00    +0.000 A 
ATOM     26  N   UNL     1       3.912   0.538  -1.165  0.00  0.00    +0.000 NA
ENDROOT
BRANCH  15  27
ATOM     27  S   UNL     1       4.113  -5.146   3.423  0.00  0.00    +0.000 S 
ATOM     28  H   UNL     1       4.019  -3.767   3.732  0.00  0.00    +0.000 HD
ENDBRANCH  15  27
BRANCH  20  29
ATOM     29  C   UNL     1       9.829  -3.439  -1.375  0.00  0.00    +0.000 C 
BRANCH  29  30
ATOM     30  O   UNL     1      10.214  -3.612  -2.685  0.00  0.00    +0.000 OA
BRANCH  30  31
ATOM     31  P   UNL     1      10.538  -2.046  -3.345  0.00  0.00    +0.000 P 
ATOM     32  O   UNL     1      10.828  -0.644  -3.935  0.00  0.00    +0.000 OA
BRANCH  31  33
ATOM     33  O   UNL     1      10.291  -2.683  -4.942  0.00  0.00    +0.000 OA
ATOM     34  H   UNL     1       9.328  -2.921  -4.973  0.00  0.00    +0.000 HD
ENDBRANCH  31  33
BRANCH  31  35
ATOM     35  O   UNL     1      12.254  -2.370  -3.305  0.00  0.00    +0.000 OA
ATOM     36  H   UNL     1      12.390  -3.339  -3.469  0.00  0.00    +0.000 HD
ENDBRANCH  31  35
ENDBRANCH  30  31
ENDBRANCH  29  30
ENDBRANCH  20  29
TORSDOF 6
