REMARK  Name = 
REMARK  7 active torsions:
REMARK  status: ('A' for Active; 'I' for Inactive)
REMARK    1  A    between atoms: C_1  and  C_2
REMARK    2  A    between atoms: N_4  and  C_5
REMARK    3  A    between atoms: C_7  and  O_9
REMARK    4  A    between atoms: C_11  and  C_13
REMARK    5  A    between atoms: C_13  and  O_14
REMARK    6  A    between atoms: C_15  and  O_17
REMARK    7  A    between atoms: C_18  and  O_20
REMARK                            x       y       z     vdW  Elec       q    Type
REMARK                         _______ _______ _______ _____ _____    ______ ____
ROOT
ATOM      1  C   UNL     1       4.669  -1.148   0.346  0.00  0.00    +0.160 C 
ATOM      2  C   UNL     1       5.321  -0.134  -0.611  0.00  0.00    +0.171 C 
ATOM      3  C   UNL     1       5.078  -0.554  -2.065  0.00  0.00    +0.176 C 
ATOM      4  C   UNL     1       5.541  -1.999  -2.331  0.00  0.00    +0.178 C 
ATOM      5  O   UNL     1       5.043  -2.922  -1.347  0.00  0.00    -0.341 OA
ATOM      6  C   UNL     1       5.241  -2.555   0.022  0.00  0.00    +0.270 C 
ENDROOT
BRANCH   1   9
ATOM      7  C   UNL     1       0.964  -0.256   0.448  0.00  0.00    +0.109 C 
ATOM      8  C   UNL     1       2.447  -0.034   0.583  0.00  0.00    +0.210 C 
ATOM      9  N   UNL     1       3.199  -1.140   0.265  0.00  0.00    -0.305 N 
ATOM     10  H   UNL     1       2.722  -2.031   0.182  0.00  0.00    +0.149 HD
ATOM     11  O   UNL     1       2.924   1.037   0.934  0.00  0.00    -0.276 OA
ENDBRANCH   1   9
BRANCH   2  12
ATOM     12  O   UNL     1       6.737  -0.063  -0.357  0.00  0.00    -0.387 OA
ATOM     13  H   UNL     1       7.074   0.571  -1.026  0.00  0.00    +0.210 HD
ENDBRANCH   2  12
BRANCH   3  14
ATOM     14  O   UNL     1       5.718   0.385  -2.933  0.00  0.00    -0.387 OA
ATOM     15  H   UNL     1       5.340   0.261  -3.823  0.00  0.00    +0.210 HD
ENDBRANCH   3  14
BRANCH   6  16
ATOM     16  O   UNL     1       6.599  -2.711   0.405  0.00  0.00    -0.365 OA
ATOM     17  H   UNL     1       7.006  -1.820   0.377  0.00  0.00    +0.213 HD
ENDBRANCH   6  16
BRANCH   4  18
ATOM     18  C   UNL     1       7.054  -2.160  -2.567  0.00  0.00    +0.190 C 
BRANCH  18  19
ATOM     19  O   UNL     1       7.335  -3.496  -2.991  0.00  0.00    -0.392 OA
ATOM     20  H   UNL     1       7.019  -4.070  -2.267  0.00  0.00    +0.210 HD
ENDBRANCH  18  19
ENDBRANCH   4  18
TORSDOF 6
