REMARK  Name = 
REMARK  3 active torsions:
REMARK  status: ('A' for Active; 'I' for Inactive)
REMARK    1  A    between atoms: C_1  and  N_2
REMARK    2  A    between atoms: N_2  and  C_3
REMARK    3  A    between atoms: C_4  and  N_11
REMARK                            x       y       z     vdW  Elec       q    Type
REMARK                         _______ _______ _______ _____ _____    ______ ____
ROOT
ATOM      1  C   UNL     1       3.263  -0.195   1.342  0.00  0.00    +0.206 A 
ATOM      2  N   UNL     1       3.422  -1.447   1.917  0.00  0.00    -0.194 NA
ATOM      3  C   UNL     1       4.057  -1.570   3.036  0.00  0.00    +0.195 A 
ATOM      4  N   UNL     1       4.176  -2.784   3.619  0.00  0.00    -0.329 N 
ATOM      5  H   UNL     1       3.927  -3.547   2.996  0.00  0.00    +0.145 HD
ATOM      6  H   UNL     1       4.995  -2.974   4.179  0.00  0.00    +0.145 HD
ATOM      7  N   UNL     1       4.623  -0.517   3.679  0.00  0.00    -0.290 N 
ATOM      8  H   UNL     1       5.073  -0.637   4.573  0.00  0.00    +0.172 HD
ATOM      9  C   UNL     1       4.513   0.768   3.217  0.00  0.00    +0.332 A 
ATOM     10  O   UNL     1       4.966   1.708   3.860  0.00  0.00    -0.260 OA
ATOM     11  C   UNL     1       3.787   0.888   1.956  0.00  0.00    +0.376 A 
ENDROOT
BRANCH   1  13
ATOM     12  C   UNL     1       1.990  -1.309  -0.492  0.00  0.00    +0.127 C 
ATOM     13  N   UNL     1       2.556  -0.134   0.140  0.00  0.00    -0.327 N 
ATOM     14  H   UNL     1       1.987   0.710   0.041  0.00  0.00    +0.147 HD
ENDBRANCH   1  13
BRANCH  11  15
ATOM     15  N   UNL     1       3.646   2.181   1.370  0.00  0.00    +0.089 N 
ATOM     16  O   UNL     1       4.682   2.779   1.050  0.00  0.00    +0.042 OA
ATOM     17  O   UNL     1       2.493   2.608   1.201  0.00  0.00    -0.576 OA
ENDBRANCH  11  15
TORSDOF 2
