REMARK  Name = 
REMARK  7 active torsions:
REMARK  status: ('A' for Active; 'I' for Inactive)
REMARK    1  A    between atoms: C_1  and  N_2
REMARK    2  A    between atoms: C_6  and  C_12
REMARK    3  A    between atoms: C_10  and  N_11
REMARK    4  A    between atoms: C_15  and  C_17
REMARK    5  A    between atoms: C_17  and  O_18
REMARK    6  A    between atoms: C_19  and  O_21
REMARK    7  A    between atoms: C_22  and  O_24
REMARK                            x       y       z     vdW  Elec       q    Type
REMARK                         _______ _______ _______ _____ _____    ______ ____
ROOT
ATOM      1  C   UNL     1       7.752  -2.724  -5.707  0.00  0.00    +0.151 C 
ATOM      2  N   UNL     1       7.866  -1.832  -4.561  0.00  0.00    -0.322 N 
ATOM      3  C   UNL     1       8.613  -0.640  -4.625  0.00  0.00    +0.127 A 
ATOM      4  C   UNL     1       8.652   0.086  -3.490  0.00  0.00    +0.151 A 
ATOM      5  C   UNL     1       7.946  -0.325  -2.309  0.00  0.00    +0.121 A 
ATOM      6  C   UNL     1       8.213   0.638  -1.426  0.00  0.00    +0.122 A 
ATOM      7  N   UNL     1       9.043   1.592  -1.998  0.00  0.00    -0.149 NA
ATOM      8  N   UNL     1       7.197  -1.466  -2.256  0.00  0.00    -0.234 NA
ATOM      9  N   UNL     1       9.293   1.268  -3.200  0.00  0.00    -0.144 NA
ATOM     10  C   UNL     1       7.206  -2.140  -3.370  0.00  0.00    +0.201 A 
ENDROOT
BRANCH   6  11
ATOM     11  C   UNL     1       7.679   0.774  -0.031  0.00  0.00    +0.202 C 
ATOM     12  C   UNL     1       8.630   0.280   1.069  0.00  0.00    +0.180 C 
ATOM     13  C   UNL     1       9.258   1.547   1.654  0.00  0.00    +0.177 C 
ATOM     14  C   UNL     1       8.631   2.685   0.849  0.00  0.00    +0.175 C 
ATOM     15  O   UNL     1       7.417   2.165   0.286  0.00  0.00    -0.360 OA
BRANCH  12  16
ATOM     16  O   UNL     1       7.880  -0.388   2.105  0.00  0.00    -0.386 OA
ATOM     17  H   UNL     1       7.151   0.200   2.373  0.00  0.00    +0.210 HD
ENDBRANCH  12  16
BRANCH  13  18
ATOM     18  O   UNL     1      10.677   1.538   1.514  0.00  0.00    -0.386 OA
ATOM     19  H   UNL     1      11.002   2.342   1.961  0.00  0.00    +0.210 HD
ENDBRANCH  13  18
BRANCH  14  20
ATOM     20  C   UNL     1       8.353   3.932   1.680  0.00  0.00    +0.190 C 
BRANCH  20  21
ATOM     21  O   UNL     1       9.567   4.473   2.193  0.00  0.00    -0.392 OA
ATOM     22  H   UNL     1       9.942   5.039   1.494  0.00  0.00    +0.210 HD
ENDBRANCH  20  21
ENDBRANCH  14  20
ENDBRANCH   6  11
BRANCH   3  23
ATOM     23  N   UNL     1       9.270  -0.227  -5.773  0.00  0.00    -0.343 N 
ATOM     24  H   UNL     1       9.683  -0.992  -6.292  0.00  0.00    +0.144 HD
ATOM     25  H   UNL     1       9.945   0.512  -5.576  0.00  0.00    +0.144 HD
ENDBRANCH   3  23
TORSDOF 6
