REMARK  Name = 
REMARK  4 active torsions:
REMARK  status: ('A' for Active; 'I' for Inactive)
REMARK    1  A    between atoms: C_1  and  C_2
REMARK    2  A    between atoms: CA_3  and  N_4
REMARK    3  A    between atoms: CA_3  and  C_5
REMARK    4  A    between atoms: C_5  and  O_6
REMARK                            x       y       z     vdW  Elec       q    Type
REMARK                         _______ _______ _______ _____ _____    ______ ____
ROOT
ATOM      1  C   UNL     1       0.918  -0.096   0.021  0.00  0.00    +0.037 C 
ATOM      2  C   UNL     1       2.408   0.042   0.011  0.00  0.00    -0.000 C 
ATOM      3  CA  UNL     1       3.097   0.780  -0.880  0.00  0.00    +0.105 C 
ENDROOT
BRANCH   3   4
ATOM      4  N   UNL     1       2.500   1.567  -1.856  0.00  0.00    -0.353 N 
ATOM      5  H1  UNL     1       3.122   2.341  -2.110  0.00  0.00    +0.143 HD
ATOM      6  H2  UNL     1       1.580   1.905  -1.589  0.00  0.00    +0.143 HD
ENDBRANCH   3   4
BRANCH   3   7
ATOM      7  C   UNL     1       4.603   0.885  -0.780  0.00  0.00    +0.350 C 
ATOM      8  OXT UNL     1       5.199   1.901  -1.118  0.00  0.00    -0.244 OA
BRANCH   7   9
ATOM      9  O   UNL     1       5.223  -0.223  -0.335  0.00  0.00    -0.476 OA
ATOM     10  H   UNL     1       4.641  -1.004  -0.319  0.00  0.00    +0.295 HD
ENDBRANCH   7   9
ENDBRANCH   3   7
TORSDOF 3
