REMARK  Name = 
REMARK  9 active torsions:
REMARK  status: ('A' for Active; 'I' for Inactive)
REMARK    1  A    between atoms: C_1  and  C_2
REMARK    2  A    between atoms: C_2  and  C_3
REMARK    3  A    between atoms: C_3  and  C_4
REMARK    4  A    between atoms: C_4  and  C_5
REMARK    5  A    between atoms: C_5  and  C_6
REMARK    6  A    between atoms: C_6  and  C_7
REMARK    7  A    between atoms: C_7  and  C_8
REMARK    8  A    between atoms: C_8  and  C_9
REMARK    9  A    between atoms: C_9  and  O_10
REMARK                            x       y       z     vdW  Elec       q    Type
REMARK                         _______ _______ _______ _____ _____    ______ ____
ROOT
ATOM      1  C   UNL     1       6.577  -2.364   1.552  0.00  0.00    +0.000 C 
ENDROOT
BRANCH   1   2
ATOM      2  C   UNL     1       5.048  -2.341   1.539  0.00  0.00    +0.000 C 
BRANCH   2   3
ATOM      3  C   UNL     1       4.514  -1.121   0.788  0.00  0.00    -0.000 C 
BRANCH   3   4
ATOM      4  C   UNL     1       2.984  -1.103   0.779  0.00  0.00    -0.000 C 
BRANCH   4   6
ATOM      5  C   UNL     1       0.925   0.136   0.025  0.00  0.00    +0.004 C 
ATOM      6  C   UNL     1       2.445   0.116   0.032  0.00  0.00    -0.003 C 
ENDBRANCH   4   6
ENDBRANCH   3   4
ENDBRANCH   2   3
ENDBRANCH   1   2
BRANCH   1   7
ATOM      7  C   UNL     1       7.105  -3.586   2.306  0.00  0.00    +0.002 C 
BRANCH   7   8
ATOM      8  C   UNL     1       8.632  -3.614   2.321  0.00  0.00    +0.028 C 
BRANCH   8   9
ATOM      9  C   UNL     1       9.162  -4.829   3.071  0.00  0.00    +0.156 C 
BRANCH   9  10
ATOM     10  O   UNL     1      10.583  -4.815   3.068  0.00  0.00    -0.395 OA
ATOM     11  H   UNL     1      10.874  -4.840   2.141  0.00  0.00    +0.209 HD
ENDBRANCH   9  10
ENDBRANCH   8   9
ENDBRANCH   7   8
ENDBRANCH   1   7
TORSDOF 8
