REMARK  Name = 
REMARK  6 active torsions:
REMARK  status: ('A' for Active; 'I' for Inactive)
REMARK    1  A    between atoms: C_1  and  C_2
REMARK    2  A    between atoms: C_2  and  C_3
REMARK    3  A    between atoms: C_2  and  C_4
REMARK    4  A    between atoms: C_4  and  C_6
REMARK    5  A    between atoms: C_6  and  O_7
REMARK    6  A    between atoms: O_7  and  C_8
REMARK                            x       y       z     vdW  Elec       q    Type
REMARK                         _______ _______ _______ _____ _____    ______ ____
ROOT
ATOM      1  C   UNL     1       6.136  -0.509  -3.428  0.00  0.00    +0.246 A 
ATOM      2  C   UNL     1       6.543  -0.683  -4.725  0.00  0.00    +0.147 A 
ATOM      3  N   UNL     1       5.922  -0.987  -5.902  0.00  0.00    -0.339 N 
ATOM      4  H   UNL     1       4.934  -1.166  -6.026  0.00  0.00    +0.167 HD
ATOM      5  C   UNL     1       6.884  -0.996  -6.876  0.00  0.00    +0.199 A 
ATOM      6  N   UNL     1       8.075  -0.721  -6.388  0.00  0.00    -0.216 NA
ATOM      7  C   UNL     1       7.874  -0.529  -5.046  0.00  0.00    +0.186 A 
ATOM      8  N   UNL     1       8.817  -0.217  -4.142  0.00  0.00    -0.193 NA
ATOM      9  C   UNL     1       8.346  -0.086  -2.901  0.00  0.00    +0.218 A 
ATOM     10  N   UNL     1       9.256   0.257  -1.918  0.00  0.00    -0.327 N 
ATOM     11  H   UNL     1      10.053   0.713  -2.342  0.00  0.00    +0.145 HD
ATOM     12  H   UNL     1       8.788   0.743  -1.167  0.00  0.00    +0.145 HD
ATOM     13  N   UNL     1       7.066  -0.197  -2.507  0.00  0.00    -0.178 NA
ENDROOT
BRANCH   1  14
ATOM     14  O   UNL     1       4.811  -0.636  -3.089  0.00  0.00    -0.467 OA
BRANCH  14  15
ATOM     15  C   UNL     1       4.562  -0.321  -1.723  0.00  0.00    +0.305 C 
BRANCH  15  16
ATOM     16  C   UNL     1       3.063  -0.375  -1.447  0.00  0.00    +0.173 C 
ATOM     17  O   UNL     1       2.242  -0.689  -2.311  0.00  0.00    -0.294 OA
BRANCH  16  19
ATOM     18  C   UNL     1       1.235   0.576  -0.011  0.00  0.00    +0.015 C 
ATOM     19  C   UNL     1       2.631  -0.041  -0.020  0.00  0.00    +0.053 C 
ATOM     20  C   UNL     1       2.677  -1.298   0.839  0.00  0.00    +0.015 C 
ENDBRANCH  16  19
ENDBRANCH  15  16
ENDBRANCH  14  15
ENDBRANCH   1  14
TORSDOF 4
