REMARK  Name = 
REMARK  5 active torsions:
REMARK  status: ('A' for Active; 'I' for Inactive)
REMARK    1  A    between atoms: C_1  and  C_2
REMARK    2  A    between atoms: C_2  and  O_4
REMARK    3  A    between atoms: O_4  and  N_5
REMARK    4  A    between atoms: C_6  and  C_8
REMARK    5  A    between atoms: C_9  and  O_10
REMARK                            x       y       z     vdW  Elec       q    Type
REMARK                         _______ _______ _______ _____ _____    ______ ____
ROOT
ATOM      1  N   UNL     1       4.536   0.185  -2.042  0.00  0.00    -0.141 N 
ATOM      2  H   UNL     1       4.968  -0.625  -1.599  0.00  0.00    +0.196 HD
ATOM      3  C   UNL     1       5.173   1.403  -2.073  0.00  0.00    +0.279 C 
ATOM      4  O   UNL     1       4.600   2.491  -2.036  0.00  0.00    -0.267 OA
ENDROOT
BRANCH   3   5
ATOM      5  C   UNL     1       6.657   1.376  -2.129  0.00  0.00    +0.081 A 
ATOM      6  C   UNL     1       7.344   0.283  -2.679  0.00  0.00    +0.017 A 
ATOM      7  C   UNL     1       8.739   0.302  -2.767  0.00  0.00    +0.001 A 
ATOM      8  C   UNL     1       9.456   1.405  -2.302  0.00  0.00    +0.004 A 
ATOM      9  C   UNL     1       8.781   2.498  -1.758  0.00  0.00    +0.046 A 
ATOM     10  C   UNL     1       7.389   2.489  -1.687  0.00  0.00    +0.129 A 
BRANCH  10  11
ATOM     11  O   UNL     1       6.802   3.617  -1.177  0.00  0.00    -0.506 OA
ATOM     12  H   UNL     1       5.838   3.570  -1.373  0.00  0.00    +0.292 HD
ENDBRANCH  10  11
ENDBRANCH   3   5
BRANCH   1  13
ATOM     13  O   UNL     1       3.127   0.282  -1.884  0.00  0.00    -0.347 OA
BRANCH  13  15
ATOM     14  C   UNL     1       1.135  -0.639  -1.053  0.00  0.00    +0.138 C 
ATOM     15  C   UNL     1       2.627  -0.728  -1.111  0.00  0.00    +0.328 C 
ATOM     16  O   UNL     1       3.314  -1.590  -0.575  0.00  0.00    -0.249 OA
ENDBRANCH  13  15
ENDBRANCH   1  13
TORSDOF 4
