REMARK  Name = 
REMARK  20 active torsions:
REMARK  status: ('A' for Active; 'I' for Inactive)
REMARK    1  A    between atoms: O_1  and  C_2
REMARK    2  A    between atoms: C_2  and  C_3
REMARK    3  A    between atoms: C_6  and  S_8
REMARK    4  A    between atoms: S_8  and  C_9
REMARK    5  A    between atoms: C_11  and  O_13
REMARK    6  A    between atoms: C_14  and  C_16
REMARK    7  A    between atoms: C_16  and  O_17
REMARK    8  A    between atoms: C_19  and  O_21
REMARK    9  A    between atoms: O_21  and  C_22
REMARK   10  A    between atoms: C_24  and  O_26
REMARK   11  A    between atoms: C_27  and  C_29
REMARK   12  A    between atoms: C_29  and  O_30
REMARK   13  A    between atoms: C_32  and  O_34
REMARK   14  A    between atoms: O_34  and  C_35
REMARK   15  A    between atoms: C_38  and  N_41
REMARK   16  A    between atoms: C_44  and  O_46
REMARK   17  A    between atoms: C_47  and  O_49
REMARK   18  A    between atoms: C_50  and  O_52
REMARK   19  A    between atoms: C_53  and  O_55
REMARK   20  A    between atoms: C_56  and  O_58
REMARK                            x       y       z     vdW  Elec       q    Type
REMARK                         _______ _______ _______ _____ _____    ______ ____
ROOT
ATOM      1  C   UNL     1      -3.766   4.447   0.920  0.00  0.00    +0.113 C 
ATOM      2  C   UNL     1      -3.004   5.225  -0.185  0.00  0.00    +0.186 C 
ATOM      3  C   UNL     1      -3.694   4.896  -1.521  0.00  0.00    +0.281 C 
ATOM      4  O   UNL     1      -3.605   3.518  -1.807  0.00  0.00    -0.341 OA
ATOM      5  C   UNL     1      -4.358   2.720  -0.897  0.00  0.00    +0.176 C 
ATOM      6  C   UNL     1      -3.919   2.946   0.562  0.00  0.00    +0.161 C 
ENDROOT
BRANCH   6   7
ATOM      7  O   UNL     1      -4.885   2.287   1.389  0.00  0.00    -0.388 OA
ATOM      8  H   UNL     1      -5.548   2.939   1.693  0.00  0.00    +0.210 HD
ENDBRANCH   6   7
BRANCH   2   9
ATOM      9  O   UNL     1      -3.061   6.645   0.052  0.00  0.00    -0.386 OA
ATOM     10  H   UNL     1      -3.978   6.891   0.265  0.00  0.00    +0.210 HD
ENDBRANCH   2   9
BRANCH   3  11
ATOM     11  O   UNL     1      -3.163   5.639  -2.620  0.00  0.00    -0.340 OA
BRANCH  11  12
ATOM     12  C   UNL     1      -3.965   5.557  -3.832  0.00  0.00    +0.187 C 
ATOM     13  C   UNL     1      -3.351   6.525  -4.863  0.00  0.00    +0.214 C 
ATOM     14  C   UNL     1      -3.448   7.984  -4.330  0.00  0.00    +0.339 C 
ATOM     15  O   UNL     1      -4.805   8.320  -3.964  0.00  0.00    -0.331 OA
ATOM     16  C   UNL     1      -5.333   7.427  -2.981  0.00  0.00    +0.179 C 
ATOM     17  C   UNL     1      -5.426   6.026  -3.623  0.00  0.00    +0.177 C 
BRANCH  17  18
ATOM     18  O   UNL     1      -6.211   5.096  -2.869  0.00  0.00    -0.386 OA
ATOM     19  H   UNL     1      -5.956   4.201  -3.172  0.00  0.00    +0.210 HD
ENDBRANCH  17  18
BRANCH  13  20
ATOM     20  O   UNL     1      -2.007   6.138  -5.176  0.00  0.00    -0.383 OA
ATOM     21  H   UNL     1      -1.459   6.321  -4.391  0.00  0.00    +0.210 HD
ENDBRANCH  13  20
BRANCH  14  22
ATOM     22  O   UNL     1      -2.977   8.845  -5.375  0.00  0.00    -0.461 OA
BRANCH  22  23
ATOM     23  C   UNL     1      -2.881  10.181  -5.104  0.00  0.00    +0.124 A 
ATOM     24  C   UNL     1      -2.494  10.967  -6.195  0.00  0.00    +0.052 A 
ATOM     25  C   UNL     1      -2.406  12.356  -6.077  0.00  0.00    +0.088 A 
ATOM     26  C   UNL     1      -2.716  12.960  -4.853  0.00  0.00    +0.273 A 
ATOM     27  C   UNL     1      -3.072  12.180  -3.747  0.00  0.00    +0.088 A 
ATOM     28  C   UNL     1      -3.151  10.792  -3.879  0.00  0.00    +0.052 A 
BRANCH  26  29
ATOM     29  N   UNL     1      -2.669  14.418  -4.720  0.00  0.00    +0.080 N 
ATOM     30  O   UNL     1      -2.338  15.075  -5.718  0.00  0.00    +0.041 OA
ATOM     31  O   UNL     1      -2.966  14.909  -3.622  0.00  0.00    -0.576 OA
ENDBRANCH  26  29
ENDBRANCH  22  23
ENDBRANCH  14  22
BRANCH  16  32
ATOM     32  C   UNL     1      -6.660   7.925  -2.411  0.00  0.00    +0.190 C 
BRANCH  32  33
ATOM     33  O   UNL     1      -7.064   7.102  -1.311  0.00  0.00    -0.392 OA
ATOM     34  H   UNL     1      -7.149   6.196  -1.681  0.00  0.00    +0.210 HD
ENDBRANCH  32  33
ENDBRANCH  16  32
ENDBRANCH  11  12
ENDBRANCH   3  11
BRANCH   1  35
ATOM     35  S   UNL     1      -2.931   4.704   2.557  0.00  0.00    -0.118 S 
BRANCH  35  40
ATOM     36  C   UNL     1      -5.978   5.743   4.259  0.00  0.00    +0.176 C 
ATOM     37  C   UNL     1      -5.579   5.671   5.745  0.00  0.00    +0.176 C 
ATOM     38  C   UNL     1      -4.105   5.296   5.947  0.00  0.00    +0.177 C 
ATOM     39  C   UNL     1      -3.761   4.027   5.178  0.00  0.00    +0.184 C 
ATOM     40  C   UNL     1      -4.219   4.091   3.704  0.00  0.00    +0.207 C 
ATOM     41  O   UNL     1      -5.508   4.653   3.441  0.00  0.00    -0.355 OA
BRANCH  39  42
ATOM     42  O   UNL     1      -4.398   2.916   5.854  0.00  0.00    -0.386 OA
ATOM     43  H   UNL     1      -4.198   2.107   5.349  0.00  0.00    +0.210 HD
ENDBRANCH  39  42
BRANCH  38  44
ATOM     44  O   UNL     1      -3.217   6.361   5.623  0.00  0.00    -0.386 OA
ATOM     45  H   UNL     1      -3.382   6.643   4.694  0.00  0.00    +0.210 HD
ENDBRANCH  38  44
BRANCH  37  46
ATOM     46  O   UNL     1      -6.466   4.735   6.383  0.00  0.00    -0.386 OA
ATOM     47  H   UNL     1      -5.941   4.160   6.971  0.00  0.00    +0.210 HD
ENDBRANCH  37  46
BRANCH  36  48
ATOM     48  C   UNL     1      -5.707   7.126   3.637  0.00  0.00    +0.190 C 
BRANCH  48  49
ATOM     49  O   UNL     1      -4.320   7.417   3.530  0.00  0.00    -0.392 OA
ATOM     50  H   UNL     1      -4.241   8.305   3.131  0.00  0.00    +0.210 HD
ENDBRANCH  48  49
ENDBRANCH  36  48
ENDBRANCH  35  40
ENDBRANCH   1  35
BRANCH   5  51
ATOM     51  C   UNL     1      -4.165   1.250  -1.305  0.00  0.00    +0.190 C 
BRANCH  51  52
ATOM     52  O   UNL     1      -4.654   1.032  -2.631  0.00  0.00    -0.392 OA
ATOM     53  H   UNL     1      -5.619   0.942  -2.579  0.00  0.00    +0.210 HD
ENDBRANCH  51  52
ENDBRANCH   5  51
TORSDOF 20
