REMARK  Name = 
REMARK  20 active torsions:
REMARK  status: ('A' for Active; 'I' for Inactive)
REMARK    1  A    between atoms: C_1  and  C_2
REMARK    2  A    between atoms: C_2  and  O_4
REMARK    3  A    between atoms: O_4  and  C_5
REMARK    4  A    between atoms: C_5  and  C_6
REMARK    5  A    between atoms: C_6  and  N_7
REMARK    6  A    between atoms: C_8  and  C_10
REMARK    7  A    between atoms: C_10  and  C_11
REMARK    8  A    between atoms: C_11  and  N_12
REMARK    9  A    between atoms: C_13  and  C_15
REMARK   10  A    between atoms: C_15  and  O_17
REMARK   11  A    between atoms: C_15  and  C_18
REMARK   12  A    between atoms: C_18  and  C_19
REMARK   13  A    between atoms: C_18  and  C_20
REMARK   14  A    between atoms: C_18  and  C_21
REMARK   15  A    between atoms: C_21  and  O_22
REMARK   16  A    between atoms: O_22  and  C_23
REMARK   17  A    between atoms: C_23  and  C_25
REMARK   18  A    between atoms: C_25  and  C_26
REMARK   19  A    between atoms: C_25  and  C_27
REMARK   20  A    between atoms: C_25  and  C_28
REMARK                            x       y       z     vdW  Elec       q    Type
REMARK                         _______ _______ _______ _____ _____    ______ ____
ROOT
ATOM      1  N   UNL     1      13.207  -3.998  -2.563  0.00  0.00    -0.313 N 
ATOM      2  H   UNL     1      12.709  -3.864  -1.688  0.00  0.00    +0.149 HD
ATOM      3  C   UNL     1      13.607  -5.282  -2.884  0.00  0.00    +0.242 C 
ATOM      4  O   UNL     1      14.176  -5.540  -3.939  0.00  0.00    -0.273 OA
ENDROOT
BRANCH   1   5
ATOM      5  C   UNL     1      13.355  -2.914  -3.509  0.00  0.00    +0.113 C 
BRANCH   5   6
ATOM      6  C   UNL     1      13.418  -1.559  -2.830  0.00  0.00    +0.114 C 
BRANCH   6   9
ATOM      7  N   UNL     1      14.765  -0.510  -4.567  0.00  0.00    -0.312 N 
ATOM      8  H   UNL     1      15.438  -1.243  -4.375  0.00  0.00    +0.149 HD
ATOM      9  C   UNL     1      13.591  -0.453  -3.847  0.00  0.00    +0.215 C 
ATOM     10  O   UNL     1      12.755   0.430  -3.981  0.00  0.00    -0.276 OA
BRANCH   7  11
ATOM     11  C   UNL     1      15.083   0.455  -5.610  0.00  0.00    +0.145 C 
BRANCH  11  12
ATOM     12  C   UNL     1      16.370   1.225  -5.305  0.00  0.00    +0.250 C 
BRANCH  12  13
ATOM     13  O   UNL     1      16.264   1.947  -4.067  0.00  0.00    -0.463 OA
BRANCH  13  15
ATOM     14  C   UNL     1      15.503   3.753  -2.784  0.00  0.00    +0.136 C 
ATOM     15  C   UNL     1      15.591   3.127  -4.142  0.00  0.00    +0.304 C 
ATOM     16  O   UNL     1      15.141   3.623  -5.165  0.00  0.00    -0.251 OA
ENDBRANCH  13  15
ENDBRANCH  12  13
ENDBRANCH  11  12
ENDBRANCH   7  11
ENDBRANCH   6   9
ENDBRANCH   5   6
ENDBRANCH   1   5
BRANCH   3  17
ATOM     17  C   UNL     1      13.208  -6.327  -1.816  0.00  0.00    +0.209 C 
BRANCH  17  18
ATOM     18  C   UNL     1      13.700  -7.784  -2.070  0.00  0.00    +0.034 C 
ATOM     19  C   UNL     1      15.239  -7.862  -2.118  0.00  0.00    +0.017 C 
ATOM     20  C   UNL     1      13.134  -8.328  -3.400  0.00  0.00    +0.017 C 
BRANCH  18  21
ATOM     21  C   UNL     1      13.161  -8.724  -0.954  0.00  0.00    +0.241 C 
BRANCH  21  22
ATOM     22  O   UNL     1      13.595  -8.328   0.359  0.00  0.00    -0.464 OA
BRANCH  22  23
ATOM     23  C   UNL     1      14.703  -8.968   0.839  0.00  0.00    +0.313 C 
ATOM     24  O   UNL     1      15.302  -9.854   0.243  0.00  0.00    -0.250 OA
BRANCH  23  25
ATOM     25  C   UNL     1      15.071  -8.469   2.235  0.00  0.00    +0.059 C 
ATOM     26  C   UNL     1      15.075  -6.935   2.302  0.00  0.00    +0.022 C 
ATOM     27  C   UNL     1      16.480  -8.974   2.583  0.00  0.00    +0.022 C 
ATOM     28  C   UNL     1      14.050  -9.040   3.224  0.00  0.00    +0.022 C 
ENDBRANCH  23  25
ENDBRANCH  22  23
ENDBRANCH  21  22
ENDBRANCH  18  21
ENDBRANCH  17  18
BRANCH  17  29
ATOM     29  O   UNL     1      13.626  -5.811  -0.546  0.00  0.00    -0.382 OA
ATOM     30  H   UNL     1      13.256  -6.404   0.133  0.00  0.00    +0.210 HD
ENDBRANCH  17  29
ENDBRANCH   3  17
TORSDOF 14
