REMARK  Name = 
REMARK  5 active torsions:
REMARK  status: ('A' for Active; 'I' for Inactive)
REMARK    1  A    between atoms: O_1  and  C_2
REMARK    2  A    between atoms: C_2  and  C_3
REMARK    3  A    between atoms: C_6  and  O_8
REMARK    4  A    between atoms: C_9  and  O_11
REMARK    5  A    between atoms: C_12  and  O_14
REMARK                            x       y       z     vdW  Elec       q    Type
REMARK                         _______ _______ _______ _____ _____    ______ ____
ROOT
ATOM      1  C   UNL     1       3.079   1.361   0.482  0.00  0.00    +0.178 C 
ATOM      2  C   UNL     1       2.406   1.798   1.789  0.00  0.00    +0.179 C 
ATOM      3  C   UNL     1       2.365   3.325   1.708  0.00  0.00    +0.201 C 
ATOM      4  C   UNL     1       2.907   3.634   0.308  0.00  0.00    +0.279 C 
ATOM      5  O   UNL     1       2.810   2.431  -0.451  0.00  0.00    -0.341 OA
ENDROOT
BRANCH   2   6
ATOM      6  O   UNL     1       1.051   1.310   1.829  0.00  0.00    -0.386 OA
ATOM      7  H   UNL     1       0.678   1.374   0.932  0.00  0.00    +0.210 HD
ENDBRANCH   2   6
BRANCH   3   8
ATOM      8  O   UNL     1       3.177   3.929   2.716  0.00  0.00    -0.384 OA
ATOM      9  H   UNL     1       3.054   4.893   2.633  0.00  0.00    +0.210 HD
ENDBRANCH   3   8
BRANCH   4  10
ATOM     10  O   UNL     1       2.193   4.675  -0.328  0.00  0.00    -0.365 OA
ATOM     11  H   UNL     1       1.298   4.329  -0.479  0.00  0.00    +0.213 HD
ENDBRANCH   4  10
BRANCH   1  12
ATOM     12  C   UNL     1       4.594   1.155   0.617  0.00  0.00    +0.190 C 
BRANCH  12  13
ATOM     13  O   UNL     1       4.878   0.046   1.457  0.00  0.00    -0.392 OA
ATOM     14  H   UNL     1       5.847  -0.030   1.515  0.00  0.00    +0.210 HD
ENDBRANCH  12  13
ENDBRANCH   1  12
TORSDOF 5
