REMARK  Name = 
REMARK  13 active torsions:
REMARK  status: ('A' for Active; 'I' for Inactive)
REMARK    1  A    between atoms: C_1  and  C_2
REMARK    2  A    between atoms: C_2  and  C_3
REMARK    3  A    between atoms: C_3  and  C_4
REMARK    4  A    between atoms: C_4  and  C_5
REMARK    5  A    between atoms: C_5  and  C_6
REMARK    6  A    between atoms: C_6  and  C_7
REMARK    7  A    between atoms: C_7  and  C_8
REMARK    8  A    between atoms: C_9  and  C_10
REMARK    9  A    between atoms: C_10  and  S_12
REMARK   10  A    between atoms: S_12  and  C_13
REMARK   11  A    between atoms: C_13  and  C_14
REMARK   12  A    between atoms: C_14  and  N_15
REMARK   13  A    between atoms: C_16  and  C_17
REMARK                            x       y       z     vdW  Elec       q    Type
REMARK                         _______ _______ _______ _____ _____    ______ ____
ROOT
ATOM      1  C   UNL     1       8.476   6.194   3.407  0.00  0.00    +0.212 C 
ATOM      2  O   UNL     1       7.298   6.213   3.730  0.00  0.00    -0.280 OA
ENDROOT
BRANCH   1   4
ATOM      3  C   UNL     1       8.530   3.970   2.268  0.00  0.00    -0.023 C 
ATOM      4  C   UNL     1       9.170   5.035   2.780  0.00  0.00    +0.054 C 
BRANCH   3   5
ATOM      5  C   UNL     1       7.038   3.814   2.208  0.00  0.00    +0.027 C 
BRANCH   5   6
ATOM      6  C   UNL     1       6.580   2.548   1.481  0.00  0.00    +0.004 C 
BRANCH   6   7
ATOM      7  C   UNL     1       5.051   2.501   1.455  0.00  0.00    +0.000 C 
BRANCH   7   8
ATOM      8  C   UNL     1       4.524   1.250   0.759  0.00  0.00    +0.000 C 
BRANCH   8   9
ATOM      9  C   UNL     1       2.994   1.246   0.753  0.00  0.00    -0.000 C 
BRANCH   9  11
ATOM     10  C   UNL     1       0.921   0.002   0.058  0.00  0.00    +0.004 C 
ATOM     11  C   UNL     1       2.441   0.003   0.061  0.00  0.00    -0.003 C 
ENDBRANCH   9  11
ENDBRANCH   8   9
ENDBRANCH   7   8
ENDBRANCH   6   7
ENDBRANCH   5   6
ENDBRANCH   3   5
ENDBRANCH   1   4
BRANCH   1  12
ATOM     12  S   UNL     1       9.539   7.559   3.705  0.00  0.00    -0.082 S 
BRANCH  12  13
ATOM     13  C   UNL     1       8.735   8.218   5.203  0.00  0.00    +0.096 C 
BRANCH  13  14
ATOM     14  C   UNL     1       8.852   7.232   6.366  0.00  0.00    +0.115 C 
BRANCH  14  15
ATOM     15  N   UNL     1       8.231   7.724   7.582  0.00  0.00    -0.315 N 
ATOM     16  H   UNL     1       7.252   7.521   7.735  0.00  0.00    +0.149 HD
ATOM     17  C   UNL     1       8.933   8.459   8.507  0.00  0.00    +0.210 C 
ATOM     18  O   UNL     1      10.104   8.795   8.359  0.00  0.00    -0.276 OA
ATOM     19  C   UNL     1       8.150   8.808   9.743  0.00  0.00    +0.109 C 
ENDBRANCH  14  15
ENDBRANCH  13  14
ENDBRANCH  12  13
ENDBRANCH   1  12
TORSDOF 11
