REMARK  Name = 
REMARK  16 active torsions:
REMARK  status: ('A' for Active; 'I' for Inactive)
REMARK    1  A    between atoms: N_1  and  C_2
REMARK    2  A    between atoms: C_2  and  C_4
REMARK    3  A    between atoms: C_2  and  C_30
REMARK    4  A    between atoms: C_4  and  C_5
REMARK    5  A    between atoms: C_5  and  C_6
REMARK    6  A    between atoms: N_8  and  C_9
REMARK    7  A    between atoms: C_9  and  C_11
REMARK    8  A    between atoms: C_9  and  C_23
REMARK    9  A    between atoms: C_11  and  S_12
REMARK   10  A    between atoms: S_12  and  C_13
REMARK   11  A    between atoms: C_13  and  C_14
REMARK   12  A    between atoms: C_17  and  N_20
REMARK   13  A    between atoms: N_25  and  CA_26
REMARK   14  A    between atoms: CA_26  and  C_27
REMARK   15  A    between atoms: C_27  and  O_28
REMARK   16  A    between atoms: C_30  and  O_31
REMARK                            x       y       z     vdW  Elec       q    Type
REMARK                         _______ _______ _______ _____ _____    ______ ____
ROOT
ATOM      1  C   UNK A   1       2.940  -2.662  -5.769  0.00  0.00    +0.169 C 
ENDROOT
BRANCH   1   2
ATOM      2  C   UNK A   1       2.568  -3.989  -6.473  0.00  0.00    +0.235 C 
ATOM      3  N   GLY A   2       1.218  -4.285  -6.549  0.00  0.00    -0.303 N 
ATOM      4  H   GLY A   2       0.564  -3.683  -6.057  0.00  0.00    +0.149 HD
ATOM      5  O   UNK A   1       3.429  -4.756  -6.902  0.00  0.00    -0.274 OA
BRANCH   3   6
ATOM      6  CA  GLY A   2       0.794  -5.541  -7.174  0.00  0.00    +0.224 C 
BRANCH   6   7
ATOM      7  C   GLY A   2      -0.579  -5.725  -7.832  0.00  0.00    +0.322 C 
ATOM      8  OXT GLY A   2      -0.851  -6.695  -8.536  0.00  0.00    -0.249 OA
BRANCH   7   9
ATOM      9  O   GLY A   2      -1.526  -4.839  -7.483  0.00  0.00    -0.480 OA
ATOM     10  H   GLY A   2      -1.119  -4.028  -7.116  0.00  0.00    +0.295 HD
ENDBRANCH   7   9
ENDBRANCH   6   7
ENDBRANCH   3   6
ENDBRANCH   1   2
BRANCH   1  12
ATOM     11  C   UNK A   1       1.415  -0.718  -6.127  0.00  0.00    +0.214 C 
ATOM     12  N   UNK A   1       2.459  -1.502  -6.540  0.00  0.00    -0.303 N 
ATOM     13  H   UNK A   1       3.016  -1.217  -7.337  0.00  0.00    +0.149 HD
ATOM     14  O   UNK A   1       0.755  -0.955  -5.117  0.00  0.00    -0.276 OA
BRANCH  11  15
ATOM     15  C   UNK A   1       1.093   0.477  -7.011  0.00  0.00    +0.098 C 
BRANCH  15  16
ATOM     16  C   UNK A   1       0.295   0.180  -8.289  0.00  0.00    +0.039 C 
BRANCH  16  17
ATOM     17  C   UNK A   1      -1.099  -0.436  -8.102  0.00  0.00    +0.161 C 
BRANCH  17  18
ATOM     18  N   UNK A   1      -2.011   0.298  -7.200  0.00  0.00    -0.318 NA
ATOM     19  H   UNK A   1      -1.496   0.945  -6.602  0.00  0.00    +0.119 HD
ATOM     20  H   UNK A   1      -2.595   0.910  -7.783  0.00  0.00    +0.119 HD
ENDBRANCH  17  18
BRANCH  17  21
ATOM     21  C   UNK A   1      -0.924  -1.855  -7.621  0.00  0.00    +0.322 C 
ATOM     22  O   UNK A   1      -0.279  -2.703  -8.218  0.00  0.00    -0.249 OA
BRANCH  21  23
ATOM     23  O   UNK A   1      -1.477  -2.123  -6.417  0.00  0.00    -0.480 OA
ATOM     24  H   UNK A   1      -1.888  -1.276  -6.104  0.00  0.00    +0.295 HD
ENDBRANCH  21  23
ENDBRANCH  17  21
ENDBRANCH  16  17
ENDBRANCH  15  16
ENDBRANCH  11  15
ENDBRANCH   1  12
BRANCH   1  25
ATOM     25  C   UNK A   1       4.471  -2.611  -5.570  0.00  0.00    +0.101 C 
BRANCH  25  26
ATOM     26  S   UNK A   1       5.100  -1.074  -4.791  0.00  0.00    -0.154 S 
BRANCH  26  27
ATOM     27  C   UNK A   1       4.256  -1.175  -3.179  0.00  0.00    +0.104 C 
BRANCH  27  28
ATOM     28  C   UNK A   1       4.530   0.040  -2.325  0.00  0.00    -0.037 A 
ATOM     29  C   UNK A   1       5.194  -0.086  -1.097  0.00  0.00    +0.011 A 
ATOM     30  C   UNK A   1       5.421   1.037  -0.296  0.00  0.00    +0.084 A 
ATOM     31  C   UNK A   1       4.983   2.295  -0.725  0.00  0.00    +0.273 A 
ATOM     32  C   UNK A   1       4.319   2.438  -1.949  0.00  0.00    +0.084 A 
ATOM     33  C   UNK A   1       4.090   1.311  -2.738  0.00  0.00    +0.011 A 
BRANCH  31  34
ATOM     34  N   UNK A   1       5.223   3.470   0.105  0.00  0.00    +0.080 N 
ATOM     35  O   UNK A   1       5.836   3.314   1.175  0.00  0.00    +0.041 OA
ATOM     36  O   UNK A   1       4.823   4.573  -0.309  0.00  0.00    -0.576 OA
ENDBRANCH  31  34
ENDBRANCH  27  28
ENDBRANCH  26  27
ENDBRANCH  25  26
ENDBRANCH   1  25
TORSDOF 16
