REMARK  Name = 
REMARK  6 active torsions:
REMARK  status: ('A' for Active; 'I' for Inactive)
REMARK    1  A    between atoms: N_1  and  S_2
REMARK    2  A    between atoms: S_2  and  C_5
REMARK    3  A    between atoms: N_13  and  C_23
REMARK    4  A    between atoms: C_14  and  C_15
REMARK    5  A    between atoms: C_15  and  N_16
REMARK    6  A    between atoms: C_25  and  O_26
REMARK                            x       y       z     vdW  Elec       q    Type
REMARK                         _______ _______ _______ _____ _____    ______ ____
ROOT
ATOM      1  C   UNL     1       3.284  -1.366  -0.503  0.00  0.00    +0.145 A 
ATOM      2  S   UNL     1       4.463  -1.129  -1.732  0.00  0.00    -0.048 S 
ATOM      3  C   UNL     1       4.479  -2.779  -2.087  0.00  0.00    +0.155 A 
ATOM      4  S   UNL     1       5.435  -3.414  -3.402  0.00  0.00    +0.086 S 
ATOM      5  N   UNL     1       5.258  -5.101  -3.245  0.00  0.00    -0.174 N 
ATOM      6  C   UNL     1       4.239  -5.698  -2.388  0.00  0.00    +0.049 C 
ATOM      7  C   UNL     1       3.570  -4.929  -1.491  0.00  0.00    +0.032 C 
ATOM      8  O   UNL     1       4.759  -2.976  -4.607  0.00  0.00    -0.149 OA
ATOM      9  O   UNL     1       6.803  -3.048  -3.102  0.00  0.00    -0.149 OA
ATOM     10  C   UNL     1       3.666  -3.521  -1.282  0.00  0.00    +0.012 A 
ATOM     11  C   UNL     1       2.970  -2.708  -0.345  0.00  0.00    +0.046 A 
ENDROOT
BRANCH   5  12
ATOM     12  C   UNL     1       5.909  -5.866  -4.263  0.00  0.00    +0.060 A 
ATOM     13  C   UNL     1       7.212  -6.318  -4.040  0.00  0.00    +0.025 A 
ATOM     14  C   UNL     1       7.851  -7.103  -5.000  0.00  0.00    +0.005 A 
ATOM     15  C   UNL     1       7.194  -7.423  -6.188  0.00  0.00    +0.045 A 
ATOM     16  C   UNL     1       5.926  -6.905  -6.431  0.00  0.00    +0.119 A 
ATOM     17  C   UNL     1       5.276  -6.124  -5.482  0.00  0.00    +0.070 A 
BRANCH  16  18
ATOM     18  O   UNL     1       5.348  -7.186  -7.634  0.00  0.00    -0.507 OA
ATOM     19  H   UNL     1       4.691  -6.497  -7.829  0.00  0.00    +0.292 HD
ENDBRANCH  16  18
ENDBRANCH   5  12
BRANCH   1  20
ATOM     20  S   UNL     1       2.693   0.103   0.295  0.00  0.00    +0.062 S 
ATOM     21  O   UNL     1       2.227   0.975  -0.758  0.00  0.00    -0.153 OA
ATOM     22  O   UNL     1       1.837  -0.343   1.366  0.00  0.00    -0.153 OA
BRANCH  20  23
ATOM     23  N   UNL     1       4.008   0.879   1.001  0.00  0.00    -0.203 NA
ATOM     24  H   UNL     1       4.573   1.333   0.282  0.00  0.00    +0.144 HD
ATOM     25  H   UNL     1       3.665   1.553   1.685  0.00  0.00    +0.144 HD
ENDBRANCH  20  23
ENDBRANCH   1  20
BRANCH   6  26
ATOM     26  C   UNL     1       3.947  -7.205  -2.431  0.00  0.00    +0.137 C 
BRANCH  26  27
ATOM     27  N   UNL     1       2.507  -7.494  -2.570  0.00  0.00    -0.293 NA
ATOM     28  C   UNL     1       2.146  -8.870  -2.164  0.00  0.00    +0.113 C 
ATOM     29  C   UNL     1       2.428  -9.957  -3.214  0.00  0.00    +0.175 C 
ATOM     30  O   UNL     1       1.830  -9.633  -4.473  0.00  0.00    -0.377 OA
ATOM     31  C   UNL     1       2.318  -8.372  -4.943  0.00  0.00    +0.175 C 
ATOM     32  C   UNL     1       2.000  -7.251  -3.939  0.00  0.00    +0.113 C 
ENDBRANCH  26  27
ENDBRANCH   6  26
TORSDOF 6
