REMARK  Name = 
REMARK  11 active torsions:
REMARK  status: ('A' for Active; 'I' for Inactive)
REMARK    1  A    between atoms: N_1  and  CA_2
REMARK    2  A    between atoms: CA_2  and  C_4
REMARK    3  A    between atoms: CA_2  and  C_29
REMARK    4  A    between atoms: C_4  and  C_5
REMARK    5  A    between atoms: C_5  and  SE_6
REMARK    6  A    between atoms: SE_6  and  C_7
REMARK    7  A    between atoms: C_7  and  C_8
REMARK    8  A    between atoms: C_11  and  N_19
REMARK    9  A    between atoms: C_13  and  O_15
REMARK   10  A    between atoms: C_16  and  O_18
REMARK   11  A    between atoms: C_29  and  O_30
REMARK                            x       y       z     vdW  Elec       q    Type
REMARK                         _______ _______ _______ _____ _____    ______ ____
ROOT
ATOM      1  C   UNL     1       2.928   3.395  -6.097  0.00  0.00    +0.000 C 
ATOM      2  C   UNL     1       4.452   3.558  -5.979  0.00  0.00    +0.000 C 
ATOM      3  C   UNL     1       4.666   5.064  -6.108  0.00  0.00    +0.000 C 
ATOM      4  C   UNL     1       3.240   5.597  -6.276  0.00  0.00    +0.000 C 
ATOM      5  O   UNL     1       2.367   4.637  -5.727  0.00  0.00    +0.000 OA
ENDROOT
BRANCH   4   6
ATOM      6  N   UNL     1       3.053   6.893  -5.620  0.00  0.00    +0.000 N 
ATOM      7  C   UNL     1       2.630   8.037  -6.173  0.00  0.00    +0.000 A 
ATOM      8  N   UNL     1       2.283   8.259  -7.463  0.00  0.00    +0.000 NA
ATOM      9  C   UNL     1       1.856   9.512  -7.804  0.00  0.00    +0.000 A 
ATOM     10  N   UNL     1       1.784  10.505  -6.860  0.00  0.00    +0.000 NA
ATOM     11  C   UNL     1       2.133  10.278  -5.557  0.00  0.00    +0.000 A 
ATOM     12  N   UNL     1       2.041  11.313  -4.599  0.00  0.00    +0.000 N 
ATOM     13  H   UNL     1       2.299  11.148  -3.615  0.00  0.00    +0.000 HD
ATOM     14  H   UNL     1       1.705  12.247  -4.876  0.00  0.00    +0.000 HD
ATOM     15  C   UNL     1       2.566   9.001  -5.222  0.00  0.00    +0.000 A 
ATOM     16  N   UNL     1       2.952   8.502  -4.032  0.00  0.00    +0.000 NA
ATOM     17  C   UNL     1       3.241   7.201  -4.310  0.00  0.00    +0.000 A 
ENDBRANCH   4   6
BRANCH   2  18
ATOM     18  O   UNL     1       4.897   3.114  -4.717  0.00  0.00    +0.000 OA
ATOM     19  H   UNL     1       4.329   3.529  -4.014  0.00  0.00    +0.000 HD
ENDBRANCH   2  18
BRANCH   3  20
ATOM     20  O   UNL     1       5.474   5.386  -7.208  0.00  0.00    +0.000 OA
ATOM     21  H   UNL     1       5.675   6.355  -7.132  0.00  0.00    +0.000 HD
ENDBRANCH   3  20
BRANCH   1  22
ATOM     22  C   UNL     1       2.451   2.968  -7.507  0.00  0.00    +0.000 C 
BRANCH  22  23
ATOM     23 SE   UNL     1       3.193   1.246  -8.100  0.00  0.00    +0.000 Se
BRANCH  23  24
ATOM     24  C   UNL     1       2.422   0.159  -6.668  0.00  0.00    +0.000 C 
BRANCH  24  25
ATOM     25  C   UNL     1       2.874  -1.291  -6.848  0.00  0.00    +0.000 C 
BRANCH  25  26
ATOM     26  CA  UNL     1       2.302  -2.249  -5.777  0.00  0.00    +0.000 C 
BRANCH  26  27
ATOM     27  N   UNL     1       2.722  -1.887  -4.420  0.00  0.00    +0.000 NA
ATOM     28  H1  UNL     1       3.761  -1.779  -4.368  0.00  0.00    +0.000 HD
ATOM     29  H2  UNL     1       2.268  -0.995  -4.118  0.00  0.00    +0.000 HD
ENDBRANCH  26  27
BRANCH  26  30
ATOM     30  C   UNL     1       2.736  -3.666  -6.067  0.00  0.00    +0.000 C 
ATOM     31  OXT UNL     1       1.895  -4.517  -6.310  0.00  0.00    +0.000 OA
BRANCH  30  32
ATOM     32  O   UNL     1       4.043  -4.017  -6.061  0.00  0.00    +0.000 OA
ATOM     33  H   UNL     1       4.747  -3.384  -5.869  0.00  0.00    +0.000 HD
ENDBRANCH  30  32
ENDBRANCH  26  30
ENDBRANCH  25  26
ENDBRANCH  24  25
ENDBRANCH  23  24
ENDBRANCH  22  23
ENDBRANCH   1  22
TORSDOF 11
