REMARK  Name = 
REMARK  15 active torsions:
REMARK  status: ('A' for Active; 'I' for Inactive)
REMARK    1  A    between atoms: O_1  and  C_2
REMARK    2  A    between atoms: C_2  and  C_4
REMARK    3  A    between atoms: C_4  and  C_5
REMARK    4  A    between atoms: C_5  and  C_6
REMARK    5  A    between atoms: C_6  and  C_8
REMARK    6  A    between atoms: C_6  and  N_16
REMARK    7  A    between atoms: C_8  and  C_9
REMARK    8  A    between atoms: C_9  and  C_10
REMARK    9  A    between atoms: C_17  and  C_19
REMARK   10  A    between atoms: C_19  and  C_20
REMARK   11  A    between atoms: C_20  and  C_21
REMARK   12  A    between atoms: C_21  and  C_22
REMARK   13  A    between atoms: C_22  and  C_23
REMARK   14  A    between atoms: C_23  and  C_24
REMARK   15  A    between atoms: C_24  and  C_25
REMARK                            x       y       z     vdW  Elec       q    Type
REMARK                         _______ _______ _______ _____ _____    ______ ____
ROOT
ATOM      1  N   UNL     1       6.967   2.213  -0.535  0.00  0.00    -0.312 N 
ATOM      2  H   UNL     1       7.300   1.258  -0.551  0.00  0.00    +0.149 HD
ATOM      3  C   UNL     1       7.872   3.247  -0.594  0.00  0.00    +0.213 C 
ATOM      4  O   UNL     1       7.543   4.430  -0.598  0.00  0.00    -0.276 OA
ENDROOT
BRANCH   1   5
ATOM      5  C   UNL     1       5.524   2.445  -0.465  0.00  0.00    +0.074 C 
BRANCH   5   6
ATOM      6  C   UNL     1       4.977   1.978   0.896  0.00  0.00    +0.033 C 
BRANCH   6   7
ATOM      7  C   UNL     1       5.669   2.653   2.085  0.00  0.00    +0.122 C 
BRANCH   7   8
ATOM      8  C   UNL     1       5.058   2.226   3.398  0.00  0.00    +0.305 C 
ATOM      9  O   UNL     1       4.140   1.431   3.523  0.00  0.00    -0.251 OA
BRANCH   8  10
ATOM     10  O   UNL     1       5.655   2.815   4.459  0.00  0.00    -0.481 OA
ATOM     11  H   UNL     1       6.371   3.433   4.215  0.00  0.00    +0.295 HD
ENDBRANCH   8  10
ENDBRANCH   7   8
ENDBRANCH   6   7
ENDBRANCH   5   6
BRANCH   5  12
ATOM     12  C   UNL     1       4.857   1.744  -1.662  0.00  0.00    +0.027 C 
BRANCH  12  13
ATOM     13  C   UNL     1       3.342   1.953  -1.735  0.00  0.00    +0.037 C 
BRANCH  13  14
ATOM     14  C   UNL     1       2.745   1.294  -2.955  0.00  0.00    -0.047 A 
ATOM     15  C   UNL     1       2.598   2.006  -4.152  0.00  0.00    +0.003 A 
ATOM     16  C   UNL     1       2.041   1.392  -5.275  0.00  0.00    +0.000 A 
ATOM     17  C   UNL     1       1.633   0.061  -5.214  0.00  0.00    +0.000 A 
ATOM     18  C   UNL     1       1.784  -0.659  -4.031  0.00  0.00    +0.000 A 
ATOM     19  C   UNL     1       2.340  -0.047  -2.907  0.00  0.00    +0.003 A 
ENDBRANCH  13  14
ENDBRANCH  12  13
ENDBRANCH   5  12
ENDBRANCH   1   5
BRANCH   3  20
ATOM     20  C   UNL     1       9.323   2.819  -0.588  0.00  0.00    +0.096 C 
BRANCH  20  21
ATOM     21  C   UNL     1      10.008   3.412   0.642  0.00  0.00    +0.009 C 
BRANCH  21  22
ATOM     22  C   UNL     1      11.492   3.064   0.702  0.00  0.00    +0.000 C 
BRANCH  22  23
ATOM     23  C   UNL     1      12.142   3.677   1.945  0.00  0.00    +0.000 C 
BRANCH  23  24
ATOM     24  C   UNL     1      13.630   3.338   2.011  0.00  0.00    +0.005 C 
BRANCH  24  25
ATOM     25  C   UNL     1      14.289   3.936   3.256  0.00  0.00    +0.035 C 
BRANCH  25  26
ATOM     26  C   UNL     1      15.763   3.617   3.292  0.00  0.00    -0.047 A 
ATOM     27  C   UNL     1      16.221   2.435   3.890  0.00  0.00    +0.003 A 
ATOM     28  C   UNL     1      17.581   2.121   3.881  0.00  0.00    +0.000 A 
ATOM     29  C   UNL     1      18.493   2.981   3.272  0.00  0.00    +0.000 A 
ATOM     30  C   UNL     1      18.047   4.157   2.673  0.00  0.00    +0.000 A 
ATOM     31  C   UNL     1      16.688   4.474   2.681  0.00  0.00    +0.003 A 
ENDBRANCH  25  26
ENDBRANCH  24  25
ENDBRANCH  23  24
ENDBRANCH  22  23
ENDBRANCH  21  22
ENDBRANCH  20  21
ENDBRANCH   3  20
TORSDOF 15
