REMARK  Name = 
REMARK  4 active torsions:
REMARK  status: ('A' for Active; 'I' for Inactive)
REMARK    1  A    between atoms: C_2  and  C_3
REMARK    2  A    between atoms: C_2  and  C_4
REMARK    3  A    between atoms: C_2  and  C_11
REMARK    4  A    between atoms: C_4  and  C_5
REMARK                            x       y       z     vdW  Elec       q    Type
REMARK                         _______ _______ _______ _____ _____    ______ ____
ROOT
ATOM      1  C   UNL     1       2.250  -2.495  -0.336  0.00  0.00    +0.051 A 
ATOM      2  N   UNL     1       0.938  -2.940  -0.304  0.00  0.00    -0.230 NA
ATOM      3  C   UNL     1       0.880  -4.168   0.147  0.00  0.00    +0.156 A 
ATOM      4  N   UNL     1      -0.271  -4.845   0.282  0.00  0.00    -0.338 N 
ATOM      5  H   UNL     1      -1.117  -4.288   0.270  0.00  0.00    +0.144 HD
ATOM      6  H   UNL     1      -0.292  -5.642   0.904  0.00  0.00    +0.144 HD
ATOM      7  S   UNL     1       2.386  -4.864   0.579  0.00  0.00    -0.061 S 
ATOM      8  C   UNL     1       3.177  -3.419   0.108  0.00  0.00    +0.071 A 
ENDROOT
BRANCH   1   9
ATOM      9  C   UNL     1       2.541  -1.137  -0.894  0.00  0.00    +0.066 C 
BRANCH   9  10
ATOM     10  C   UNL     1       2.032   0.036  -0.046  0.00  0.00    +0.055 C 
ATOM     11  C   UNL     1       0.509   0.103   0.071  0.00  0.00    +0.015 C 
BRANCH  10  12
ATOM     12  C   UNL     1       2.504   1.347  -0.648  0.00  0.00    +0.226 C 
ATOM     13  O   UNL     1       3.263   1.440  -1.606  0.00  0.00    -0.301 OA
ENDBRANCH  10  12
ENDBRANCH   9  10
ENDBRANCH   1   9
TORSDOF 3
