REMARK  Name = 
REMARK  6 active torsions:
REMARK  status: ('A' for Active; 'I' for Inactive)
REMARK    1  A    between atoms: O_1  and  C_2
REMARK    2  A    between atoms: C_5  and  C_16
REMARK    3  A    between atoms: C_7  and  O_9
REMARK    4  A    between atoms: C_10  and  O_12
REMARK    5  A    between atoms: C_13  and  O_15
REMARK    6  A    between atoms: C_16  and  O_17
REMARK                            x       y       z     vdW  Elec       q    Type
REMARK                         _______ _______ _______ _____ _____    ______ ____
ROOT
ATOM      1  C   UNL     1       2.431  -0.126   0.034  0.00  0.00    +0.280 C 
ATOM      2  C   UNL     1       2.828   1.026  -0.928  0.00  0.00    +0.201 C 
ATOM      3  C   UNL     1       2.355   0.685  -2.352  0.00  0.00    +0.179 C 
ATOM      4  C   UNL     1       2.871  -0.704  -2.770  0.00  0.00    +0.185 C 
ATOM      5  C   UNL     1       2.384  -1.713  -1.724  0.00  0.00    +0.260 C 
ATOM      6  O   UNL     1       2.895  -1.391  -0.422  0.00  0.00    -0.332 OA
ENDROOT
BRANCH   1   7
ATOM      7  O   UNL     1       2.951   0.069   1.340  0.00  0.00    -0.365 OA
ATOM      8  H   UNL     1       3.643   0.751   1.277  0.00  0.00    +0.213 HD
ENDBRANCH   1   7
BRANCH   2   9
ATOM      9  O   UNL     1       2.255   2.250  -0.437  0.00  0.00    -0.384 OA
ATOM     10  H   UNL     1       1.556   2.530  -1.055  0.00  0.00    +0.210 HD
ENDBRANCH   2   9
BRANCH   3  11
ATOM     11  O   UNL     1       2.757   1.719  -3.259  0.00  0.00    -0.386 OA
ATOM     12  H   UNL     1       3.078   1.304  -4.081  0.00  0.00    +0.210 HD
ENDBRANCH   3  11
BRANCH   4  13
ATOM     13  O   UNL     1       4.305  -0.650  -2.829  0.00  0.00    -0.386 OA
ATOM     14  H   UNL     1       4.634  -1.488  -3.209  0.00  0.00    +0.210 HD
ENDBRANCH   4  13
BRANCH   5  15
ATOM     15  C   UNL     1       2.858  -3.114  -2.078  0.00  0.00    +0.337 C 
ATOM     16  O   UNL     1       2.675  -3.640  -3.166  0.00  0.00    -0.248 OA
BRANCH  15  17
ATOM     17  O   UNL     1       3.511  -3.713  -1.057  0.00  0.00    -0.479 OA
ATOM     18  H   UNL     1       3.564  -3.079  -0.302  0.00  0.00    +0.295 HD
ENDBRANCH  15  17
ENDBRANCH   5  15
TORSDOF 6
