REMARK  Name = 
REMARK  7 active torsions:
REMARK  status: ('A' for Active; 'I' for Inactive)
REMARK    1  A    between atoms: C_1  and  C_2
REMARK    2  A    between atoms: N_4  and  C_5
REMARK    3  A    between atoms: C_9  and  C_11
REMARK    4  A    between atoms: C_11  and  O_12
REMARK    5  A    between atoms: O_12  and  P_13
REMARK    6  A    between atoms: P_13  and  O_14
REMARK    7  A    between atoms: P_13  and  O_15
REMARK                            x       y       z     vdW  Elec       q    Type
REMARK                         _______ _______ _______ _____ _____    ______ ____
ROOT
ATOM      1  C   UNL     1       5.404   2.527  -0.307  0.00  0.00    +0.224 C 
ATOM      2  O   UNL     1       6.331   2.587   0.789  0.00  0.00    -0.351 OA
ATOM      3  C   UNL     1       6.725   3.960   0.982  0.00  0.00    +0.147 C 
ATOM      4  C   UNL     1       5.824   4.803   0.086  0.00  0.00    +0.038 C 
ATOM      5  C   UNL     1       4.679   3.863  -0.220  0.00  0.00    +0.057 C 
ENDROOT
BRANCH   1  14
ATOM      6  C   UNL     1       1.105   0.060   0.361  0.00  0.00    +0.051 C 
ATOM      7  C   UNL     1       2.581   0.134   0.133  0.00  0.00    +0.030 A 
ATOM      8  C   UNL     1       3.312  -1.141  -0.053  0.00  0.00    +0.257 A 
ATOM      9  O   UNL     1       2.730  -2.220  -0.008  0.00  0.00    -0.267 OA
ATOM     10  N   UNL     1       4.646  -1.041  -0.277  0.00  0.00    -0.275 N 
ATOM     11  H   UNL     1       5.141  -1.898  -0.447  0.00  0.00    +0.173 HD
ATOM     12  C   UNL     1       5.351   0.117  -0.430  0.00  0.00    +0.331 A 
ATOM     13  O   UNL     1       6.528   0.062  -0.778  0.00  0.00    -0.246 OA
ATOM     14  N   UNL     1       4.640   1.297  -0.196  0.00  0.00    -0.274 N 
ATOM     15  C   UNL     1       3.281   1.268   0.066  0.00  0.00    +0.101 A 
ENDBRANCH   1  14
BRANCH   3  16
ATOM     16  C   UNL     1       6.569   4.286   2.463  0.00  0.00    +0.204 C 
BRANCH  16  17
ATOM     17  O   UNL     1       7.454   3.463   3.230  0.00  0.00    -0.284 OA
BRANCH  17  18
ATOM     18  P   UNL     1       7.272   3.774   4.922  0.00  0.00    +0.472 P 
ATOM     19  O   UNL     1       7.109   4.053   6.436  0.00  0.00    -0.228 OA
BRANCH  18  20
ATOM     20  O   UNL     1       8.639   4.643   4.694  0.00  0.00    -0.303 OA
ATOM     21  H   UNL     1       9.262   4.053   4.229  0.00  0.00    +0.222 HD
ENDBRANCH  18  20
BRANCH  18  22
ATOM     22  O   UNL     1       8.012   2.327   5.096  0.00  0.00    -0.303 OA
ATOM     23  H   UNL     1       7.479   1.630   4.670  0.00  0.00    +0.222 HD
ENDBRANCH  18  22
ENDBRANCH  17  18
ENDBRANCH  16  17
ENDBRANCH   3  16
TORSDOF 6
