REMARK  Name = 
REMARK  7 active torsions:
REMARK  status: ('A' for Active; 'I' for Inactive)
REMARK    1  A    between atoms: N_1  and  C_2
REMARK    2  A    between atoms: C_2  and  C_4
REMARK    3  A    between atoms: C_2  and  C_11
REMARK    4  A    between atoms: C_4  and  C_5
REMARK    5  A    between atoms: C_5  and  S_6
REMARK    6  A    between atoms: S_6  and  C_7
REMARK    7  A    between atoms: C_11  and  O_12
REMARK                            x       y       z     vdW  Elec       q    Type
REMARK                         _______ _______ _______ _____ _____    ______ ____
ROOT
ATOM      1  C   UNK     1       2.434   0.088  -0.004  0.00  0.00    +0.161 C 
ENDROOT
BRANCH   1   2
ATOM      2  N   UNK     1       2.883  -0.746  -1.167  0.00  0.00    -0.318 NA
ATOM      3  H   UNK     1       3.801  -1.149  -0.946  0.00  0.00    +0.119 HD
ATOM      4  H   UNK     1       2.267  -1.564  -1.218  0.00  0.00    +0.119 HD
ENDBRANCH   1   2
BRANCH   1   5
ATOM      5  C   UNK     1       2.916   1.534  -0.245  0.00  0.00    +0.322 C 
ATOM      6  O   UNK     1       2.763   2.468   0.526  0.00  0.00    -0.249 OA
BRANCH   5   7
ATOM      7  O   UNK     1       3.525   1.660  -1.451  0.00  0.00    -0.480 OA
ATOM      8  H   UNK     1       3.452   0.769  -1.878  0.00  0.00    +0.295 HD
ENDBRANCH   5   7
ENDBRANCH   1   5
BRANCH   1   9
ATOM      9  C   UNK     1       2.980  -0.511   1.298  0.00  0.00    +0.041 C 
BRANCH   9  10
ATOM     10  C   UNK     1       2.497   0.222   2.552  0.00  0.00    +0.080 C 
BRANCH  10  11
ATOM     11  S   UNK     1       3.116  -0.627   4.035  0.00  0.00    -0.052 S 
BRANCH  11  12
ATOM     12  C   UNK     1       2.508   0.517   5.277  0.00  0.00    +0.443 C 
ATOM     13  F   UNK     1       3.530   1.104   5.941  0.00  0.00    -0.160 F 
ATOM     14  F   UNK     1       1.748  -0.131   6.190  0.00  0.00    -0.160 F 
ATOM     15  F   UNK     1       1.746   1.503   4.751  0.00  0.00    -0.160 F 
ENDBRANCH  11  12
ENDBRANCH  10  11
ENDBRANCH   9  10
ENDBRANCH   1   9
TORSDOF 7
