REMARK  Name = 
REMARK  6 active torsions:
REMARK  status: ('A' for Active; 'I' for Inactive)
REMARK    1  A    between atoms: O_1  and  C_2
REMARK    2  A    between atoms: C_2  and  C_4
REMARK    3  A    between atoms: C_7  and  O_8
REMARK    4  A    between atoms: O_8  and  C_9
REMARK    5  A    between atoms: C_9  and  C_10
REMARK    6  A    between atoms: C_10  and  N_11
REMARK                            x       y       z     vdW  Elec       q    Type
REMARK                         _______ _______ _______ _____ _____    ______ ____
ROOT
ATOM      1  C   UNL     1       2.782  -1.192   1.038  0.00  0.00    +0.059 A 
ATOM      2  C   UNL     1       3.806  -0.612   1.798  0.00  0.00    +0.018 A 
ATOM      3  C   UNL     1       4.670  -1.427   2.547  0.00  0.00    +0.046 A 
ATOM      4  C   UNL     1       4.510  -2.817   2.551  0.00  0.00    +0.121 A 
ATOM      5  C   UNL     1       3.489  -3.384   1.783  0.00  0.00    +0.046 A 
ATOM      6  C   UNL     1       2.627  -2.579   1.035  0.00  0.00    +0.018 A 
ENDROOT
BRANCH   1   7
ATOM      7  C   UNL     1       1.799  -0.397   0.262  0.00  0.00    +0.337 C 
ATOM      8  O   UNL     1       0.641  -0.741   0.118  0.00  0.00    -0.245 OA
BRANCH   7   9
ATOM      9  O   UNL     1       2.323   0.706  -0.309  0.00  0.00    -0.477 OA
ATOM     10  H   UNL     1       3.294   0.759  -0.278  0.00  0.00    +0.295 HD
ENDBRANCH   7   9
ENDBRANCH   1   7
BRANCH   4  11
ATOM     11  O   UNL     1       5.381  -3.528   3.344  0.00  0.00    -0.490 OA
BRANCH  11  12
ATOM     12  C   UNL     1       5.127  -4.938   3.389  0.00  0.00    +0.250 C 
BRANCH  12  13
ATOM     13  C   UNL     1       6.088  -5.661   4.323  0.00  0.00    +0.163 C 
BRANCH  13  14
ATOM     14  N   UNL     1       5.824  -7.088   4.308  0.00  0.00    -0.334 N 
ATOM     15  C   UNL     1       4.932  -7.747   5.105  0.00  0.00    +0.199 A 
ATOM     16  N   UNL     1       4.867  -9.022   4.796  0.00  0.00    -0.244 NA
ATOM     17  C   UNL     1       5.752  -9.193   3.764  0.00  0.00    +0.130 A 
ATOM     18  C   UNL     1       6.356  -8.000   3.439  0.00  0.00    +0.107 A 
ENDBRANCH  13  14
ENDBRANCH  12  13
ENDBRANCH  11  12
ENDBRANCH   4  11
TORSDOF 6
