REMARK  Name = 
REMARK  6 active torsions:
REMARK  status: ('A' for Active; 'I' for Inactive)
REMARK    1  A    between atoms: CA_2  and  N_3
REMARK    2  A    between atoms: CA_2  and  C_4
REMARK    3  A    between atoms: CA_2  and  C_14
REMARK    4  A    between atoms: C_4  and  C_5
REMARK    5  A    between atoms: C_9  and  O_10
REMARK    6  A    between atoms: C_14  and  O_15
REMARK                            x       y       z     vdW  Elec       q    Type
REMARK                         _______ _______ _______ _____ _____    ______ ____
ROOT
ATOM      1  C   UNL     1       2.140   0.608  -2.480  0.00  0.00    -0.043 A 
ATOM      2  C   UNL     1       2.990   0.893  -3.562  0.00  0.00    +0.021 A 
ATOM      3  C   UNL     1       2.620   0.561  -4.872  0.00  0.00    +0.056 A 
ATOM      4  I   UNL     1       3.966   1.002  -6.415  0.00  0.00    -0.040 I 
ATOM      5  C   UNL     1       1.391  -0.053  -5.121  0.00  0.00    +0.143 A 
ATOM      6  C   UNL     1       0.526  -0.312  -4.053  0.00  0.00    +0.056 A 
ATOM      7  I   UNL     1      -1.323  -1.245  -4.350  0.00  0.00    -0.040 I 
ATOM      8  C   UNL     1       0.888   0.035  -2.749  0.00  0.00    +0.021 A 
ENDROOT
BRANCH   5   9
ATOM      9  O   UNL     1       1.048  -0.392  -6.403  0.00  0.00    -0.505 OA
ATOM     10  H   UNL     1       0.188  -0.847  -6.367  0.00  0.00    +0.292 HD
ENDBRANCH   5   9
BRANCH   1  11
ATOM     11  C   UNL     1       2.586   0.956  -1.073  0.00  0.00    +0.065 C 
BRANCH  11  12
ATOM     12  CA  UNL     1       2.095   0.039   0.068  0.00  0.00    +0.165 C 
BRANCH  12  13
ATOM     13  N   UNL     1       2.478   0.628   1.374  0.00  0.00    -0.318 NA
ATOM     14  H1  UNL     1       2.078   0.138   2.172  0.00  0.00    +0.119 HD
ATOM     15  H2  UNL     1       3.465   0.848   1.466  0.00  0.00    +0.119 HD
ENDBRANCH  12  13
BRANCH  12  16
ATOM     16  C   UNL     1       2.631  -1.399  -0.098  0.00  0.00    +0.322 C 
ATOM     17  OXT UNL     1       2.366  -2.139  -1.034  0.00  0.00    -0.249 OA
BRANCH  16  18
ATOM     18  O   UNL     1       3.428  -1.808   0.919  0.00  0.00    -0.480 OA
ATOM     19  H   UNL     1       3.510  -1.109   1.592  0.00  0.00    +0.295 HD
ENDBRANCH  16  18
ENDBRANCH  12  16
ENDBRANCH  11  12
ENDBRANCH   1  11
TORSDOF 6
