REMARK  Name = 
REMARK  7 active torsions:
REMARK  status: ('A' for Active; 'I' for Inactive)
REMARK    1  A    between atoms: C_1  and  C_2
REMARK    2  A    between atoms: C_5  and  C_7
REMARK    3  A    between atoms: C_10  and  C_12
REMARK    4  A    between atoms: C_12  and  O_13
REMARK    5  A    between atoms: C_14  and  O_16
REMARK    6  A    between atoms: C_17  and  O_19
REMARK    7  A    between atoms: C_20  and  O_22
REMARK                            x       y       z     vdW  Elec       q    Type
REMARK                         _______ _______ _______ _____ _____    ______ ____
ROOT
ATOM      1  C   UNL     1       5.856  -1.749   0.013  0.00  0.00    +0.237 C 
ATOM      2  C   UNL     1       6.100  -2.553  -1.287  0.00  0.00    +0.183 C 
ATOM      3  C   UNL     1       5.612  -4.003  -1.210  0.00  0.00    +0.177 C 
ATOM      4  C   UNL     1       6.049  -4.632   0.114  0.00  0.00    +0.176 C 
ATOM      5  C   UNL     1       5.484  -3.842   1.303  0.00  0.00    +0.176 C 
ATOM      6  O   UNL     1       5.817  -2.447   1.268  0.00  0.00    -0.356 OA
ENDROOT
BRANCH   1  10
ATOM      7  C   UNL     1       3.127   2.159   0.855  0.00  0.00    +0.111 C 
ATOM      8  C   UNL     1       3.476   0.869   0.239  0.00  0.00    +0.214 A 
ATOM      9  O   UNL     1       4.629   0.262   0.669  0.00  0.00    -0.422 OA
ATOM     10  C   UNL     1       4.648  -0.878  -0.093  0.00  0.00    +0.248 A 
ATOM     11  N   UNL     1       3.607  -0.969  -0.897  0.00  0.00    -0.110 NA
ATOM     12  N   UNL     1       2.854   0.173  -0.686  0.00  0.00    -0.113 NA
ENDBRANCH   1  10
BRANCH   2  13
ATOM     13  O   UNL     1       7.503  -2.525  -1.625  0.00  0.00    -0.386 OA
ATOM     14  H   UNL     1       7.921  -3.310  -1.213  0.00  0.00    +0.210 HD
ENDBRANCH   2  13
BRANCH   3  15
ATOM     15  O   UNL     1       4.199  -4.134  -1.360  0.00  0.00    -0.386 OA
ATOM     16  H   UNL     1       3.816  -3.295  -1.676  0.00  0.00    +0.210 HD
ENDBRANCH   3  15
BRANCH   4  17
ATOM     17  O   UNL     1       7.487  -4.630   0.164  0.00  0.00    -0.386 OA
ATOM     18  H   UNL     1       7.749  -4.996   1.038  0.00  0.00    +0.210 HD
ENDBRANCH   4  17
BRANCH   5  19
ATOM     19  C   UNL     1       3.979  -4.062   1.531  0.00  0.00    +0.190 C 
BRANCH  19  20
ATOM     20  O   UNL     1       3.605  -3.530   2.803  0.00  0.00    -0.392 OA
ATOM     21  H   UNL     1       3.863  -2.591   2.791  0.00  0.00    +0.210 HD
ENDBRANCH  19  20
ENDBRANCH   5  19
TORSDOF 6
