REMARK  Name = 
REMARK  6 active torsions:
REMARK  status: ('A' for Active; 'I' for Inactive)
REMARK    1  A    between atoms: O_1  and  C_2
REMARK    2  A    between atoms: C_2  and  C_3
REMARK    3  A    between atoms: C_6  and  S_8
REMARK    4  A    between atoms: C_9  and  O_11
REMARK    5  A    between atoms: C_12  and  O_14
REMARK    6  A    between atoms: C_15  and  S_17
REMARK                            x       y       z     vdW  Elec       q    Type
REMARK                         _______ _______ _______ _____ _____    ______ ____
ROOT
ATOM      1  C   UNL     1       2.916  -0.350   1.407  0.00  0.00    +0.160 C 
ATOM      2  C   UNL     1       4.450  -0.235   1.438  0.00  0.00    +0.105 C 
ATOM      3  C   UNL     1       5.117  -1.196   0.438  0.00  0.00    +0.161 C 
ATOM      4  C   UNL     1       4.591  -2.633   0.544  0.00  0.00    +0.183 C 
ATOM      5  C   UNL     1       3.049  -2.685   0.617  0.00  0.00    +0.204 C 
ATOM      6  O   UNL     1       2.442  -1.705   1.449  0.00  0.00    -0.357 OA
ENDROOT
BRANCH   2   7
ATOM      7  S   UNL     1       5.062  -0.464   3.163  0.00  0.00    -0.170 S 
ATOM      8  H   UNL     1       6.365  -0.578   2.866  0.00  0.00    +0.102 HD
ENDBRANCH   2   7
BRANCH   3   9
ATOM      9  O   UNL     1       4.902  -0.699  -0.894  0.00  0.00    -0.388 OA
ATOM     10  H   UNL     1       5.446  -1.242  -1.497  0.00  0.00    +0.210 HD
ENDBRANCH   3   9
BRANCH   4  11
ATOM     11  O   UNL     1       5.214  -3.260   1.678  0.00  0.00    -0.386 OA
ATOM     12  H   UNL     1       4.692  -4.038   1.938  0.00  0.00    +0.210 HD
ENDBRANCH   4  11
BRANCH   5  13
ATOM     13  S   UNL     1       2.257  -2.845  -1.018  0.00  0.00    -0.145 S 
ATOM     14  H   UNL     1       2.758  -1.723  -1.547  0.00  0.00    +0.104 HD
ENDBRANCH   5  13
BRANCH   1  15
ATOM     15  C   UNL     1       2.305   0.476   0.255  0.00  0.00    +0.188 C 
BRANCH  15  16
ATOM     16  O   UNL     1       0.882   0.495   0.354  0.00  0.00    -0.392 OA
ATOM     17  H   UNL     1       0.538   0.862  -0.477  0.00  0.00    +0.210 HD
ENDBRANCH  15  16
ENDBRANCH   1  15
TORSDOF 6
