REMARK  Name = 
REMARK  2 active torsions:
REMARK  status: ('A' for Active; 'I' for Inactive)
REMARK    1  A    between atoms: CA_7  and  C_8
REMARK    2  A    between atoms: C_8  and  O_9
REMARK                            x       y       z     vdW  Elec       q    Type
REMARK                         _______ _______ _______ _____ _____    ______ ____
ROOT
ATOM      1  N   UNL     1       1.303   0.013  -0.154  0.00  0.00    -0.329 N 
ATOM      2  H   UNL     1       0.809  -0.762   0.265  0.00  0.00    +0.145 HD
ATOM      3  H   UNL     1       0.871   0.916   0.022  0.00  0.00    +0.145 HD
ATOM      4  C   UNL     1       2.653   0.045  -0.067  0.00  0.00    +0.195 A 
ATOM      5  N   UNL     1       3.290  -1.158   0.003  0.00  0.00    -0.293 N 
ATOM      6  H   UNL     1       2.764  -2.017  -0.043  0.00  0.00    +0.172 HD
ATOM      7  C   UNL     1       4.659  -1.301   0.073  0.00  0.00    +0.280 A 
ATOM      8  O   UNL     1       5.182  -2.408   0.123  0.00  0.00    -0.265 OA
ATOM      9  C   UNL     1       5.425  -0.042   0.076  0.00  0.00    +0.172 A 
ATOM     10  C   UNL     1       4.684   1.133   0.020  0.00  0.00    +0.187 A 
ATOM     11  N   UNL     1       5.297   2.339   0.009  0.00  0.00    -0.232 NA
ATOM     12  C   UNL     1       6.653   2.314   0.042  0.00  0.00    +0.138 A 
ATOM     13  CA  UNL     1       7.392   1.133   0.092  0.00  0.00    +0.086 A 
ATOM     14  N   UNL     1       6.786  -0.086   0.115  0.00  0.00    -0.239 NA
ATOM     15  N   UNL     1       3.285   1.172  -0.048  0.00  0.00    -0.195 NA
ENDROOT
BRANCH  13  16
ATOM     16  C   UNL     1       8.899   1.173   0.106  0.00  0.00    +0.212 C 
BRANCH  16  17
ATOM     17  O   UNL     1       9.458  -0.137   0.184  0.00  0.00    -0.389 OA
ATOM     18  H   UNL     1       8.695  -0.754   0.199  0.00  0.00    +0.210 HD
ENDBRANCH  16  17
ENDBRANCH  13  16
TORSDOF 2
