REMARK  Name = 
REMARK  0 active torsions:
REMARK  status: ('A' for Active; 'I' for Inactive)
REMARK                            x       y       z     vdW  Elec       q    Type
REMARK                         _______ _______ _______ _____ _____    ______ ____
ROOT
ATOM      1  N   UNL     1       1.228   0.008  -0.031  0.00  0.00    -0.314 N 
ATOM      2  H   UNL     1       0.716  -0.368   0.755  0.00  0.00    +0.146 HD
ATOM      3  H   UNL     1       0.723   0.383  -0.815  0.00  0.00    +0.146 HD
ATOM      4  C   UNL     1       2.573  -0.023   0.033  0.00  0.00    +0.294 C 
ATOM      5  O   UNL     1       3.183  -0.479   0.987  0.00  0.00    -0.253 OA
ATOM      6  N   UNL     1       3.184   0.495  -1.049  0.00  0.00    -0.314 N 
ATOM      7  H   UNL     1       4.194   0.499  -1.056  0.00  0.00    +0.146 HD
ATOM      8  H   UNL     1       2.683   0.872  -1.836  0.00  0.00    +0.146 HD
ENDROOT
TORSDOF 0
