REMARK  Name = 
REMARK  15 active torsions:
REMARK  status: ('A' for Active; 'I' for Inactive)
REMARK    1  A    between atoms: C_1  and  C_2
REMARK    2  A    between atoms: C_2  and  C_3
REMARK    3  A    between atoms: C_2  and  C_4
REMARK    4  A    between atoms: C_4  and  N_6
REMARK    5  A    between atoms: C_4  and  C_24
REMARK    6  A    between atoms: C_7  and  C_9
REMARK    7  A    between atoms: C_9  and  N_10
REMARK    8  A    between atoms: C_13  and  N_14
REMARK    9  A    between atoms: C_17  and  C_18
REMARK   10  A    between atoms: C_24  and  O_26
REMARK   11  A    between atoms: C_24  and  C_27
REMARK   12  A    between atoms: C_30  and  C_32
REMARK   13  A    between atoms: C_32  and  C_33
REMARK   14  A    between atoms: C_32  and  C_34
REMARK   15  A    between atoms: C_32  and  C_35
REMARK                            x       y       z     vdW  Elec       q    Type
REMARK                         _______ _______ _______ _____ _____    ______ ____
ROOT
ATOM      1  N   UNL     1       2.448  -1.974  -1.544  0.00  0.00    -0.308 N 
ATOM      2  H   UNL     1       2.948  -1.817  -2.419  0.00  0.00    +0.149 HD
ATOM      3  C   UNL     1       1.277  -2.697  -1.568  0.00  0.00    +0.233 C 
ATOM      4  O   UNL     1       0.687  -3.052  -0.550  0.00  0.00    -0.274 OA
ENDROOT
BRANCH   1   5
ATOM      5  C   UNL     1       3.030  -1.419  -0.306  0.00  0.00    +0.113 C 
BRANCH   5   7
ATOM      6  C   UNL     1       2.981   1.039  -1.171  0.00  0.00    +0.009 C 
ATOM      7  C   UNL     1       2.560   0.055  -0.077  0.00  0.00    +0.006 C 
ATOM      8  C   UNL     1       1.041   0.154   0.125  0.00  0.00    +0.009 C 
ENDBRANCH   5   7
BRANCH   5   9
ATOM      9  C   UNL     1       4.568  -1.637  -0.319  0.00  0.00    +0.222 C 
BRANCH   9  10
ATOM     10  C   UNL     1       5.228  -1.227   0.955  0.00  0.00    +0.247 A 
ATOM     11  O   UNL     1       5.610   0.083   1.117  0.00  0.00    -0.421 OA
ATOM     12  C   UNL     1       6.141   0.069   2.382  0.00  0.00    +0.223 A 
ATOM     13  N   UNL     1       6.097  -1.128   2.933  0.00  0.00    -0.112 NA
ATOM     14  N   UNL     1       5.508  -1.966   2.010  0.00  0.00    -0.110 NA
BRANCH  12  15
ATOM     15  C   UNL     1       6.656   1.365   2.939  0.00  0.00    +0.040 C 
ATOM     16  C   UNL     1       5.530   2.412   2.949  0.00  0.00    +0.020 C 
ATOM     17  C   UNL     1       7.827   1.876   2.085  0.00  0.00    +0.020 C 
ATOM     18  C   UNL     1       7.152   1.169   4.385  0.00  0.00    +0.020 C 
ENDBRANCH  12  15
ENDBRANCH   9  10
BRANCH   9  19
ATOM     19  O   UNL     1       5.178  -0.951  -1.422  0.00  0.00    -0.381 OA
ATOM     20  H   UNL     1       5.692  -1.608  -1.920  0.00  0.00    +0.211 HD
ENDBRANCH   9  19
ENDBRANCH   5   9
ENDBRANCH   1   5
BRANCH   3  21
ATOM     21  C   UNL     1       0.780  -3.076  -2.959  0.00  0.00    +0.222 C 
BRANCH  21  22
ATOM     22  N   UNL     1       1.240  -4.415  -3.316  0.00  0.00    -0.282 N 
ATOM     23  C   UNL     1       0.611  -5.621  -2.988  0.00  0.00    +0.144 A 
ATOM     24  N   UNL     1       1.170  -6.771  -3.228  0.00  0.00    -0.235 NA
ATOM     25  C   UNL     1       2.378  -6.812  -3.852  0.00  0.00    +0.141 A 
ATOM     26  C   UNL     1       3.091  -5.755  -4.250  0.00  0.00    +0.108 A 
ATOM     27  C   UNL     1       2.512  -4.424  -3.883  0.00  0.00    +0.275 A 
ATOM     28  O   UNL     1       3.203  -3.411  -4.047  0.00  0.00    -0.266 OA
BRANCH  23  29
ATOM     29  C   UNL     1      -0.736  -5.697  -2.314  0.00  0.00    +0.018 A 
ATOM     30  C   UNL     1      -1.832  -4.894  -2.641  0.00  0.00    +0.011 A 
ATOM     31  C   UNL     1      -3.063  -5.065  -1.991  0.00  0.00    +0.001 A 
ATOM     32  C   UNL     1      -3.238  -6.096  -1.071  0.00  0.00    +0.000 A 
ATOM     33  C   UNL     1      -2.182  -6.958  -0.795  0.00  0.00    +0.001 A 
ATOM     34  C   UNL     1      -0.940  -6.752  -1.404  0.00  0.00    +0.011 A 
ENDBRANCH  23  29
BRANCH  26  35
ATOM     35  N   UNL     1       4.312  -5.787  -4.896  0.00  0.00    -0.353 N 
ATOM     36  H   UNL     1       4.884  -6.594  -4.667  0.00  0.00    +0.143 HD
ATOM     37  H   UNL     1       4.804  -4.896  -4.812  0.00  0.00    +0.143 HD
ENDBRANCH  26  35
ENDBRANCH  21  22
ENDBRANCH   3  21
TORSDOF 10
