REMARK  Name = 
REMARK  8 active torsions:
REMARK  status: ('A' for Active; 'I' for Inactive)
REMARK    1  A    between atoms: O_1  and  P_2
REMARK    2  A    between atoms: P_2  and  O_3
REMARK    3  A    between atoms: P_2  and  C_5
REMARK    4  A    between atoms: C_5  and  N_6
REMARK    5  A    between atoms: C_5  and  P_14
REMARK    6  A    between atoms: N_6  and  C_7
REMARK    7  A    between atoms: P_14  and  O_15
REMARK    8  A    between atoms: P_14  and  O_16
REMARK                            x       y       z     vdW  Elec       q    Type
REMARK                         _______ _______ _______ _____ _____    ______ ____
ROOT
ATOM      1  C   UNL     1       4.584  -0.087  -0.042  0.00  0.00    +0.301 C 
ENDROOT
BRANCH   1   2
ATOM      2  P   UNL     1       2.754  -0.087  -0.042  0.00  0.00    +0.360 P 
ATOM      3  O   UNL     1       2.704  -0.798  -1.409  0.00  0.00    -0.256 OA
BRANCH   2   4
ATOM      4  O   UNL     1       1.024  -0.087  -0.042  0.00  0.00    -0.322 OA
ATOM      5  H   UNL     1       0.697   0.188   0.835  0.00  0.00    +0.220 HD
ENDBRANCH   2   4
BRANCH   2   6
ATOM      6  O   UNL     1       2.675  -1.412   0.944  0.00  0.00    -0.322 OA
ATOM      7  H   UNL     1       2.331  -2.116   0.348  0.00  0.00    +0.220 HD
ENDBRANCH   2   6
ENDBRANCH   1   2
BRANCH   1   8
ATOM      8  P   UNL     1       5.194   1.189   1.118  0.00  0.00    +0.360 P 
ATOM      9  O   UNL     1       5.710   2.270   2.100  0.00  0.00    -0.256 OA
BRANCH   8  10
ATOM     10  O   UNL     1       4.630   0.243   2.356  0.00  0.00    -0.322 OA
ATOM     11  H   UNL     1       4.097  -0.569   2.215  0.00  0.00    +0.220 HD
ENDBRANCH   8  10
BRANCH   8  12
ATOM     12  O   UNL     1       3.807   2.043   0.828  0.00  0.00    -0.322 OA
ATOM     13  H   UNL     1       3.951   2.630   0.043  0.00  0.00    +0.220 HD
ENDBRANCH   8  12
ENDBRANCH   1   8
BRANCH   1  14
ATOM     14  N   UNL     1       5.220   0.175  -1.367  0.00  0.00    -0.306 N 
ATOM     15  H   UNL     1       6.225   0.060  -1.446  0.00  0.00    +0.149 HD
BRANCH  14  16
ATOM     16  C   UNL     1       4.669   1.101  -2.230  0.00  0.00    +0.120 A 
ATOM     17  N   UNL     1       3.937   2.123  -1.734  0.00  0.00    -0.239 NA
ATOM     18  C   UNL     1       3.279   2.904  -2.640  0.00  0.00    +0.132 A 
ATOM     19  C   UNL     1       3.334   2.726  -4.015  0.00  0.00    +0.059 A 
ATOM     20 CL   UNL     1       2.431   3.726  -5.075  0.00  0.00    -0.082 Cl
ATOM     21  C   UNL     1       4.131   1.707  -4.506  0.00  0.00    +0.025 A 
ATOM     22  C   UNL     1       4.814   0.893  -3.601  0.00  0.00    +0.045 A 
ENDBRANCH  14  16
ENDBRANCH   1  14
TORSDOF 8
