REMARK  Name = 
REMARK  8 active torsions:
REMARK  status: ('A' for Active; 'I' for Inactive)
REMARK    1  A    between atoms: C_7  and  C_11
REMARK    2  A    between atoms: C_14  and  C_16
REMARK    3  A    between atoms: C_16  and  O_17
REMARK    4  A    between atoms: O_17  and  P_18
REMARK    5  A    between atoms: P_18  and  O_19
REMARK    6  A    between atoms: P_18  and  O_20
REMARK    7  A    between atoms: C_22  and  O_24
REMARK    8  A    between atoms: C_25  and  O_27
REMARK                            x       y       z     vdW  Elec       q    Type
REMARK                         _______ _______ _______ _____ _____    ______ ____
ROOT
ATOM      1  C   UNL     1       6.543  -3.094   0.114  0.00  0.00    +0.200 C 
ATOM      2  C   UNL     1       6.648  -4.491   0.736  0.00  0.00    +0.180 C 
ATOM      3  C   UNL     1       8.000  -4.505   1.448  0.00  0.00    +0.177 C 
ATOM      4  C   UNL     1       8.488  -3.060   1.371  0.00  0.00    +0.176 C 
ATOM      5  O   UNL     1       7.364  -2.254   0.954  0.00  0.00    -0.360 OA
ENDROOT
BRANCH   1  12
ATOM      6  N   UNL     1       8.139  -3.034  -5.907  0.00  0.00    -0.341 N 
ATOM      7  H   UNL     1       8.724  -2.226  -5.731  0.00  0.00    +0.144 HD
ATOM      8  H   UNL     1       8.448  -3.709  -6.593  0.00  0.00    +0.144 HD
ATOM      9  C   UNL     1       7.662  -3.641  -4.752  0.00  0.00    +0.147 A 
ATOM     10  C   UNL     1       7.567  -3.015  -3.483  0.00  0.00    +0.150 A 
ATOM     11  C   UNL     1       7.027  -3.756  -2.376  0.00  0.00    +0.119 A 
ATOM     12  C   UNL     1       7.024  -2.937  -1.281  0.00  0.00    +0.093 A 
ATOM     13  N   UNL     1       7.550  -1.762  -1.751  0.00  0.00    -0.276 N 
ATOM     14  H   UNL     1       7.704  -0.910  -1.220  0.00  0.00    +0.189 HD
ATOM     15  N   UNL     1       6.590  -5.029  -2.427  0.00  0.00    -0.232 NA
ATOM     16  C   UNL     1       6.762  -5.532  -3.677  0.00  0.00    +0.224 A 
ATOM     17  N   UNL     1       7.903  -1.777  -3.056  0.00  0.00    -0.168 NA
ATOM     18  N   UNL     1       7.259  -4.936  -4.804  0.00  0.00    -0.219 NA
ENDBRANCH   1  12
BRANCH   2  19
ATOM     19  O   UNL     1       5.610  -4.664   1.725  0.00  0.00    -0.386 OA
ATOM     20  H   UNL     1       5.516  -3.831   2.219  0.00  0.00    +0.210 HD
ENDBRANCH   2  19
BRANCH   3  21
ATOM     21  O   UNL     1       8.920  -5.373   0.789  0.00  0.00    -0.386 OA
ATOM     22  H   UNL     1       9.667  -5.538   1.389  0.00  0.00    +0.210 HD
ENDBRANCH   3  21
BRANCH   4  23
ATOM     23  C   UNL     1       9.032  -2.559   2.705  0.00  0.00    +0.206 C 
BRANCH  23  24
ATOM     24  O   UNL     1       9.600  -1.269   2.525  0.00  0.00    -0.284 OA
BRANCH  24  25
ATOM     25  P   UNL     1      10.178  -0.540   3.829  0.00  0.00    +0.472 P 
ATOM     26  O   UNL     1      10.700  -1.449   4.883  0.00  0.00    -0.228 OA
BRANCH  25  27
ATOM     27  O   UNL     1       8.959   0.400   4.245  0.00  0.00    -0.303 OA
ATOM     28  H   UNL     1       8.321  -0.042   4.829  0.00  0.00    +0.222 HD
ENDBRANCH  25  27
BRANCH  25  29
ATOM     29  O   UNL     1      11.210   0.480   3.176  0.00  0.00    -0.303 OA
ATOM     30  H   UNL     1      11.481   0.185   2.290  0.00  0.00    +0.222 HD
ENDBRANCH  25  29
ENDBRANCH  24  25
ENDBRANCH  23  24
ENDBRANCH   4  23
TORSDOF 8
