REMARK  Name = 
REMARK  10 active torsions:
REMARK  status: ('A' for Active; 'I' for Inactive)
REMARK    1  A    between atoms: C_1  and  C_2
REMARK    2  A    between atoms: C_2  and  C_3
REMARK    3  A    between atoms: C_2  and  C_4
REMARK    4  A    between atoms: C_2  and  C_5
REMARK    5  A    between atoms: C_5  and  O_6
REMARK    6  A    between atoms: O_6  and  C_7
REMARK    7  A    between atoms: C_8  and  C_21
REMARK    8  A    between atoms: C_10  and  N_13
REMARK    9  A    between atoms: C_15  and  C_18
REMARK   10  A    between atoms: C_18  and  O_19
REMARK                            x       y       z     vdW  Elec       q    Type
REMARK                         _______ _______ _______ _____ _____    ______ ____
ROOT
ATOM      1  C   UNL     1       5.035  -1.931  -2.017  0.00  0.00    +0.138 A 
ATOM      2  C   UNL     1       4.883  -3.317  -1.906  0.00  0.00    +0.049 A 
ATOM      3  C   UNL     1       5.325  -4.173  -2.906  0.00  0.00    +0.031 A 
ATOM      4  C   UNL     1       5.941  -3.662  -4.048  0.00  0.00    +0.067 A 
ATOM      5  C   UNL     1       6.144  -2.276  -4.158  0.00  0.00    +0.050 A 
ATOM      6  C   UNL     1       5.691  -1.407  -3.144  0.00  0.00    +0.095 A 
ENDROOT
BRANCH   4   7
ATOM      7  N   UNL     1       6.345  -4.548  -5.082  0.00  0.00    -0.239 N 
ATOM      8  N   UNL     1       6.970  -4.106  -6.200  0.00  0.00    -0.174 NA
ATOM      9  C   UNL     1       7.199  -5.211  -6.915  0.00  0.00    +0.149 A 
ATOM     10  C   UNL     1       6.729  -6.383  -6.292  0.00  0.00    +0.097 A 
ATOM     11  C   UNL     1       6.167  -5.910  -5.124  0.00  0.00    +0.129 A 
BRANCH  10  12
ATOM     12  C   UNL     1       6.758  -7.784  -6.671  0.00  0.00    +0.340 C 
ATOM     13  O   UNL     1       6.263  -8.666  -5.985  0.00  0.00    -0.245 OA
BRANCH  12  14
ATOM     14  O   UNL     1       7.380  -8.064  -7.840  0.00  0.00    -0.477 OA
ATOM     15  H   UNL     1       7.752  -7.293  -8.298  0.00  0.00    +0.295 HD
ENDBRANCH  12  14
ENDBRANCH  10  12
ENDBRANCH   4   7
BRANCH   6  16
ATOM     16  C   UNL     1       5.900   0.010  -3.288  0.00  0.00    +0.103 C 
ATOM     17  N   UNL     1       6.096   1.143  -3.443  0.00  0.00    -0.191 NA
ENDBRANCH   6  16
BRANCH   1  18
ATOM     18  O   UNL     1       4.560  -1.051  -1.070  0.00  0.00    -0.490 OA
BRANCH  18  19
ATOM     19  C   UNL     1       3.812  -1.654  -0.006  0.00  0.00    +0.235 C 
BRANCH  19  21
ATOM     20  C   UNL     1       2.268   0.320   0.271  0.00  0.00    +0.014 C 
ATOM     21  C   UNL     1       3.249  -0.621   0.984  0.00  0.00    -0.004 C 
ATOM     22  C   UNL     1       2.506  -1.392   2.091  0.00  0.00    +0.014 C 
ATOM     23  C   UNL     1       4.393   0.192   1.603  0.00  0.00    +0.014 C 
ENDBRANCH  19  21
ENDBRANCH  18  19
ENDBRANCH   1  18
TORSDOF 7
