REMARK  Name = 
REMARK  20 active torsions:
REMARK  status: ('A' for Active; 'I' for Inactive)
REMARK    1  A    between atoms: N_1  and  C_2
REMARK    2  A    between atoms: C_2  and  C_4
REMARK    3  A    between atoms: C_2  and  C_35
REMARK    4  A    between atoms: C_4  and  C_5
REMARK    5  A    between atoms: C_5  and  C_6
REMARK    6  A    between atoms: N_8  and  C_9
REMARK    7  A    between atoms: C_9  and  C_11
REMARK    8  A    between atoms: C_9  and  C_28
REMARK    9  A    between atoms: C_11  and  S_12
REMARK   10  A    between atoms: S_12  and  C_13
REMARK   11  A    between atoms: C_13  and  C_15
REMARK   12  A    between atoms: C_13  and  C_17
REMARK   13  A    between atoms: C_15  and  O_16
REMARK   14  A    between atoms: C_17  and  O_18
REMARK   15  A    between atoms: O_18  and  C_19
REMARK   16  A    between atoms: C_22  and  N_25
REMARK   17  A    between atoms: N_30  and  CA_31
REMARK   18  A    between atoms: CA_31  and  C_32
REMARK   19  A    between atoms: C_32  and  O_33
REMARK   20  A    between atoms: C_35  and  O_36
REMARK                            x       y       z     vdW  Elec       q    Type
REMARK                         _______ _______ _______ _____ _____    ______ ____
ROOT
ATOM      1  C   UNK A   1       9.939  -2.587  -4.963  0.00  0.00    +0.169 C 
ENDROOT
BRANCH   1   3
ATOM      2  C   UNK A   1       8.793  -4.789  -5.170  0.00  0.00    +0.214 C 
ATOM      3  N   UNK A   1       9.072  -3.546  -5.678  0.00  0.00    -0.303 N 
ATOM      4  H   UNK A   1       8.889  -3.362  -6.657  0.00  0.00    +0.149 HD
ATOM      5  O   UNK A   1       9.166  -5.159  -4.061  0.00  0.00    -0.276 OA
BRANCH   2   6
ATOM      6  C   UNK A   1       7.971  -5.699  -6.069  0.00  0.00    +0.098 C 
BRANCH   6   7
ATOM      7  C   UNK A   1       8.767  -6.518  -7.094  0.00  0.00    +0.039 C 
BRANCH   7   8
ATOM      8  C   UNK A   1       9.778  -7.536  -6.542  0.00  0.00    +0.161 C 
BRANCH   8   9
ATOM      9  N   UNK A   1       9.211  -8.538  -5.607  0.00  0.00    -0.318 NA
ATOM     10  H   UNK A   1       8.430  -8.140  -5.082  0.00  0.00    +0.119 HD
ATOM     11  H   UNK A   1       8.799  -9.294  -6.161  0.00  0.00    +0.119 HD
ENDBRANCH   8   9
BRANCH   8  12
ATOM     12  C   UNK A   1      10.934  -6.819  -5.869  0.00  0.00    +0.322 C 
ATOM     13  O   UNK A   1      11.589  -5.917  -6.368  0.00  0.00    -0.249 OA
BRANCH  12  14
ATOM     14  O   UNK A   1      11.175  -7.259  -4.614  0.00  0.00    -0.480 OA
ATOM     15  H   UNK A   1      10.521  -7.980  -4.441  0.00  0.00    +0.295 HD
ENDBRANCH  12  14
ENDBRANCH   8  12
ENDBRANCH   7   8
ENDBRANCH   6   7
ENDBRANCH   2   6
ENDBRANCH   1   3
BRANCH   1  16
ATOM     16  C   UNK A   1      11.372  -2.713  -5.522  0.00  0.00    +0.235 C 
ATOM     17  N   GLY A   2      12.221  -3.565  -4.832  0.00  0.00    -0.303 N 
ATOM     18  H   GLY A   2      11.921  -3.930  -3.933  0.00  0.00    +0.149 HD
ATOM     19  O   UNK A   1      11.702  -2.155  -6.568  0.00  0.00    -0.274 OA
BRANCH  17  20
ATOM     20  CA  GLY A   2      13.647  -3.573  -5.158  0.00  0.00    +0.224 C 
BRANCH  20  21
ATOM     21  C   GLY A   2      14.431  -4.844  -4.846  0.00  0.00    +0.322 C 
ATOM     22  OXT GLY A   2      15.650  -4.876  -4.745  0.00  0.00    -0.249 OA
BRANCH  21  23
ATOM     23  O   GLY A   2      13.689  -5.962  -4.782  0.00  0.00    -0.480 OA
ATOM     24  H   GLY A   2      12.774  -5.782  -5.101  0.00  0.00    +0.295 HD
ENDBRANCH  21  23
ENDBRANCH  20  21
ENDBRANCH  17  20
ENDBRANCH   1  16
BRANCH   1  25
ATOM     25  C   UNK A   1       9.405  -1.156  -5.182  0.00  0.00    +0.101 C 
BRANCH  25  26
ATOM     26  S   UNK A   1      10.260   0.102  -4.156  0.00  0.00    -0.149 S 
BRANCH  26  27
ATOM     27  C   UNK A   1       9.486   1.665  -4.796  0.00  0.00    +0.109 C 
BRANCH  27  28
ATOM     28  C   UNK A   1       7.969   1.629  -4.569  0.00  0.00    +0.245 C 
BRANCH  28  29
ATOM     29  O   UNK A   1       7.342   2.831  -5.029  0.00  0.00    -0.491 OA
BRANCH  29  30
ATOM     30  C   UNK A   1       5.974   2.828  -4.980  0.00  0.00    +0.121 A 
ATOM     31  C   UNK A   1       5.342   3.898  -5.620  0.00  0.00    +0.052 A 
ATOM     32  C   UNK A   1       3.946   3.986  -5.652  0.00  0.00    +0.088 A 
ATOM     33  C   UNK A   1       3.177   2.993  -5.026  0.00  0.00    +0.273 A 
ATOM     34  C   UNK A   1       3.798   1.930  -4.366  0.00  0.00    +0.088 A 
ATOM     35  C   UNK A   1       5.191   1.848  -4.345  0.00  0.00    +0.052 A 
BRANCH  33  36
ATOM     36  N   UNK A   1       1.712   3.062  -5.060  0.00  0.00    +0.080 N 
ATOM     37  O   UNK A   1       1.192   4.031  -5.633  0.00  0.00    +0.041 OA
ATOM     38  O   UNK A   1       1.079   2.142  -4.521  0.00  0.00    -0.576 OA
ENDBRANCH  33  36
ENDBRANCH  29  30
ENDBRANCH  28  29
ENDBRANCH  27  28
BRANCH  27  39
ATOM     39  C   UNK A   1      10.147   2.891  -4.129  0.00  0.00    +0.173 C 
BRANCH  39  40
ATOM     40  O   UNK A   1      10.040   2.916  -2.707  0.00  0.00    -0.394 OA
ATOM     41  H   UNK A   1       9.133   2.690  -2.449  0.00  0.00    +0.209 HD
ENDBRANCH  39  40
ENDBRANCH  27  39
ENDBRANCH  26  27
ENDBRANCH  25  26
ENDBRANCH   1  25
TORSDOF 20
