REMARK  Name = 
REMARK  5 active torsions:
REMARK  status: ('A' for Active; 'I' for Inactive)
REMARK    1  A    between atoms: N9_10  and  C1*_11
REMARK    2  A    between atoms: C4*_14  and  C5*_16
REMARK    3  A    between atoms: C5*_16  and  O5*_17
REMARK    4  A    between atoms: C3*_18  and  O3*_20
REMARK    5  A    between atoms: C2*_21  and  O2*_23
REMARK                            x       y       z     vdW  Elec       q    Type
REMARK                         _______ _______ _______ _____ _____    ______ ____
ROOT
ATOM      1  N6    A A   1       8.082  -3.255  -5.930  0.00  0.00    -0.341 N 
ATOM      2  H61   A A   1       8.122  -2.242  -5.908  0.00  0.00    +0.144 HD
ATOM      3  H62   A A   1       7.740  -3.695  -6.773  0.00  0.00    +0.144 HD
ATOM      4  C6    A A   1       7.508  -3.805  -4.790  0.00  0.00    +0.147 A 
ATOM      5  C5    A A   1       7.433  -3.128  -3.560  0.00  0.00    +0.147 A 
ATOM      6  N7    A A   1       7.830  -1.867  -3.170  0.00  0.00    -0.231 NA
ATOM      7  C8    A A   1       7.488  -1.790  -1.902  0.00  0.00    +0.203 A 
ATOM      8  N9    A A   1       6.926  -2.957  -1.439  0.00  0.00    -0.286 N 
ATOM      9  C4    A A   1       6.830  -3.804  -2.510  0.00  0.00    +0.167 A 
ATOM     10  N3    A A   1       6.280  -5.026  -2.554  0.00  0.00    -0.216 NA
ATOM     11  C2    A A   1       6.409  -5.577  -3.777  0.00  0.00    +0.225 A 
ATOM     12  N1    A A   1       6.975  -5.044  -4.880  0.00  0.00    -0.219 NA
ENDROOT
BRANCH   8  13
ATOM     13  C1*   A A   1       6.419  -3.162  -0.096  0.00  0.00    +0.253 C 
ATOM     14  C2*   A A   1       6.482  -4.568   0.519  0.00  0.00    +0.195 C 
ATOM     15  C3*   A A   1       7.817  -4.611   1.262  0.00  0.00    +0.178 C 
ATOM     16  C4*   A A   1       8.320  -3.168   1.215  0.00  0.00    +0.177 C 
ATOM     17  O4*   A A   1       7.201  -2.352   0.828  0.00  0.00    -0.346 OA
BRANCH  14  18
ATOM     18  O2*   A A   1       5.410  -4.716   1.479  0.00  0.00    -0.385 OA
ATOM     19  H2*   A A   1       5.465  -3.981   2.116  0.00  0.00    +0.210 HD
ENDBRANCH  14  18
BRANCH  15  20
ATOM     20  O3*   A A   1       8.743  -5.479   0.616  0.00  0.00    -0.386 OA
ATOM     21  H3*   A A   1       9.509  -5.565   1.215  0.00  0.00    +0.210 HD
ENDBRANCH  15  20
BRANCH  16  22
ATOM     22  C5*   A A   1       8.902  -2.700   2.545  0.00  0.00    +0.190 C 
BRANCH  22  23
ATOM     23  O5*   A A   1      10.004  -3.518   2.922  0.00  0.00    -0.392 OA
ATOM     24  H5*   A A   1      10.814  -3.089   2.589  0.00  0.00    +0.210 HD
ENDBRANCH  22  23
ENDBRANCH  16  22
ENDBRANCH   8  13
TORSDOF 5
