REMARK  Name = 
REMARK  8 active torsions:
REMARK  status: ('A' for Active; 'I' for Inactive)
REMARK    1  A    between atoms: C_1  and  C_2
REMARK    2  A    between atoms: N_4  and  C_5
REMARK    3  A    between atoms: C_8  and  C_15
REMARK    4  A    between atoms: C_10  and  N_11
REMARK    5  A    between atoms: N_11  and  C_12
REMARK    6  A    between atoms: C_12  and  N_13
REMARK    7  A    between atoms: C_12  and  N_14
REMARK    8  A    between atoms: C_15  and  O_16
REMARK                            x       y       z     vdW  Elec       q    Type
REMARK                         _______ _______ _______ _____ _____    ______ ____
ROOT
ATOM      1  C   UNL     1       4.668   0.476  -1.349  0.00  0.00    +0.055 A 
ATOM      2  C   UNL     1       5.369  -0.483  -0.574  0.00  0.00    +0.051 A 
ATOM      3  C   UNL     1       6.767  -0.482  -0.654  0.00  0.00    +0.039 A 
ATOM      4  C   UNL     1       7.457   0.341  -1.556  0.00  0.00    +0.061 A 
ATOM      5  C   UNL     1       6.748   1.204  -2.389  0.00  0.00    +0.017 A 
ATOM      6  C   UNL     1       5.357   1.275  -2.276  0.00  0.00    +0.026 A 
ENDROOT
BRANCH   1   9
ATOM      7  C   UNL     1       1.105   1.060  -0.300  0.00  0.00    +0.109 C 
ATOM      8  C   UNL     1       2.581   0.840  -0.103  0.00  0.00    +0.214 C 
ATOM      9  N   UNL     1       3.261   0.640  -1.298  0.00  0.00    -0.284 N 
ATOM     10  H   UNL     1       2.838   1.112  -2.085  0.00  0.00    +0.155 HD
ATOM     11  O   UNL     1       3.091   0.845   1.014  0.00  0.00    -0.276 OA
ENDBRANCH   1   9
BRANCH   2  12
ATOM     12  N   UNL     1       4.692  -1.460   0.156  0.00  0.00    -0.315 N 
ATOM     13  H   UNL     1       3.682  -1.359   0.144  0.00  0.00    +0.149 HD
BRANCH  12  14
ATOM     14  C   UNL     1       5.232  -2.750   0.403  0.00  0.00    +0.206 C 
BRANCH  14  15
ATOM     15  N   UNL     1       5.381  -3.429  -0.845  0.00  0.00    -0.301 NA
ATOM     16  H   UNL     1       6.199  -4.001  -1.027  0.00  0.00    +0.121 HD
ATOM     17  H   UNL     1       5.020  -2.959  -1.666  0.00  0.00    +0.121 HD
ENDBRANCH  14  15
BRANCH  14  18
ATOM     18  N   UNL     1       4.335  -3.471   1.236  0.00  0.00    -0.301 NA
ATOM     19  H   UNL     1       4.073  -3.083   2.136  0.00  0.00    +0.121 HD
ATOM     20  H   UNL     1       3.991  -4.398   1.017  0.00  0.00    +0.121 HD
ENDBRANCH  14  18
ENDBRANCH  12  14
ENDBRANCH   2  12
BRANCH   4  21
ATOM     21  C   UNL     1       8.920   0.137  -1.657  0.00  0.00    +0.337 C 
ATOM     22  O   UNL     1       9.424  -0.942  -1.380  0.00  0.00    -0.245 OA
BRANCH  21  23
ATOM     23  O   UNL     1       9.624   1.205  -2.063  0.00  0.00    -0.477 OA
ATOM     24  H   UNL     1       9.148   2.055  -2.096  0.00  0.00    +0.295 HD
ENDBRANCH  21  23
ENDBRANCH   4  21
TORSDOF 7
