REMARK  Name = 
REMARK  1 active torsions:
REMARK  status: ('A' for Active; 'I' for Inactive)
REMARK    1  A    between atoms: C_6  and  C_8
REMARK                            x       y       z     vdW  Elec       q    Type
REMARK                         _______ _______ _______ _____ _____    ______ ____
ROOT
ATOM      1  N   UNL     1       1.140  -0.213  -0.295  0.00  0.00    -0.327 N 
ATOM      2  H   UNL     1       0.782  -1.104   0.020  0.00  0.00    +0.145 HD
ATOM      3  H   UNL     1       0.695   0.618   0.070  0.00  0.00    +0.145 HD
ATOM      4  C   UNL     1       2.497  -0.144  -0.067  0.00  0.00    +0.213 A 
ATOM      5  N   UNL     1       3.188  -1.284  -0.033  0.00  0.00    -0.215 NA
ATOM      6  C   UNL     1       4.513  -1.199   0.223  0.00  0.00    +0.078 A 
ATOM      7  C   UNL     1       5.125   0.001   0.512  0.00  0.00    +0.048 A 
ATOM      8  C   UNL     1       4.322   1.114   0.448  0.00  0.00    +0.116 A 
ATOM      9  N   UNL     1       3.011   1.066   0.165  0.00  0.00    -0.223 NA
ENDROOT
BRANCH   6  10
ATOM     10  C   UNL     1       5.217  -2.486   0.211  0.00  0.00    +0.027 A 
ATOM     11  C   UNL     1       4.594  -3.760   0.497  0.00  0.00    +0.039 A 
ATOM     12  C   UNL     1       5.471  -4.804   0.372  0.00  0.00    +0.080 A 
ATOM     13 CL   UNL     1       5.129  -6.470   0.610  0.00  0.00    -0.076 Cl
ATOM     14  S   UNL     1       7.022  -4.322  -0.080  0.00  0.00    -0.065 S 
ATOM     15  C   UNL     1       6.535  -2.691  -0.155  0.00  0.00    +0.089 A 
ATOM     16 CL   UNL     1       7.725  -1.569  -0.707  0.00  0.00    -0.075 Cl
ENDBRANCH   6  10
TORSDOF 1
