REMARK  Name = 
REMARK  6 active torsions:
REMARK  status: ('A' for Active; 'I' for Inactive)
REMARK    1  A    between atoms: C_1  and  O_2
REMARK    2  A    between atoms: O_2  and  C_3
REMARK    3  A    between atoms: C_6  and  C_8
REMARK    4  A    between atoms: C_9  and  O_11
REMARK    5  A    between atoms: C_12  and  O_14
REMARK    6  A    between atoms: C_15  and  O_17
REMARK                            x       y       z     vdW  Elec       q    Type
REMARK                         _______ _______ _______ _____ _____    ______ ____
ROOT
ATOM      1  C   UNL     1       2.896   0.452   1.123  0.00  0.00    +0.281 C 
ATOM      2  C   UNL     1       2.874   1.997   1.060  0.00  0.00    +0.201 C 
ATOM      3  C   UNL     1       3.844   2.498  -0.026  0.00  0.00    +0.179 C 
ATOM      4  C   UNL     1       5.237   1.879   0.172  0.00  0.00    +0.174 C 
ATOM      5  C   UNL     1       5.185   0.345   0.302  0.00  0.00    +0.149 C 
ATOM      6  C   UNL     1       5.060  -0.397  -1.028  0.00  0.00    +0.041 C 
ATOM      7  O   UNL     1       4.216  -0.085   1.264  0.00  0.00    -0.343 OA
ENDROOT
BRANCH   1   9
ATOM      8  C   UNL     1       1.966  -1.453   0.072  0.00  0.00    +0.197 C 
ATOM      9  O   UNL     1       2.242  -0.061  -0.046  0.00  0.00    -0.352 OA
ENDBRANCH   1   9
BRANCH   2  10
ATOM     10  O   UNL     1       3.177   2.577   2.336  0.00  0.00    -0.384 OA
ATOM     11  H   UNL     1       4.133   2.801   2.334  0.00  0.00    +0.210 HD
ENDBRANCH   2  10
BRANCH   3  12
ATOM     12  O   UNL     1       3.355   2.248  -1.347  0.00  0.00    -0.386 OA
ATOM     13  H   UNL     1       2.743   1.479  -1.309  0.00  0.00    +0.210 HD
ENDBRANCH   3  12
BRANCH   4  14
ATOM     14  O   UNL     1       5.787   2.433   1.387  0.00  0.00    -0.387 OA
ATOM     15  H   UNL     1       6.619   1.957   1.575  0.00  0.00    +0.210 HD
ENDBRANCH   4  14
TORSDOF 4
