REMARK  Name = 
REMARK  13 active torsions:
REMARK  status: ('A' for Active; 'I' for Inactive)
REMARK    1  A    between atoms: N_10  and  C_11
REMARK    2  A    between atoms: C_14  and  O_16
REMARK    3  A    between atoms: C_17  and  C_19
REMARK    4  A    between atoms: C_19  and  O_20
REMARK    5  A    between atoms: O_20  and  P_21
REMARK    6  A    between atoms: P_21  and  O_22
REMARK    7  A    between atoms: P_21  and  O_24
REMARK    8  A    between atoms: O_24  and  P_25
REMARK    9  A    between atoms: P_25  and  O_26
REMARK   10  A    between atoms: P_25  and  O_28
REMARK   11  A    between atoms: O_28  and  P_29
REMARK   12  A    between atoms: P_29  and  O_30
REMARK   13  A    between atoms: P_29  and  O_31
REMARK                            x       y       z     vdW  Elec       q    Type
REMARK                         _______ _______ _______ _____ _____    ______ ____
ROOT
ATOM      1  C   UNL     1      19.386  -6.009   2.416  0.00  0.00    +0.225 C 
ATOM      2  O   UNL     1      17.950  -5.864   2.329  0.00  0.00    -0.348 OA
ATOM      3  C   UNL     1      17.344  -7.056   2.883  0.00  0.00    +0.175 C 
ATOM      4  C   UNL     1      18.483  -8.021   3.209  0.00  0.00    +0.150 C 
ATOM      5  C   UNL     1      19.632  -7.081   3.459  0.00  0.00    +0.088 C 
ENDROOT
BRANCH   1  13
ATOM      6  N   UNL     1      23.161  -1.532   3.903  0.00  0.00    -0.341 N 
ATOM      7  H   UNL     1      22.451  -0.848   3.665  0.00  0.00    +0.144 HD
ATOM      8  H   UNL     1      24.125  -1.303   3.699  0.00  0.00    +0.144 HD
ATOM      9  C   UNL     1      22.836  -2.825   3.508  0.00  0.00    +0.147 A 
ATOM     10  C   UNL     1      21.524  -3.246   3.249  0.00  0.00    +0.147 A 
ATOM     11  N   UNL     1      20.303  -2.601   3.271  0.00  0.00    -0.231 NA
ATOM     12  C   UNL     1      19.420  -3.532   2.957  0.00  0.00    +0.203 A 
ATOM     13  N   UNL     1      20.013  -4.743   2.736  0.00  0.00    -0.288 N 
ATOM     14  C   UNL     1      21.364  -4.577   2.883  0.00  0.00    +0.167 A 
ATOM     15  N   UNL     1      22.324  -5.501   2.732  0.00  0.00    -0.216 NA
ATOM     16  C   UNL     1      23.540  -4.978   2.992  0.00  0.00    +0.225 A 
ATOM     17  N   UNL     1      23.845  -3.713   3.359  0.00  0.00    -0.219 NA
ENDBRANCH   1  13
BRANCH   4  18
ATOM     18  O   UNL     1      18.251  -8.852   4.331  0.00  0.00    -0.389 OA
ATOM     19  H   UNL     1      18.055  -8.297   5.106  0.00  0.00    +0.210 HD
ENDBRANCH   4  18
BRANCH   3  20
ATOM     20  C   UNL     1      16.348  -7.631   1.878  0.00  0.00    +0.206 C 
BRANCH  20  21
ATOM     21  O   UNL     1      15.754  -8.830   2.361  0.00  0.00    -0.284 OA
BRANCH  21  22
ATOM     22  P   UNL     1      14.672  -9.542   1.214  0.00  0.00    +0.483 P 
ATOM     23  O   UNL     1      13.623  -8.549   1.694  0.00  0.00    -0.227 OA
BRANCH  22  24
ATOM     24  O   UNL     1      14.802 -10.908   2.072  0.00  0.00    -0.302 OA
ATOM     25  H   UNL     1      14.277 -10.878   2.908  0.00  0.00    +0.222 HD
ENDBRANCH  22  24
BRANCH  22  26
ATOM     26  O   UNL     1      13.591 -10.255   0.067  0.00  0.00    -0.186 OA
BRANCH  26  27
ATOM     27  P   UNL     1      12.310 -11.024   0.628  0.00  0.00    +0.492 P 
ATOM     28  O   UNL     1      11.137 -11.137  -0.286  0.00  0.00    -0.226 OA
BRANCH  27  29
ATOM     29  O   UNL     1      12.843 -12.466   1.082  0.00  0.00    -0.302 OA
ATOM     30  H   UNL     1      13.017 -13.056   0.324  0.00  0.00    +0.222 HD
ENDBRANCH  27  29
BRANCH  27  31
ATOM     31  O   UNL     1      12.071 -10.258   1.985  0.00  0.00    -0.186 OA
BRANCH  31  32
ATOM     32  P   UNL     1      11.554 -11.012   3.453  0.00  0.00    +0.481 P 
ATOM     33  O   UNL     1      11.092 -11.686   4.768  0.00  0.00    -0.227 OA
BRANCH  32  34
ATOM     34  O   UNL     1      11.044  -9.520   3.906  0.00  0.00    -0.302 OA
ATOM     35  H   UNL     1      10.104  -9.378   3.696  0.00  0.00    +0.222 HD
ENDBRANCH  32  34
BRANCH  32  36
ATOM     36  O   UNL     1      13.092 -10.719   3.971  0.00  0.00    -0.302 OA
ATOM     37  H   UNL     1      13.007  -9.888   4.488  0.00  0.00    +0.222 HD
ENDBRANCH  32  36
ENDBRANCH  31  32
ENDBRANCH  27  31
ENDBRANCH  26  27
ENDBRANCH  22  26
ENDBRANCH  21  22
ENDBRANCH  20  21
ENDBRANCH   3  20
TORSDOF 13
