REMARK  Name = 
REMARK  2 active torsions:
REMARK  status: ('A' for Active; 'I' for Inactive)
REMARK    1  A    between atoms: O_1  and  C_2
REMARK    2  A    between atoms: C_2  and  C_4
REMARK                            x       y       z     vdW  Elec       q    Type
REMARK                         _______ _______ _______ _____ _____    ______ ____
ROOT
ATOM      1  C   UNK     1       2.986  -0.921  -0.920  0.00  0.00    +0.154 A 
ATOM      2  N   UNK     1       2.537  -2.247  -0.956  0.00  0.00    -0.241 NA
ATOM      3  C   UNK     1       3.321  -2.945  -1.750  0.00  0.00    +0.156 A 
ATOM      4  S   UNK     1       4.610  -2.089  -2.491  0.00  0.00    -0.083 S 
ATOM      5  C   UNK     1       4.099  -0.659  -1.695  0.00  0.00    +0.081 A 
ENDROOT
BRANCH   1   6
ATOM      6  C   UNK     1       2.282   0.062  -0.103  0.00  0.00    +0.356 C 
ATOM      7  O   UNK     1       2.598   1.238  -0.001  0.00  0.00    -0.243 OA
BRANCH   6   8
ATOM      8  O   UNK     1       1.217  -0.482   0.544  0.00  0.00    -0.476 OA
ATOM      9  H   UNK     1       1.179  -1.435   0.297  0.00  0.00    +0.295 HD
ENDBRANCH   6   8
ENDBRANCH   1   6
TORSDOF 2
