REMARK  Name = 
REMARK  21 active torsions:
REMARK  status: ('A' for Active; 'I' for Inactive)
REMARK    1  A    between atoms: N_1  and  C_2
REMARK    2  A    between atoms: C_2  and  C_3
REMARK    3  A    between atoms: C_3  and  C_4
REMARK    4  A    between atoms: C_4  and  C_5
REMARK    5  A    between atoms: C_5  and  N_6
REMARK    6  A    between atoms: N_6  and  C_7
REMARK    7  A    between atoms: C_7  and  C_8
REMARK    8  A    between atoms: C_8  and  C_9
REMARK    9  A    between atoms: C_9  and  N_10
REMARK   10  A    between atoms: C_11  and  C_13
REMARK   11  A    between atoms: C_13  and  N_14
REMARK   12  A    between atoms: C_15  and  C_17
REMARK   13  A    between atoms: C_17  and  C_19
REMARK   14  A    between atoms: C_17  and  N_21
REMARK   15  A    between atoms: C_19  and  S_20
REMARK   16  A    between atoms: C_22  and  C_24
REMARK   17  A    between atoms: C_24  and  C_25
REMARK   18  A    between atoms: C_25  and  C_26
REMARK   19  A    between atoms: C_26  and  N_28
REMARK   20  A    between atoms: C_26  and  C_29
REMARK   21  A    between atoms: C_29  and  O_30
REMARK                            x       y       z     vdW  Elec       q    Type
REMARK                         _______ _______ _______ _____ _____    ______ ____
ROOT
ATOM      1  N   UNK     1      18.392 -10.916   4.859  0.00  0.00    -0.305 N 
ATOM      2  H   UNK     1      19.019 -11.583   5.292  0.00  0.00    +0.149 HD
ATOM      3  C   UNK     1      18.859  -9.657   4.531  0.00  0.00    +0.235 C 
ATOM      4  O   UNK     1      18.214  -8.904   3.803  0.00  0.00    -0.274 OA
ENDROOT
BRANCH   1   5
ATOM      5  C   UNK     1      17.214 -11.460   4.199  0.00  0.00    +0.200 C 
BRANCH   5   8
ATOM      6  N   UNK     1      17.612 -11.608   1.786  0.00  0.00    -0.314 N 
ATOM      7  H   UNK     1      17.466 -10.603   1.807  0.00  0.00    +0.149 HD
ATOM      8  C   UNK     1      17.607 -12.297   2.979  0.00  0.00    +0.230 C 
ATOM      9  O   UNK     1      17.973 -13.466   3.090  0.00  0.00    -0.274 OA
BRANCH   6  10
ATOM     10  C   UNK     1      18.000 -12.227   0.531  0.00  0.00    +0.105 C 
BRANCH  10  11
ATOM     11  C   UNK     1      16.807 -12.832  -0.210  0.00  0.00    +0.034 C 
BRANCH  11  12
ATOM     12  C   UNK     1      17.255 -13.495  -1.513  0.00  0.00    +0.082 C 
BRANCH  12  13
ATOM     13  N   UNK     1      16.102 -14.056  -2.224  0.00  0.00    -0.316 NA
ATOM     14  H   UNK     1      15.631 -14.738  -1.631  0.00  0.00    +0.122 HD
BRANCH  13  15
ATOM     15  C   UNK     1      16.495 -14.681  -3.485  0.00  0.00    +0.081 C 
BRANCH  15  16
ATOM     16  C   UNK     1      15.276 -15.245  -4.228  0.00  0.00    +0.016 C 
BRANCH  16  17
ATOM     17  C   UNK     1      14.256 -14.166  -4.606  0.00  0.00    +0.016 C 
BRANCH  17  18
ATOM     18  C   UNK     1      13.061 -14.762  -5.347  0.00  0.00    +0.077 C 
BRANCH  18  19
ATOM     19  N   UNK     1      12.097 -13.715  -5.664  0.00  0.00    -0.330 NA
ATOM     20  H   UNK     1      12.536 -13.012  -6.258  0.00  0.00    +0.118 HD
ATOM     21  H   UNK     1      11.329 -14.110  -6.203  0.00  0.00    +0.118 HD
ENDBRANCH  18  19
ENDBRANCH  17  18
ENDBRANCH  16  17
ENDBRANCH  15  16
ENDBRANCH  13  15
ENDBRANCH  12  13
ENDBRANCH  11  12
ENDBRANCH  10  11
ENDBRANCH   6  10
ENDBRANCH   5   8
ENDBRANCH   1   5
BRANCH   3  22
ATOM     22  C   UNK     1      20.126  -9.207   5.300  0.00  0.00    +0.168 C 
BRANCH  22  23
ATOM     23  N   UNK     1      19.620  -8.496   6.492  0.00  0.00    -0.303 N 
ATOM     24  H   UNK     1      18.715  -8.787   6.843  0.00  0.00    +0.149 HD
ATOM     25  C   UNK     1      20.361  -7.626   7.253  0.00  0.00    +0.214 C 
ATOM     26  O   UNK     1      21.528  -7.332   7.023  0.00  0.00    -0.276 OA
BRANCH  25  27
ATOM     27  C   UNK     1      19.625  -7.021   8.429  0.00  0.00    +0.098 C 
BRANCH  27  28
ATOM     28  C   UNK     1      19.450  -8.036   9.549  0.00  0.00    +0.039 C 
BRANCH  28  29
ATOM     29  C   UNK     1      18.822  -7.447  10.820  0.00  0.00    +0.161 C 
BRANCH  29  30
ATOM     30  N   UNK     1      19.719  -6.454  11.474  0.00  0.00    -0.318 NA
ATOM     31  H   UNK     1      19.910  -5.691  10.819  0.00  0.00    +0.119 HD
ATOM     32  H   UNK     1      19.192  -5.999  12.229  0.00  0.00    +0.119 HD
ENDBRANCH  29  30
BRANCH  29  33
ATOM     33  C   UNK     1      18.588  -8.600  11.808  0.00  0.00    +0.322 C 
ATOM     34  O   UNK     1      17.659  -9.389  11.753  0.00  0.00    -0.249 OA
BRANCH  33  35
ATOM     35  O   UNK     1      19.586  -8.670  12.727  0.00  0.00    -0.480 OA
ATOM     36  H   UNK     1      20.199  -7.919  12.530  0.00  0.00    +0.295 HD
ENDBRANCH  33  35
ENDBRANCH  29  33
ENDBRANCH  28  29
ENDBRANCH  27  28
ENDBRANCH  25  27
ENDBRANCH  22  23
BRANCH  22  37
ATOM     37  C   UNK     1      21.022  -8.356   4.382  0.00  0.00    +0.097 C 
BRANCH  37  38
ATOM     38  S   UNK     1      21.590  -9.252   2.893  0.00  0.00    -0.176 S 
ATOM     39  H   UNK     1      22.396 -10.114   3.529  0.00  0.00    +0.102 HD
ENDBRANCH  37  38
ENDBRANCH  22  37
ENDBRANCH   3  22
TORSDOF 21
