REMARK  Name = 
REMARK  13 active torsions:
REMARK  status: ('A' for Active; 'I' for Inactive)
REMARK    1  A    between atoms: C_2  and  CA_3
REMARK    2  A    between atoms: CA_3  and  N_5
REMARK    3  A    between atoms: CA_3  and  C_23
REMARK    4  A    between atoms: C_6  and  C_8
REMARK    5  A    between atoms: C_8  and  C_17
REMARK    6  A    between atoms: N_9  and  O_10
REMARK    7  A    between atoms: O_10  and  C_11
REMARK    8  A    between atoms: C_11  and  C_12
REMARK    9  A    between atoms: C_11  and  C_13
REMARK   10  A    between atoms: C_11  and  C_14
REMARK   11  A    between atoms: C_14  and  O_15
REMARK   12  A    between atoms: CA_29  and  C_31
REMARK   13  A    between atoms: C_31  and  O_32
REMARK                            x       y       z     vdW  Elec       q    Type
REMARK                         _______ _______ _______ _____ _____    ______ ____
ROOT
ATOM      1  N   UNL     1       2.444  -0.691  -2.343  0.00  0.00    -0.298 N 
ATOM      2  H   UNL     1       3.069  -0.124  -2.913  0.00  0.00    +0.150 HD
ATOM      3  C   UNL     1       1.216  -1.066  -2.841  0.00  0.00    +0.268 C 
ATOM      4  O   UNL     1       0.406  -1.718  -2.195  0.00  0.00    -0.268 OA
ENDROOT
BRANCH   3   5
ATOM      5  C   UNL     1       0.898  -0.655  -4.289  0.00  0.00    +0.190 C 
ATOM      6  N   UNL     1       1.422   0.466  -4.722  0.00  0.00    -0.077 NA
BRANCH   5   7
ATOM      7  C   UNL     1       0.014  -1.516  -5.093  0.00  0.00    +0.107 A 
ATOM      8  N   UNL     1      -0.826  -1.012  -6.097  0.00  0.00    -0.223 NA
ATOM      9  C   UNL     1      -1.561  -1.972  -6.606  0.00  0.00    +0.156 A 
ATOM     10  N   UNL     1      -2.487  -1.763  -7.551  0.00  0.00    -0.338 N 
ATOM     11  H   UNL     1      -2.810  -0.810  -7.692  0.00  0.00    +0.144 HD
ATOM     12  H   UNL     1      -3.195  -2.471  -7.704  0.00  0.00    +0.144 HD
ATOM     13  S   UNL     1      -1.261  -3.539  -5.986  0.00  0.00    -0.060 S 
ATOM     14  C   UNL     1      -0.095  -2.886  -4.919  0.00  0.00    +0.078 A 
ENDBRANCH   5   7
BRANCH   6  15
ATOM     15  O   UNL     1       1.095   0.711  -6.069  0.00  0.00    -0.376 OA
BRANCH  15  16
ATOM     16  C   UNL     1       1.041   2.108  -6.402  0.00  0.00    +0.228 C 
ATOM     17  C   UNL     1       2.398   2.523  -6.968  0.00  0.00    +0.070 C 
ATOM     18  C   UNL     1       0.612   3.001  -5.234  0.00  0.00    +0.070 C 
BRANCH  16  19
ATOM     19  C   UNL     1      -0.007   2.265  -7.519  0.00  0.00    +0.351 C 
ATOM     20  O   UNL     1      -0.226   3.315  -8.112  0.00  0.00    -0.246 OA
BRANCH  19  21
ATOM     21  O   UNL     1      -0.704   1.138  -7.806  0.00  0.00    -0.478 OA
ATOM     22  H   UNL     1      -0.455   0.385  -7.210  0.00  0.00    +0.295 HD
ENDBRANCH  19  21
ENDBRANCH  16  19
ENDBRANCH  15  16
ENDBRANCH   6  15
ENDBRANCH   3   5
BRANCH   1  23
ATOM     23  CA  UNL     1       2.875  -1.107  -0.999  0.00  0.00    +0.171 C 
BRANCH  23  24
ATOM     24  C   UNL     1       3.461  -2.550  -0.962  0.00  0.00    +0.191 C 
ATOM     25  N   UNL     1       4.468  -2.741  -2.010  0.00  0.00    -0.260 NA
ATOM     26  CA  UNL     1       5.711  -2.967  -1.741  0.00  0.00    +0.147 C 
ATOM     27  C   UNL     1       6.370  -2.999  -0.392  0.00  0.00    -0.013 C 
ATOM     28  C   UNL     1       7.676  -3.269  -0.214  0.00  0.00    +0.015 C 
ATOM     29  C   UNL     1       5.547  -2.674   0.815  0.00  0.00    +0.108 C 
ATOM     30  S   UNL     1       3.832  -3.186   0.695  0.00  0.00    -0.127 S 
BRANCH  26  31
ATOM     31  C   UNL     1       6.541  -3.244  -3.039  0.00  0.00    +0.355 C 
ATOM     32  OXT UNL     1       7.721  -3.510  -3.110  0.00  0.00    -0.243 OA
BRANCH  31  33
ATOM     33  O   UNL     1       5.721  -3.169  -4.111  0.00  0.00    -0.476 OA
ATOM     34  H   UNL     1       4.821  -2.957  -3.771  0.00  0.00    +0.295 HD
ENDBRANCH  31  33
ENDBRANCH  26  31
ENDBRANCH  23  24
BRANCH  23  36
ATOM     35  O   UNL     1       4.640   0.543  -1.192  0.00  0.00    -0.299 OA
ATOM     36  C   UNL     1       3.858  -0.081  -0.479  0.00  0.00    +0.248 C 
ENDBRANCH  23  36
ENDBRANCH   1  23
TORSDOF 11
