REMARK  Name = 
REMARK  5 active torsions:
REMARK  status: ('A' for Active; 'I' for Inactive)
REMARK    1  A    between atoms: N_1  and  S_2
REMARK    2  A    between atoms: S_2  and  C_5
REMARK    3  A    between atoms: C_8  and  C_11
REMARK    4  A    between atoms: N_13  and  C_14
REMARK    5  A    between atoms: C_14  and  C_15
REMARK                            x       y       z     vdW  Elec       q    Type
REMARK                         _______ _______ _______ _____ _____    ______ ____
ROOT
ATOM      1  C   UNL     1       4.537   5.361   2.476  0.00  0.00    +0.244 C 
ATOM      2  N   UNL     1       5.660   5.386   3.277  0.00  0.00    -0.307 N 
ATOM      3  H   UNL     1       6.229   4.558   3.374  0.00  0.00    +0.149 HD
ATOM      4  O   UNL     1       3.915   6.365   2.148  0.00  0.00    -0.270 OA
ENDROOT
BRANCH   1   8
ATOM      5  C   UNL     1       3.363   1.558   0.898  0.00  0.00    +0.105 A 
ATOM      6  C   UNL     1       3.951   1.615   2.165  0.00  0.00    +0.029 A 
ATOM      7  C   UNL     1       4.328   2.851   2.700  0.00  0.00    +0.015 A 
ATOM      8  C   UNL     1       4.116   4.026   1.965  0.00  0.00    +0.037 A 
ATOM      9  C   UNL     1       3.477   3.961   0.718  0.00  0.00    +0.015 A 
ATOM     10  C   UNL     1       3.101   2.727   0.179  0.00  0.00    +0.029 A 
BRANCH   5  11
ATOM     11  S   UNL     1       2.984  -0.013   0.178  0.00  0.00    +0.056 S 
ATOM     12  O   UNL     1       3.450  -1.065   1.052  0.00  0.00    -0.153 OA
ATOM     13  O   UNL     1       1.642   0.023  -0.349  0.00  0.00    -0.153 OA
BRANCH  11  14
ATOM     14  N   UNL     1       4.018  -0.042  -1.145  0.00  0.00    -0.204 NA
ATOM     15  H   UNL     1       4.775  -0.707  -0.987  0.00  0.00    +0.144 HD
ATOM     16  H   UNL     1       3.483  -0.220  -1.996  0.00  0.00    +0.144 HD
ENDBRANCH  11  14
ENDBRANCH   5  11
ENDBRANCH   1   8
BRANCH   2  17
ATOM     17  C   UNL     1       6.206   6.629   3.778  0.00  0.00    +0.142 C 
BRANCH  17  18
ATOM     18  C   UNL     1       7.218   7.225   2.839  0.00  0.00    +0.008 A 
ATOM     19  C   UNL     1       8.575   6.894   2.937  0.00  0.00    +0.128 A 
ATOM     20  F   UNL     1       8.980   6.028   3.877  0.00  0.00    -0.205 F 
ATOM     21  C   UNL     1       9.523   7.446   2.078  0.00  0.00    +0.041 A 
ATOM     22  C   UNL     1       9.119   8.345   1.093  0.00  0.00    +0.041 A 
ATOM     23  C   UNL     1       7.772   8.673   0.978  0.00  0.00    +0.124 A 
ATOM     24  F   UNL     1       7.385   9.536   0.030  0.00  0.00    -0.205 F 
ATOM     25  C   UNL     1       6.822   8.120   1.834  0.00  0.00    +0.046 A 
ENDBRANCH  17  18
ENDBRANCH   2  17
TORSDOF 5
