REMARK  Name = 
REMARK  9 active torsions:
REMARK  status: ('A' for Active; 'I' for Inactive)
REMARK    1  A    between atoms: O_1  and  C_2
REMARK    2  A    between atoms: C_2  and  C_3
REMARK    3  A    between atoms: C_3  and  O_5
REMARK    4  A    between atoms: C_3  and  C_6
REMARK    5  A    between atoms: C_6  and  O_7
REMARK    6  A    between atoms: O_7  and  N_8
REMARK    7  A    between atoms: C_9  and  C_11
REMARK    8  A    between atoms: C_19  and  N_20
REMARK    9  A    between atoms: N_20  and  C_21
REMARK                            x       y       z     vdW  Elec       q    Type
REMARK                         _______ _______ _______ _____ _____    ______ ____
ROOT
ATOM      1  C   UNL     1       8.370   1.871   3.623  0.00  0.00    +0.064 A 
ATOM      2  C   UNL     1       8.962   0.601   3.801  0.00  0.00    +0.082 A 
ATOM      3  C   UNL     1      10.376   0.541   3.709  0.00  0.00    +0.181 A 
ATOM      4  F   UNL     1      10.997  -0.645   3.646  0.00  0.00    -0.200 F 
ATOM      5  C   UNL     1      11.169   1.687   3.679  0.00  0.00    +0.174 A 
ATOM      6  F   UNL     1      12.504   1.559   3.680  0.00  0.00    -0.201 F 
ATOM      7  C   UNL     1      10.572   2.931   3.657  0.00  0.00    +0.057 A 
ATOM      8 BR   UNL     1      11.615   4.505   3.677  0.00  0.00    -0.047 Br
ATOM      9  C   UNL     1       9.184   3.024   3.586  0.00  0.00    +0.033 A 
ENDROOT
BRANCH   1  12
ATOM     10  N   UNL     1       5.996   1.285   3.926  0.00  0.00    -0.190 N 
ATOM     11  H   UNL     1       6.224   0.764   4.767  0.00  0.00    +0.183 HD
ATOM     12  C   UNL     1       6.925   2.133   3.367  0.00  0.00    +0.269 C 
ATOM     13  O   UNL     1       6.629   3.094   2.658  0.00  0.00    -0.268 OA
BRANCH  10  14
ATOM     14  O   UNL     1       4.653   1.752   3.825  0.00  0.00    -0.277 OA
BRANCH  14  15
ATOM     15  C   UNL     1       4.089   1.248   2.607  0.00  0.00    +0.223 C 
BRANCH  15  16
ATOM     16  C   UNL     1       2.661   1.752   2.395  0.00  0.00    +0.168 C 
BRANCH  16  17
ATOM     17  O   UNL     1       2.126   1.156   1.201  0.00  0.00    -0.387 OA
ATOM     18  H   UNL     1       1.329   1.689   0.999  0.00  0.00    +0.210 HD
ENDBRANCH  16  17
BRANCH  16  19
ATOM     19  C   UNL     1       2.567   3.275   2.263  0.00  0.00    +0.189 C 
BRANCH  19  20
ATOM     20  O   UNL     1       1.195   3.608   2.002  0.00  0.00    -0.392 OA
ATOM     21  H   UNL     1       1.142   4.581   1.982  0.00  0.00    +0.210 HD
ENDBRANCH  19  20
ENDBRANCH  16  19
ENDBRANCH  15  16
ENDBRANCH  14  15
ENDBRANCH  10  14
ENDBRANCH   1  12
BRANCH   2  22
ATOM     22  N   UNL     1       8.193  -0.591   3.994  0.00  0.00    -0.309 N 
ATOM     23  H   UNL     1       7.790  -0.888   3.102  0.00  0.00    +0.152 HD
BRANCH  22  24
ATOM     24  C   UNL     1       8.637  -1.733   4.739  0.00  0.00    +0.067 A 
ATOM     25  C   UNL     1       9.553  -1.640   5.810  0.00  0.00    +0.145 A 
ATOM     26  F   UNL     1      10.011  -0.446   6.218  0.00  0.00    -0.204 F 
ATOM     27  C   UNL     1      10.036  -2.764   6.477  0.00  0.00    +0.054 A 
ATOM     28  C   UNL     1       9.516  -4.011   6.163  0.00  0.00    +0.016 A 
ATOM     29  I   UNL     1      10.211  -5.693   7.165  0.00  0.00    -0.044 I 
ATOM     30  C   UNL     1       8.518  -4.128   5.193  0.00  0.00    +0.016 A 
ATOM     31  C   UNL     1       8.085  -2.994   4.485  0.00  0.00    +0.027 A 
ENDBRANCH  22  24
ENDBRANCH   2  22
TORSDOF 9
