REMARK  Name = 
REMARK  3 active torsions:
REMARK  status: ('A' for Active; 'I' for Inactive)
REMARK    1  A    between atoms: O_1  and  C_2
REMARK    2  A    between atoms: C_6  and  C_9
REMARK    3  A    between atoms: C_7  and  O_8
REMARK                            x       y       z     vdW  Elec       q    Type
REMARK                         _______ _______ _______ _____ _____    ______ ____
ROOT
ATOM      1  C   UNL     1       2.340   0.265   0.315  0.00  0.00    +0.159 A 
ATOM      2  C   UNL     1       3.036  -0.956   0.388  0.00  0.00    +0.166 A 
ATOM      3  C   UNL     1       4.404  -1.053   0.031  0.00  0.00    +0.030 A 
ATOM      4  C   UNL     1       5.033   0.171  -0.295  0.00  0.00    +0.012 A 
ATOM      5  C   UNL     1       4.361   1.402  -0.256  0.00  0.00    +0.004 A 
ATOM      6  C   UNL     1       3.001   1.447   0.017  0.00  0.00    +0.049 A 
ENDROOT
BRANCH   3   7
ATOM      7  C   UNL     1       5.179  -2.344  -0.036  0.00  0.00    +0.022 A 
ATOM      8  C   UNL     1       4.665  -3.493  -0.700  0.00  0.00    +0.050 A 
ATOM      9 CL   UNL     1       3.214  -3.478  -1.649  0.00  0.00    -0.083 Cl
ATOM     10  C   UNL     1       5.335  -4.735  -0.682  0.00  0.00    +0.021 A 
ATOM     11  C   UNL     1       6.577  -4.857  -0.080  0.00  0.00    +0.003 A 
ATOM     12  C   UNL     1       7.154  -3.740   0.506  0.00  0.00    +0.021 A 
ATOM     13  C   UNL     1       6.462  -2.513   0.553  0.00  0.00    +0.050 A 
ATOM     14 CL   UNL     1       7.307  -1.249   1.395  0.00  0.00    -0.083 Cl
ENDBRANCH   3   7
BRANCH   1  15
ATOM     15  O   UNL     1       0.987   0.285   0.528  0.00  0.00    -0.503 OA
ATOM     16  H   UNL     1       0.624   1.091   0.129  0.00  0.00    +0.292 HD
ENDBRANCH   1  15
BRANCH   2  17
ATOM     17  O   UNL     1       2.297  -2.023   0.841  0.00  0.00    -0.503 OA
ATOM     18  H   UNL     1       2.804  -2.840   0.749  0.00  0.00    +0.292 HD
ENDBRANCH   2  17
TORSDOF 3
