REMARK  Name = 
REMARK  8 active torsions:
REMARK  status: ('A' for Active; 'I' for Inactive)
REMARK    1  A    between atoms: N_8  and  C_9
REMARK    2  A    between atoms: C_12  and  C_14
REMARK    3  A    between atoms: C_14  and  O_15
REMARK    4  A    between atoms: C_16  and  O_18
REMARK    5  A    between atoms: O_18  and  P_19
REMARK    6  A    between atoms: P_19  and  O_20
REMARK    7  A    between atoms: P_19  and  O_21
REMARK    8  A    between atoms: C_23  and  O_25
REMARK                            x       y       z     vdW  Elec       q    Type
REMARK                         _______ _______ _______ _____ _____    ______ ____
ROOT
ATOM      1  C   UNL     1       5.221  -3.869  -0.270  0.00  0.00    +0.253 C 
ATOM      2  C   UNL     1       5.056  -4.253   1.204  0.00  0.00    +0.196 C 
ATOM      3  C   UNL     1       5.199  -5.776   1.251  0.00  0.00    +0.194 C 
ATOM      4  C   UNL     1       5.436  -6.186  -0.195  0.00  0.00    +0.178 C 
ATOM      5  O   UNL     1       5.907  -4.994  -0.870  0.00  0.00    -0.346 OA
ENDROOT
BRANCH   1  17
ATOM      6  N   UNL     1       1.769  -0.340   1.638  0.00  0.00    -0.329 N 
ATOM      7  H   UNL     1       0.863  -0.209   2.070  0.00  0.00    +0.145 HD
ATOM      8  H   UNL     1       2.535  -0.361   2.305  0.00  0.00    +0.145 HD
ATOM      9  C   UNL     1       1.883  -1.250   0.641  0.00  0.00    +0.195 A 
ATOM     10  N   UNL     1       0.768  -1.417  -0.157  0.00  0.00    -0.293 N 
ATOM     11  H   UNL     1      -0.054  -0.858  -0.001  0.00  0.00    +0.172 HD
ATOM     12  C   UNL     1       0.699  -2.273  -1.251  0.00  0.00    +0.280 A 
ATOM     13  O   UNL     1      -0.320  -2.378  -1.927  0.00  0.00    -0.265 OA
ATOM     14  C   UNL     1       1.936  -2.999  -1.446  0.00  0.00    +0.172 A 
ATOM     15  N   UNL     1       2.276  -3.924  -2.400  0.00  0.00    -0.229 NA
ATOM     16  C   UNL     1       3.515  -4.258  -2.102  0.00  0.00    +0.203 A 
ATOM     17  N   UNL     1       3.958  -3.637  -0.961  0.00  0.00    -0.285 N 
ATOM     18  C   UNL     1       2.967  -2.777  -0.572  0.00  0.00    +0.171 A 
ATOM     19  N   UNL     1       2.996  -1.919   0.483  0.00  0.00    -0.196 NA
ENDBRANCH   1  17
BRANCH   2  20
ATOM     20  O   UNL     1       6.047  -3.671   2.059  0.00  0.00    -0.385 OA
ATOM     21  H   UNL     1       6.935  -3.871   1.707  0.00  0.00    +0.210 HD
ENDBRANCH   2  20
BRANCH   3  22
ATOM     22  O   UNL     1       3.999  -6.364   1.761  0.00  0.00    -0.278 OA
BRANCH  22  23
ATOM     23  P   UNL     1       3.752  -5.841   3.391  0.00  0.00    +0.473 P 
ATOM     24  O   UNL     1       3.531  -5.372   4.850  0.00  0.00    -0.228 OA
BRANCH  23  25
ATOM     25  O   UNL     1       4.196  -7.373   3.748  0.00  0.00    -0.303 OA
ATOM     26  H   UNL     1       3.447  -7.943   3.496  0.00  0.00    +0.222 HD
ENDBRANCH  23  25
BRANCH  23  27
ATOM     27  O   UNL     1       2.184  -6.223   3.110  0.00  0.00    -0.303 OA
ATOM     28  H   UNL     1       1.741  -5.535   2.584  0.00  0.00    +0.222 HD
ENDBRANCH  23  27
ENDBRANCH  22  23
ENDBRANCH   3  22
BRANCH   4  29
ATOM     29  C   UNL     1       6.478  -7.287  -0.342  0.00  0.00    +0.190 C 
BRANCH  29  30
ATOM     30  O   UNL     1       7.714  -6.879   0.245  0.00  0.00    -0.392 OA
ATOM     31  H   UNL     1       8.022  -6.113  -0.273  0.00  0.00    +0.210 HD
ENDBRANCH  29  30
ENDBRANCH   4  29
TORSDOF 8
