REMARK  Name = 
REMARK  4 active torsions:
REMARK  status: ('A' for Active; 'I' for Inactive)
REMARK    1  A    between atoms: C_1  and  C_2
REMARK    2  A    between atoms: C_2  and  C_4
REMARK    3  A    between atoms: C_2  and  C_8
REMARK    4  A    between atoms: C_4  and  C_5
REMARK                            x       y       z     vdW  Elec       q    Type
REMARK                         _______ _______ _______ _____ _____    ______ ____
ROOT
ATOM      1  C   UNL     1       2.994   0.453   1.390  0.00  0.00    +0.015 C 
ATOM      2  C   UNL     1       2.648   0.044  -0.039  0.00  0.00    +0.049 C 
ENDROOT
BRANCH   2   3
ATOM      3  C   UNL     1       3.246   1.065  -0.990  0.00  0.00    +0.226 C 
ATOM      4  O   UNL     1       3.985   0.796  -1.932  0.00  0.00    -0.301 OA
ENDBRANCH   2   3
BRANCH   2   5
ATOM      5  C   UNL     1       3.123  -1.373  -0.388  0.00  0.00    +0.014 C 
BRANCH   5   6
ATOM      6  C   UNL     1       2.552  -2.429   0.516  0.00  0.00    -0.010 C 
ATOM      7  C   UNL     1       1.969  -3.691  -0.070  0.00  0.00    +0.004 C 
ATOM      8  C   UNL     1       1.067  -2.682   0.582  0.00  0.00    +0.004 C 
ENDBRANCH   5   6
ENDBRANCH   2   5
TORSDOF 3
