REMARK  Name = 
REMARK  6 active torsions:
REMARK  status: ('A' for Active; 'I' for Inactive)
REMARK    1  A    between atoms: C_1  and  N_2
REMARK    2  A    between atoms: C_8  and  C_10
REMARK    3  A    between atoms: C_10  and  O_11
REMARK    4  A    between atoms: C_12  and  O_14
REMARK    5  A    between atoms: C_15  and  O_17
REMARK    6  A    between atoms: C_18  and  O_20
REMARK                            x       y       z     vdW  Elec       q    Type
REMARK                         _______ _______ _______ _____ _____    ______ ____
ROOT
ATOM      1  C   UNL     1       0.940  -0.175   0.199  0.00  0.00    +0.143 C 
ATOM      2  N   UNL     1       2.373  -0.174   0.059  0.00  0.00    -0.225 N 
ATOM      3  C   UNL     1       3.033  -0.236  -1.130  0.00  0.00    +0.276 C 
ATOM      4  O   UNL     1       2.524  -0.389  -2.234  0.00  0.00    -0.270 OA
ATOM      5  C   UNL     1       4.544  -0.024  -0.874  0.00  0.00    +0.244 C 
ATOM      6  C   UNL     1       5.405  -1.011  -1.684  0.00  0.00    +0.205 C 
ATOM      7  C   UNL     1       5.667  -0.486  -3.110  0.00  0.00    +0.179 C 
ATOM      8  C   UNL     1       6.185   0.959  -3.060  0.00  0.00    +0.177 C 
ATOM      9  C   UNL     1       5.261   1.876  -2.241  0.00  0.00    +0.178 C 
ATOM     10  O   UNL     1       4.951   1.330  -0.947  0.00  0.00    -0.338 OA
ATOM     11  N   UNL     1       4.532  -0.317   0.535  0.00  0.00    -0.261 N 
ATOM     12  H   UNL     1       5.363  -0.320   1.110  0.00  0.00    +0.154 HD
ATOM     13  C   UNL     1       3.270  -0.278   1.078  0.00  0.00    +0.311 C 
ATOM     14  O   UNL     1       3.032  -0.365   2.266  0.00  0.00    -0.252 OA
ENDROOT
BRANCH   6  15
ATOM     15  O   UNL     1       6.668  -1.229  -1.012  0.00  0.00    -0.384 OA
ATOM     16  H   UNL     1       7.245  -0.464  -1.230  0.00  0.00    +0.210 HD
ENDBRANCH   6  15
BRANCH   7  17
ATOM     17  O   UNL     1       4.554  -0.570  -3.998  0.00  0.00    -0.386 OA
ATOM     18  H   UNL     1       3.716  -0.737  -3.520  0.00  0.00    +0.210 HD
ENDBRANCH   7  17
BRANCH   8  19
ATOM     19  O   UNL     1       7.481   0.937  -2.431  0.00  0.00    -0.386 OA
ATOM     20  H   UNL     1       7.881   1.817  -2.564  0.00  0.00    +0.210 HD
ENDBRANCH   8  19
BRANCH   9  21
ATOM     21  C   UNL     1       4.017   2.347  -3.012  0.00  0.00    +0.190 C 
BRANCH  21  22
ATOM     22  O   UNL     1       3.317   3.348  -2.274  0.00  0.00    -0.392 OA
ATOM     23  H   UNL     1       2.857   2.906  -1.538  0.00  0.00    +0.210 HD
ENDBRANCH  21  22
ENDBRANCH   9  21
TORSDOF 5
