REMARK  Name = 
REMARK  5 active torsions:
REMARK  status: ('A' for Active; 'I' for Inactive)
REMARK    1  A    between atoms: C_1  and  N_2
REMARK    2  A    between atoms: C_4  and  C_12
REMARK    3  A    between atoms: C_7  and  C_8
REMARK    4  A    between atoms: C_14  and  C_15
REMARK    5  A    between atoms: C_15  and  O_16
REMARK                            x       y       z     vdW  Elec       q    Type
REMARK                         _______ _______ _______ _____ _____    ______ ____
ROOT
ATOM      1  C   UNL     1       6.487   0.929  -0.229  0.00  0.00    +0.039 A 
ATOM      2  C   UNL     1       7.579   0.294  -0.825  0.00  0.00    +0.134 A 
ATOM      3  F   UNL     1       7.454  -0.906  -1.409  0.00  0.00    -0.205 F 
ATOM      4  C   UNL     1       8.833   0.894  -0.893  0.00  0.00    +0.059 A 
ATOM      5  C   UNL     1       9.011   2.196  -0.432  0.00  0.00    +0.058 A 
ATOM      6 CL   UNL     1      10.608   2.843  -0.537  0.00  0.00    -0.083 Cl
ATOM      7  C   UNL     1       7.917   2.905   0.074  0.00  0.00    +0.078 A 
ATOM      8  C   UNL     1       6.666   2.255   0.202  0.00  0.00    +0.029 A 
ENDROOT
BRANCH   1  14
ATOM      9  C   UNL     1       1.673   0.488  -0.139  0.00  0.00    +0.173 C 
ATOM     10  N   UNL     1       3.050   0.038  -0.126  0.00  0.00    -0.261 N 
ATOM     11  C   UNL     1       3.506  -1.241   0.008  0.00  0.00    +0.156 A 
ATOM     12  C   UNL     1       4.870  -1.114   0.136  0.00  0.00    +0.075 A 
ATOM     13 BR   UNL     1       6.043  -2.519   0.566  0.00  0.00    -0.046 Br
ATOM     14  C   UNL     1       5.184   0.253  -0.106  0.00  0.00    +0.110 A 
ATOM     15  N   UNL     1       4.039   0.953  -0.225  0.00  0.00    -0.170 NA
BRANCH  11  16
ATOM     16  C   UNL     1       2.650  -2.439   0.006  0.00  0.00    +0.435 C 
ATOM     17  F   UNL     1       2.784  -3.161   1.144  0.00  0.00    -0.164 F 
ATOM     18  F   UNL     1       2.960  -3.263  -1.027  0.00  0.00    -0.164 F 
ATOM     19  F   UNL     1       1.329  -2.156  -0.117  0.00  0.00    -0.164 F 
ENDBRANCH  11  16
ENDBRANCH   1  14
BRANCH   7  20
ATOM     20  C   UNL     1       7.982   4.326   0.504  0.00  0.00    +0.338 C 
ATOM     21  O   UNL     1       7.248   4.769   1.374  0.00  0.00    -0.245 OA
BRANCH  20  22
ATOM     22  O   UNL     1       8.821   5.112  -0.200  0.00  0.00    -0.477 OA
ATOM     23  H   UNL     1       9.412   4.655  -0.832  0.00  0.00    +0.295 HD
ENDBRANCH  20  22
ENDBRANCH   7  20
TORSDOF 4
