REMARK  Name = 
REMARK  12 active torsions:
REMARK  status: ('A' for Active; 'I' for Inactive)
REMARK    1  A    between atoms: O_1  and  C_2
REMARK    2  A    between atoms: C_2  and  C_3
REMARK    3  A    between atoms: C_3  and  C_4
REMARK    4  A    between atoms: C_3  and  C_5
REMARK    5  A    between atoms: C_3  and  C_6
REMARK    6  A    between atoms: C_6  and  O_8
REMARK    7  A    between atoms: C_6  and  C_9
REMARK    8  A    between atoms: N_11  and  C_12
REMARK    9  A    between atoms: C_12  and  C_13
REMARK   10  A    between atoms: C_13  and  C_14
REMARK   11  A    between atoms: N_16  and  C_17
REMARK   12  A    between atoms: C_18  and  S_19
REMARK                            x       y       z     vdW  Elec       q    Type
REMARK                         _______ _______ _______ _____ _____    ______ ____
ROOT
ATOM      1  C   UNL     1       4.934   2.029  -2.112  0.00  0.00    +0.242 C 
ATOM      2  N   UNL     1       6.308   2.143  -2.241  0.00  0.00    -0.313 N 
ATOM      3  H   UNL     1       6.839   1.389  -1.806  0.00  0.00    +0.149 HD
ATOM      4  O   UNL     1       4.145   2.737  -2.733  0.00  0.00    -0.273 OA
ENDROOT
BRANCH   1   5
ATOM      5  C   UNL     1       4.470   0.974  -1.080  0.00  0.00    +0.208 C 
BRANCH   5   6
ATOM      6  C   UNL     1       3.536  -0.135  -1.666  0.00  0.00    +0.023 C 
ATOM      7  C   UNL     1       2.325   0.449  -2.420  0.00  0.00    +0.016 C 
ATOM      8  C   UNL     1       4.321  -1.052  -2.627  0.00  0.00    +0.016 C 
BRANCH   6   9
ATOM      9  C   UNL     1       2.960  -0.991  -0.508  0.00  0.00    +0.165 C 
BRANCH   9  10
ATOM     10  O   UNL     1       4.000  -1.556   0.286  0.00  0.00    -0.394 OA
ATOM     11  H   UNL     1       3.575  -2.207   0.876  0.00  0.00    +0.209 HD
ENDBRANCH   9  10
ENDBRANCH   6   9
ENDBRANCH   5   6
BRANCH   5  12
ATOM     12  O   UNL     1       5.615   0.398  -0.430  0.00  0.00    -0.382 OA
ATOM     13  H   UNL     1       5.269  -0.366   0.084  0.00  0.00    +0.210 HD
ENDBRANCH   5  12
ENDBRANCH   1   5
BRANCH   2  14
ATOM     14  C   UNL     1       6.884   2.981  -3.276  0.00  0.00    +0.113 C 
BRANCH  14  15
ATOM     15  C   UNL     1       8.239   3.576  -2.904  0.00  0.00    +0.115 C 
BRANCH  15  16
ATOM     16  C   UNL     1       8.695   4.512  -4.011  0.00  0.00    +0.218 C 
ATOM     17  N   UNL     1       9.893   5.155  -3.745  0.00  0.00    -0.291 N 
ATOM     18  H   UNL     1      10.377   4.952  -2.878  0.00  0.00    +0.154 HD
ATOM     19  O   UNL     1       8.060   4.677  -5.050  0.00  0.00    -0.275 OA
BRANCH  17  20
ATOM     20  C   UNL     1      10.451   6.051  -4.627  0.00  0.00    +0.081 C 
ATOM     21  C   UNL     1      11.616   6.672  -4.405  0.00  0.00    +0.052 C 
BRANCH  21  22
ATOM     22  S   UNL     1      12.292   7.799  -5.533  0.00  0.00    -0.149 S 
ATOM     23  H   UNL     1      11.335   7.779  -6.475  0.00  0.00    +0.107 HD
ENDBRANCH  21  22
ENDBRANCH  17  20
ENDBRANCH  15  16
ENDBRANCH  14  15
ENDBRANCH   2  14
TORSDOF 10
