REMARK  Name = 
REMARK  4 active torsions:
REMARK  status: ('A' for Active; 'I' for Inactive)
REMARK    1  A    between atoms: C_2  and  C_3
REMARK    2  A    between atoms: C_3  and  C_4
REMARK    3  A    between atoms: C_4  and  C_5
REMARK    4  A    between atoms: C_5  and  C_6
REMARK                            x       y       z     vdW  Elec       q    Type
REMARK                         _______ _______ _______ _____ _____    ______ ____
ROOT
ATOM      1  C   UNL     1       4.460   0.583   0.969  0.00  0.00    +0.014 C 
ENDROOT
BRANCH   1   2
ATOM      2  C   UNL     1       2.960   0.718   1.200  0.00  0.00    +0.071 C 
BRANCH   2   4
ATOM      3  O   UNL     1       1.353  -0.841   0.318  0.00  0.00    -0.301 OA
ATOM      4  C   UNL     1       2.201   0.019   0.103  0.00  0.00    +0.223 C 
ENDBRANCH   2   4
ENDBRANCH   1   2
BRANCH   1   5
ATOM      5  C   UNL     1       5.258   1.268   2.073  0.00  0.00    +0.071 C 
BRANCH   5   6
ATOM      6  C   UNL     1       6.748   1.145   1.866  0.00  0.00    +0.223 C 
ATOM      7  O   UNL     1       7.271   0.591   0.904  0.00  0.00    -0.301 OA
ENDBRANCH   5   6
ENDBRANCH   1   5
TORSDOF 4
