REMARK  Name = 
REMARK  3 active torsions:
REMARK  status: ('A' for Active; 'I' for Inactive)
REMARK    1  A    between atoms: C_1  and  C_2
REMARK    2  A    between atoms: C_5  and  N_11
REMARK    3  A    between atoms: C_8  and  O_10
REMARK                            x       y       z     vdW  Elec       q    Type
REMARK                         _______ _______ _______ _____ _____    ______ ____
ROOT
ATOM      1  N   UNL     1       5.467   0.799  -0.081  0.00  0.00    -0.274 N 
ATOM      2  C   UNL     1       6.137  -0.191  -0.789  0.00  0.00    +0.331 A 
ATOM      3  O   UNL     1       6.077  -1.396  -0.566  0.00  0.00    -0.246 OA
ATOM      4  N   UNL     1       6.925   0.249  -1.827  0.00  0.00    -0.275 N 
ATOM      5  H   UNL     1       7.392  -0.461  -2.368  0.00  0.00    +0.173 HD
ATOM      6  C   UNL     1       7.067   1.538  -2.248  0.00  0.00    +0.254 A 
ATOM      7  O   UNL     1       7.727   1.854  -3.231  0.00  0.00    -0.268 OA
ATOM      8  C   UNL     1       6.369   2.546  -1.444  0.00  0.00    +0.088 A 
ATOM      9  C   UNL     1       5.616   2.139  -0.421  0.00  0.00    +0.098 A 
ENDROOT
BRANCH   1  14
ATOM     10  C   UNL     1       1.096   0.089  -0.021  0.00  0.00    +0.040 C 
ATOM     11  C   UNL     1       2.601  -0.101  -0.051  0.00  0.00    +0.146 C 
ATOM     12  C   UNL     1       3.071  -1.372   0.659  0.00  0.00    +0.147 C 
ATOM     13  C   UNL     1       4.269  -0.921   1.482  0.00  0.00    +0.088 C 
ATOM     14  C   UNL     1       4.535   0.509   1.024  0.00  0.00    +0.226 C 
ATOM     15  O   UNL     1       3.235   0.993   0.634  0.00  0.00    -0.351 OA
BRANCH  12  16
ATOM     16  O   UNL     1       3.369  -2.398  -0.277  0.00  0.00    -0.389 OA
ATOM     17  H   UNL     1       4.284  -2.705  -0.131  0.00  0.00    +0.210 HD
ENDBRANCH  12  16
ENDBRANCH   1  14
TORSDOF 2
