REMARK  Name = 
REMARK  27 active torsions:
REMARK  status: ('A' for Active; 'I' for Inactive)
REMARK    1  A    between atoms: C_1  and  C_2
REMARK    2  A    between atoms: C_6  and  C_8
REMARK    3  A    between atoms: N_14  and  C_15
REMARK    4  A    between atoms: C_18  and  C_19
REMARK    5  A    between atoms: C_19  and  C_20
REMARK    6  A    between atoms: C_20  and  O_22
REMARK    7  A    between atoms: C_20  and  C_23
REMARK    8  A    between atoms: C_23  and  O_25
REMARK    9  A    between atoms: C_23  and  C_26
REMARK   10  A    between atoms: C_26  and  O_28
REMARK   11  A    between atoms: C_26  and  C_29
REMARK   12  A    between atoms: C_29  and  O_30
REMARK   13  A    between atoms: O_30  and  C_31
REMARK   14  A    between atoms: C_34  and  C_36
REMARK   15  A    between atoms: C_36  and  O_37
REMARK   16  A    between atoms: O_37  and  P_38
REMARK   17  A    between atoms: P_38  and  O_39
REMARK   18  A    between atoms: P_38  and  O_41
REMARK   19  A    between atoms: O_41  and  C_42
REMARK   20  A    between atoms: C_42  and  C_44
REMARK   21  A    between atoms: C_42  and  C_49
REMARK   22  A    between atoms: C_44  and  C_45
REMARK   23  A    between atoms: C_45  and  C_46
REMARK   24  A    between atoms: C_46  and  O_47
REMARK   25  A    between atoms: C_49  and  O_50
REMARK   26  A    between atoms: C_52  and  O_54
REMARK   27  A    between atoms: C_55  and  O_57
REMARK                            x       y       z     vdW  Elec       q    Type
REMARK                         _______ _______ _______ _____ _____    ______ ____
ROOT
ATOM      1  C   UNL     1       2.308  -5.255  -7.622  0.00  0.00    +0.174 C 
ENDROOT
BRANCH   1   2
ATOM      2  O   UNL     1       2.252  -3.860  -7.301  0.00  0.00    -0.387 OA
ATOM      3  H   UNL     1       1.457  -3.482  -7.712  0.00  0.00    +0.210 HD
ENDBRANCH   1   2
BRANCH   1   4
ATOM      4  C   UNL     1       3.736  -5.795  -7.382  0.00  0.00    +0.171 C 
BRANCH   4   5
ATOM      5  O   UNL     1       4.102  -5.693  -5.994  0.00  0.00    -0.387 OA
ATOM      6  H   UNL     1       5.030  -5.992  -5.951  0.00  0.00    +0.210 HD
ENDBRANCH   4   5
BRANCH   4   7
ATOM      7  C   UNL     1       4.783  -5.054  -8.215  0.00  0.00    +0.197 C 
BRANCH   7   8
ATOM      8  O   UNL     1       6.022  -5.765  -8.066  0.00  0.00    -0.346 OA
BRANCH   8   9
ATOM      9  C   UNL     1       7.116  -5.085  -8.666  0.00  0.00    +0.282 C 
ATOM     10  C   UNL     1       7.044  -5.071 -10.199  0.00  0.00    +0.201 C 
ATOM     11  C   UNL     1       8.489  -5.279 -10.647  0.00  0.00    +0.179 C 
ATOM     12  C   UNL     1       9.295  -5.404  -9.351  0.00  0.00    +0.179 C 
ATOM     13  O   UNL     1       8.331  -5.778  -8.349  0.00  0.00    -0.341 OA
BRANCH  11  14
ATOM     14  O   UNL     1       8.561  -6.494 -11.409  0.00  0.00    -0.386 OA
ATOM     15  H   UNL     1       8.278  -7.230 -10.832  0.00  0.00    +0.210 HD
ENDBRANCH  11  14
BRANCH  10  16
ATOM     16  O   UNL     1       6.528  -3.831 -10.689  0.00  0.00    -0.384 OA
ATOM     17  H   UNL     1       6.474  -3.914 -11.659  0.00  0.00    +0.210 HD
ENDBRANCH  10  16
BRANCH  12  18
ATOM     18  C   UNL     1       9.992  -4.091  -8.943  0.00  0.00    +0.206 C 
BRANCH  18  19
ATOM     19  O   UNL     1      10.674  -4.276  -7.706  0.00  0.00    -0.284 OA
BRANCH  19  20
ATOM     20  P   UNL     1      11.602  -3.090  -7.156  0.00  0.00    +0.476 P 
ATOM     21  O   UNL     1      12.098  -2.132  -8.183  0.00  0.00    -0.227 OA
BRANCH  20  22
ATOM     22  O   UNL     1      12.789  -3.898  -6.449  0.00  0.00    -0.302 OA
ATOM     23  H   UNL     1      13.473  -4.144  -7.098  0.00  0.00    +0.222 HD
ENDBRANCH  20  22
BRANCH  20  24
ATOM     24  O   UNL     1      10.802  -2.424  -5.928  0.00  0.00    -0.272 OA
BRANCH  24  25
ATOM     25  C   UNL     1      11.547  -1.919  -4.811  0.00  0.00    +0.239 C 
BRANCH  25  26
ATOM     26  C   UNL     1      10.568  -1.495  -3.727  0.00  0.00    +0.335 C 
ATOM     27  O   UNL     1      10.826  -1.493  -2.525  0.00  0.00    -0.248 OA
BRANCH  26  28
ATOM     28  O   UNL     1       9.401  -1.011  -4.220  0.00  0.00    -0.479 OA
ATOM     29  H   UNL     1       9.370  -1.144  -5.195  0.00  0.00    +0.295 HD
ENDBRANCH  26  28
ENDBRANCH  25  26
BRANCH  25  30
ATOM     30  C   UNL     1      12.425  -0.722  -5.213  0.00  0.00    +0.055 C 
BRANCH  30  31
ATOM     31  C   UNL     1      13.201  -0.125  -4.035  0.00  0.00    +0.123 C 
BRANCH  31  32
ATOM     32  C   UNL     1      14.027   1.074  -4.432  0.00  0.00    +0.305 C 
ATOM     33  O   UNL     1      14.119   1.524  -5.563  0.00  0.00    -0.251 OA
BRANCH  32  34
ATOM     34  O   UNL     1      14.672   1.619  -3.373  0.00  0.00    -0.481 OA
ATOM     35  H   UNL     1      14.486   1.175  -2.525  0.00  0.00    +0.295 HD
ENDBRANCH  32  34
ENDBRANCH  31  32
ENDBRANCH  30  31
ENDBRANCH  25  30
ENDBRANCH  24  25
ENDBRANCH  20  24
ENDBRANCH  19  20
ENDBRANCH  18  19
ENDBRANCH  12  18
ENDBRANCH   8   9
ENDBRANCH   7   8
ENDBRANCH   4   7
ENDBRANCH   1   4
BRANCH   1  36
ATOM     36  C   UNL     1       1.292  -6.086  -6.807  0.00  0.00    +0.150 C 
BRANCH  36  37
ATOM     37  O   UNL     1       1.356  -7.450  -7.254  0.00  0.00    -0.389 OA
ATOM     38  H   UNL     1       0.791  -7.965  -6.648  0.00  0.00    +0.210 HD
ENDBRANCH  36  37
BRANCH  36  39
ATOM     39  C   UNL     1      -0.156  -5.599  -6.977  0.00  0.00    +0.069 C 
BRANCH  39  43
ATOM     40  C   UNL     1      -3.049  -7.391  -4.245  0.00  0.00    +0.031 A 
ATOM     41  C   UNL     1      -3.190  -7.503  -5.634  0.00  0.00    +0.023 A 
ATOM     42  C   UNL     1      -2.246  -6.963  -6.521  0.00  0.00    +0.005 A 
ATOM     43  C   UNL     1      -1.122  -6.289  -6.039  0.00  0.00    -0.045 A 
ATOM     44  C   UNL     1      -0.931  -6.226  -4.659  0.00  0.00    +0.005 A 
ATOM     45  C   UNL     1      -1.866  -6.787  -3.789  0.00  0.00    +0.023 A 
BRANCH  40  48
ATOM     46  C   UNL     1      -5.015  -9.947  -4.105  0.00  0.00    +0.030 C 
ATOM     47  C   UNL     1      -5.270  -8.494  -3.701  0.00  0.00    +0.094 C 
ATOM     48  N   UNL     1      -3.996  -7.847  -3.342  0.00  0.00    -0.309 N 
ATOM     49  C   UNL     1      -4.119  -7.124  -2.071  0.00  0.00    +0.214 C 
ATOM     50  N   UNL     1      -5.400  -7.497  -1.534  0.00  0.00    -0.301 N 
ATOM     51  C   UNL     1      -6.055  -6.903  -0.449  0.00  0.00    +0.137 A 
ATOM     52  C   UNL     1      -5.305  -6.063   0.531  0.00  0.00    +0.276 A 
ATOM     53  N   UNL     1      -6.034  -5.607   1.586  0.00  0.00    -0.294 N 
ATOM     54  H   UNL     1      -5.531  -5.087   2.283  0.00  0.00    +0.172 HD
ATOM     55  C   UNL     1      -7.364  -5.837   1.708  0.00  0.00    +0.195 A 
ATOM     56  N   UNL     1      -8.052  -6.499   0.836  0.00  0.00    -0.199 NA
ATOM     57  N   UNL     1      -7.961  -5.318   2.810  0.00  0.00    -0.329 N 
ATOM     58  H   UNL     1      -8.973  -5.333   2.747  0.00  0.00    +0.145 HD
ATOM     59  H   UNL     1      -7.590  -4.451   3.169  0.00  0.00    +0.145 HD
ATOM     60  O   UNL     1      -4.115  -5.779   0.414  0.00  0.00    -0.266 OA
ATOM     61  C   UNL     1      -7.395  -7.040  -0.245  0.00  0.00    +0.149 A 
ATOM     62  N   UNL     1      -8.143  -7.750  -1.200  0.00  0.00    -0.323 N 
ATOM     63  H   UNL     1      -9.121  -7.477  -1.145  0.00  0.00    +0.148 HD
ATOM     64  C   UNL     1      -7.581  -7.960  -2.556  0.00  0.00    +0.091 C 
ATOM     65  C   UNL     1      -8.445  -8.948  -3.326  0.00  0.00    +0.030 C 
ATOM     66  C   UNL     1      -6.110  -8.444  -2.402  0.00  0.00    +0.115 C 
ENDBRANCH  40  48
ENDBRANCH  39  43
ENDBRANCH  36  39
ENDBRANCH   1  36
TORSDOF 25
