REMARK  Name = 
REMARK  7 active torsions:
REMARK  status: ('A' for Active; 'I' for Inactive)
REMARK    1  A    between atoms: C_1  and  O_2
REMARK    2  A    between atoms: O_2  and  C_3
REMARK    3  A    between atoms: C_7  and  N_9
REMARK    4  A    between atoms: C_10  and  C_11
REMARK    5  A    between atoms: C_11  and  N_12
REMARK    6  A    between atoms: C_22  and  S_24
REMARK    7  A    between atoms: S_24  and  N_25
REMARK                            x       y       z     vdW  Elec       q    Type
REMARK                         _______ _______ _______ _____ _____    ______ ____
ROOT
ATOM      1  N   UNL     1       5.667   1.199   3.434  0.00  0.00    -0.174 N 
ATOM      2  S   UNL     1       6.059  -0.473   3.225  0.00  0.00    +0.086 S 
ATOM      3  O   UNL     1       6.412  -0.721   1.843  0.00  0.00    -0.149 OA
ATOM      4  O   UNL     1       5.116  -1.293   3.954  0.00  0.00    -0.149 OA
ATOM      5  C   UNL     1       7.563  -0.616   4.093  0.00  0.00    +0.155 A 
ATOM      6  S   UNL     1       8.186  -2.124   4.514  0.00  0.00    -0.048 S 
ATOM      7  C   UNL     1       9.564  -1.389   5.232  0.00  0.00    +0.145 A 
ATOM      8  C   UNL     1       9.528  -0.006   5.124  0.00  0.00    +0.046 A 
ATOM      9  C   UNL     1       8.354   0.434   4.456  0.00  0.00    +0.012 A 
ATOM     10  C   UNL     1       7.960   1.756   4.080  0.00  0.00    +0.032 C 
ATOM     11  C   UNL     1       6.779   2.160   3.540  0.00  0.00    +0.049 C 
ENDROOT
BRANCH   1  14
ATOM     12  C   UNL     1       2.025   1.260   2.627  0.00  0.00    +0.122 A 
ATOM     13  C   UNL     1       3.219   1.255   3.358  0.00  0.00    +0.070 A 
ATOM     14  C   UNL     1       4.447   1.522   2.730  0.00  0.00    +0.060 A 
ATOM     15  C   UNL     1       4.463   1.775   1.356  0.00  0.00    +0.025 A 
ATOM     16  C   UNL     1       3.279   1.749   0.619  0.00  0.00    +0.005 A 
ATOM     17  C   UNL     1       2.065   1.475   1.250  0.00  0.00    +0.046 A 
BRANCH  12  19
ATOM     18  C   UNL     1      -0.327   1.458   2.749  0.00  0.00    +0.277 C 
ATOM     19  O   UNL     1       0.884   0.984   3.335  0.00  0.00    -0.495 OA
ENDBRANCH  12  19
ENDBRANCH   1  14
BRANCH   7  20
ATOM     20  S   UNL     1      10.718  -2.510   5.979  0.00  0.00    +0.062 S 
ATOM     21  O   UNL     1      11.624  -1.666   6.715  0.00  0.00    -0.153 OA
ATOM     22  O   UNL     1      11.141  -3.402   4.927  0.00  0.00    -0.153 OA
BRANCH  20  23
ATOM     23  N   UNL     1       9.845  -3.404   7.100  0.00  0.00    -0.203 NA
ATOM     24  H   UNL     1       9.538  -2.833   7.885  0.00  0.00    +0.144 HD
ATOM     25  H   UNL     1       9.110  -3.959   6.661  0.00  0.00    +0.144 HD
ENDBRANCH  20  23
ENDBRANCH   7  20
BRANCH  11  26
ATOM     26  C   UNL     1       6.626   3.627   3.129  0.00  0.00    +0.137 C 
BRANCH  26  27
ATOM     27  N   UNL     1       5.532   4.371   3.759  0.00  0.00    -0.293 NA
ATOM     28  C   UNL     1       5.316   5.683   3.106  0.00  0.00    +0.113 C 
ATOM     29  C   UNL     1       6.294   6.792   3.533  0.00  0.00    +0.175 C 
ATOM     30  O   UNL     1       6.315   6.948   4.955  0.00  0.00    -0.377 OA
ATOM     31  C   UNL     1       6.677   5.718   5.590  0.00  0.00    +0.175 C 
ATOM     32  C   UNL     1       5.711   4.581   5.211  0.00  0.00    +0.113 C 
ENDBRANCH  26  27
ENDBRANCH  11  26
TORSDOF 6
