REMARK  Name = 
REMARK  4 active torsions:
REMARK  status: ('A' for Active; 'I' for Inactive)
REMARK    1  A    between atoms: O_1  and  C_2
REMARK    2  A    between atoms: C_3  and  N_14
REMARK    3  A    between atoms: C_5  and  N_11
REMARK    4  A    between atoms: C_7  and  N_8
REMARK                            x       y       z     vdW  Elec       q    Type
REMARK                         _______ _______ _______ _____ _____    ______ ____
ROOT
ATOM      1  C   UNL     1       2.297   0.052  -0.068  0.00  0.00    +0.274 A 
ATOM      2  C   UNL     1       3.047  -1.132  -0.074  0.00  0.00    +0.327 A 
ATOM      3  C   UNL     1       4.449  -1.134  -0.067  0.00  0.00    +0.172 A 
ATOM      4  C   UNL     1       5.120   0.092  -0.067  0.00  0.00    +0.286 A 
ATOM      5  C   UNL     1       4.404   1.299  -0.073  0.00  0.00    +0.172 A 
ATOM      6  C   UNL     1       2.995   1.273  -0.073  0.00  0.00    +0.327 A 
ENDROOT
BRANCH   2   7
ATOM      7  N   UNL     1       2.377  -2.420  -0.086  0.00  0.00    +0.084 N 
ATOM      8  O   UNL     1       2.610  -3.172   0.869  0.00  0.00    +0.042 OA
ATOM      9  O   UNL     1       1.696  -2.695  -1.081  0.00  0.00    -0.576 OA
ENDBRANCH   2   7
BRANCH   4  10
ATOM     10  N   UNL     1       6.590   0.117  -0.062  0.00  0.00    +0.080 N 
ATOM     11  O   UNL     1       7.178  -0.971  -0.077  0.00  0.00    +0.041 OA
ATOM     12  O   UNL     1       7.143   1.224  -0.045  0.00  0.00    -0.576 OA
ENDBRANCH   4  10
BRANCH   6  13
ATOM     13  N   UNL     1       2.276   2.554  -0.074  0.00  0.00    +0.084 N 
ATOM     14  O   UNL     1       2.945   3.594  -0.066  0.00  0.00    +0.042 OA
ATOM     15  O   UNL     1       1.037   2.511  -0.084  0.00  0.00    -0.576 OA
ENDBRANCH   6  13
BRANCH   1  16
ATOM     16  O   UNL     1       0.934  -0.048  -0.029  0.00  0.00    -0.497 OA
ATOM     17  H   UNL     1       0.502   0.834  -0.073  0.00  0.00    +0.293 HD
ENDBRANCH   1  16
TORSDOF 4
