REMARK  Name = 
REMARK  8 active torsions:
REMARK  status: ('A' for Active; 'I' for Inactive)
REMARK    1  A    between atoms: C_1  and  C_2
REMARK    2  A    between atoms: C_2  and  C_3
REMARK    3  A    between atoms: C_3  and  C_5
REMARK    4  A    between atoms: C_5  and  C_6
REMARK    5  A    between atoms: C_6  and  C_7
REMARK    6  A    between atoms: C_7  and  C_8
REMARK    7  A    between atoms: C_7  and  C_9
REMARK    8  A    between atoms: C_7  and  O_10
REMARK                            x       y       z     vdW  Elec       q    Type
REMARK                         _______ _______ _______ _____ _____    ______ ____
ROOT
ATOM      1  C   UNL     1       4.858   2.817   1.290  0.00  0.00    +0.041 C 
ENDROOT
BRANCH   1   2
ATOM      2  C   UNL     1       6.368   3.093   1.412  0.00  0.00    +0.061 C 
ATOM      3  C   UNL     1       7.051   3.161   0.044  0.00  0.00    +0.041 C 
ATOM      4  C   UNL     1       7.080   2.080   2.310  0.00  0.00    +0.041 C 
BRANCH   2   5
ATOM      5  O   UNL     1       6.519   4.388   2.005  0.00  0.00    -0.389 OA
ATOM      6  H   UNL     1       6.137   4.358   2.899  0.00  0.00    +0.210 HD
ENDBRANCH   2   5
ENDBRANCH   1   2
BRANCH   1   7
ATOM      7  C   UNL     1       4.493   1.465   0.688  0.00  0.00    +0.077 C 
BRANCH   7   8
ATOM      8  C   UNL     1       2.988   1.312   0.610  0.00  0.00    +0.133 C 
ATOM      9  O   UNL     1       2.353   0.871   1.568  0.00  0.00    -0.297 OA
BRANCH   8  11
ATOM     10  C   UNL     1       0.826   1.520  -0.681  0.00  0.00    +0.012 C 
ATOM     11  C   UNL     1       2.323   1.773  -0.675  0.00  0.00    +0.071 C 
ENDBRANCH   8  11
ENDBRANCH   7   8
ENDBRANCH   1   7
TORSDOF 5
