REMARK  Name = 
REMARK  16 active torsions:
REMARK  status: ('A' for Active; 'I' for Inactive)
REMARK    1  A    between atoms: C_1  and  O_2
REMARK    2  A    between atoms: O_2  and  C_3
REMARK    3  A    between atoms: C_3  and  C_5
REMARK    4  A    between atoms: C_3  and  C_19
REMARK    5  A    between atoms: N_7  and  C_8
REMARK    6  A    between atoms: C_12  and  O_14
REMARK    7  A    between atoms: C_19  and  O_21
REMARK    8  A    between atoms: C_19  and  C_22
REMARK    9  A    between atoms: C_22  and  O_24
REMARK   10  A    between atoms: C_22  and  C_25
REMARK   11  A    between atoms: C_25  and  O_27
REMARK   12  A    between atoms: C_25  and  C_28
REMARK   13  A    between atoms: C_29  and  C_30
REMARK   14  A    between atoms: C_30  and  C_31
REMARK   15  A    between atoms: C_30  and  C_32
REMARK   16  A    between atoms: C_30  and  C_33
REMARK                            x       y       z     vdW  Elec       q    Type
REMARK                         _______ _______ _______ _____ _____    ______ ____
ROOT
ATOM      1  C   UNL     1      -0.813   7.410   3.528  0.00  0.00    +0.234 C 
ENDROOT
BRANCH   1   2
ATOM      2  C   UNL     1      -1.411   7.190   2.086  0.00  0.00    +0.245 C 
ATOM      3  N   UNL     1      -2.737   7.393   1.824  0.00  0.00    -0.302 N 
ATOM      4  H   UNL     1      -3.308   7.814   2.542  0.00  0.00    +0.150 HD
ATOM      5  O   UNL     1      -0.661   6.880   1.154  0.00  0.00    -0.273 OA
BRANCH   3   6
ATOM      6  C   UNL     1      -3.327   7.466   0.462  0.00  0.00    +0.159 C 
ATOM      7  C   UNL     1      -3.092   8.810  -0.246  0.00  0.00    +0.233 C 
ATOM      8  O   UNL     1      -3.693   9.819   0.147  0.00  0.00    -0.274 OA
ATOM      9  N   UNL     1      -2.207   8.987  -1.255  0.00  0.00    -0.311 N 
ATOM     10  H   UNL     1      -2.069   9.975  -1.439  0.00  0.00    +0.149 HD
ATOM     11  C   UNL     1      -1.250   8.087  -1.872  0.00  0.00    +0.135 C 
ATOM     12  C   UNL     1      -1.835   6.793  -2.427  0.00  0.00    +0.132 C 
ATOM     13  C   UNL     1      -2.315   5.793  -1.381  0.00  0.00    +0.035 C 
ATOM     14  C   UNL     1      -3.427   6.215  -0.425  0.00  0.00    +0.034 C 
BRANCH  12  15
ATOM     15  O   UNL     1      -2.866   7.049  -3.384  0.00  0.00    -0.390 OA
ATOM     16  H   UNL     1      -3.313   7.877  -3.138  0.00  0.00    +0.210 HD
ENDBRANCH  12  15
ENDBRANCH   3   6
ENDBRANCH   1   2
BRANCH   1  18
ATOM     17  C   UNL     1      -0.049   5.136   3.807  0.00  0.00    +0.195 C 
ATOM     18  O   UNL     1       0.332   6.510   3.673  0.00  0.00    -0.368 OA
ENDBRANCH   1  18
BRANCH   1  19
ATOM     19  C   UNL     1      -1.527   7.346   4.910  0.00  0.00    +0.183 C 
BRANCH  19  20
ATOM     20  O   UNL     1      -0.528   7.735   5.903  0.00  0.00    -0.386 OA
ATOM     21  H   UNL     1       0.284   7.237   5.692  0.00  0.00    +0.210 HD
ENDBRANCH  19  20
BRANCH  19  22
ATOM     22  C   UNL     1      -2.753   8.212   5.215  0.00  0.00    +0.178 C 
BRANCH  22  23
ATOM     23  O   UNL     1      -2.488   9.605   5.077  0.00  0.00    -0.386 OA
ATOM     24  H   UNL     1      -1.538   9.741   4.921  0.00  0.00    +0.210 HD
ENDBRANCH  22  23
BRANCH  22  25
ATOM     25  C   UNL     1      -3.282   7.849   6.646  0.00  0.00    +0.168 C 
BRANCH  25  26
ATOM     26  C   UNL     1      -4.410   8.755   7.033  0.00  0.00    +0.003 C 
ATOM     27  C   UNL     1      -5.721   8.513   6.879  0.00  0.00    -0.023 C 
BRANCH  27  28
ATOM     28  C   UNL     1      -6.777   9.584   7.045  0.00  0.00    -0.020 C 
ATOM     29  C   UNL     1      -6.750  10.187   8.458  0.00  0.00    +0.015 C 
ATOM     30  C   UNL     1      -8.159   8.973   6.802  0.00  0.00    +0.015 C 
ATOM     31  C   UNL     1      -6.528  10.685   5.997  0.00  0.00    +0.015 C 
ENDBRANCH  27  28
ENDBRANCH  25  26
BRANCH  25  32
ATOM     32  O   UNL     1      -3.728   6.489   6.670  0.00  0.00    -0.385 OA
ATOM     33  H   UNL     1      -4.115   6.350   7.552  0.00  0.00    +0.210 HD
ENDBRANCH  25  32
ENDBRANCH  22  25
ENDBRANCH  19  22
ENDBRANCH   1  19
TORSDOF 12
