REMARK  Name = 
REMARK  7 active torsions:
REMARK  status: ('A' for Active; 'I' for Inactive)
REMARK    1  A    between atoms: N_6  and  C_9
REMARK    2  A    between atoms: C_12  and  O_14
REMARK    3  A    between atoms: C_15  and  C_17
REMARK    4  A    between atoms: C_17  and  O_18
REMARK    5  A    between atoms: O_18  and  P_19
REMARK    6  A    between atoms: P_19  and  O_20
REMARK    7  A    between atoms: P_19  and  O_21
REMARK                            x       y       z     vdW  Elec       q    Type
REMARK                         _______ _______ _______ _____ _____    ______ ____
ROOT
ATOM      1  C   UNL     1       6.641   0.084   0.511  0.00  0.00    +0.226 C 
ATOM      2  O   UNL     1       7.192  -1.108   1.120  0.00  0.00    -0.348 OA
ATOM      3  C   UNL     1       8.413  -0.737   1.808  0.00  0.00    +0.175 C 
ATOM      4  C   UNL     1       8.595   0.772   1.619  0.00  0.00    +0.150 C 
ATOM      5  C   UNL     1       7.195   1.247   1.314  0.00  0.00    +0.088 C 
ENDROOT
BRANCH   1  12
ATOM      6  N   UNL     1       1.131   0.396   0.351  0.00  0.00    -0.343 N 
ATOM      7  H   UNL     1       0.593  -0.314   0.828  0.00  0.00    +0.144 HD
ATOM      8  H   UNL     1       0.806   0.583  -0.593  0.00  0.00    +0.144 HD
ATOM      9  C   UNL     1       2.498   0.309   0.422  0.00  0.00    +0.123 A 
ATOM     10  C   UNL     1       3.133  -0.283   1.615  0.00  0.00    +0.061 A 
ATOM     11  C   UNL     1       4.460  -0.392   1.575  0.00  0.00    +0.096 A 
ATOM     12  N   UNL     1       5.182   0.060   0.494  0.00  0.00    -0.273 N 
ATOM     13  C   UNL     1       4.545   0.713  -0.572  0.00  0.00    +0.352 A 
ATOM     14  O   UNL     1       5.203   1.231  -1.473  0.00  0.00    -0.244 OA
ATOM     15  N   UNL     1       3.173   0.764  -0.587  0.00  0.00    -0.178 NA
ENDBRANCH   1  12
BRANCH   4  16
ATOM     16  O   UNL     1       9.114   1.427   2.766  0.00  0.00    -0.389 OA
ATOM     17  H   UNL     1       8.553   1.217   3.532  0.00  0.00    +0.210 HD
ENDBRANCH   4  16
BRANCH   3  18
ATOM     18  C   UNL     1       9.612  -1.547   1.286  0.00  0.00    +0.206 C 
BRANCH  18  19
ATOM     19  O   UNL     1      10.815  -1.199   1.973  0.00  0.00    -0.284 OA
BRANCH  19  20
ATOM     20  P   UNL     1      12.216  -2.028   1.385  0.00  0.00    +0.472 P 
ATOM     21  O   UNL     1      13.469  -2.769   0.859  0.00  0.00    -0.228 OA
BRANCH  20  22
ATOM     22  O   UNL     1      13.030  -1.267   2.585  0.00  0.00    -0.303 OA
ATOM     23  H   UNL     1      13.301  -1.904   3.270  0.00  0.00    +0.222 HD
ENDBRANCH  20  22
BRANCH  20  24
ATOM     24  O   UNL     1      12.345  -0.768   0.349  0.00  0.00    -0.303 OA
ATOM     25  H   UNL     1      12.753  -0.045   0.862  0.00  0.00    +0.222 HD
ENDBRANCH  20  24
ENDBRANCH  19  20
ENDBRANCH  18  19
ENDBRANCH   3  18
TORSDOF 7
