REMARK  Name = 
REMARK  12 active torsions:
REMARK  status: ('A' for Active; 'I' for Inactive)
REMARK    1  A    between atoms: O_1  and  C_2
REMARK    2  A    between atoms: C_4  and  O_6
REMARK    3  A    between atoms: C_7  and  O_9
REMARK    4  A    between atoms: O_9  and  P_10
REMARK    5  A    between atoms: P_10  and  O_11
REMARK    6  A    between atoms: P_10  and  O_12
REMARK    7  A    between atoms: C_14  and  O_16
REMARK    8  A    between atoms: C_17  and  O_19
REMARK    9  A    between atoms: C_20  and  O_22
REMARK   10  A    between atoms: O_22  and  P_23
REMARK   11  A    between atoms: P_23  and  O_24
REMARK   12  A    between atoms: P_23  and  O_25
REMARK                            x       y       z     vdW  Elec       q    Type
REMARK                         _______ _______ _______ _____ _____    ______ ____
ROOT
ATOM      1  C   UNL     1       2.573  -0.092   0.026  0.00  0.00    +0.177 C 
ATOM      2  C   UNL     1       3.006   0.944  -1.048  0.00  0.00    +0.192 C 
ATOM      3  C   UNL     1       2.913   0.556  -2.544  0.00  0.00    +0.177 C 
ATOM      4  C   UNL     1       3.182  -0.940  -2.828  0.00  0.00    +0.177 C 
ATOM      5  C   UNL     1       2.493  -1.808  -1.767  0.00  0.00    +0.192 C 
ATOM      6  C   UNL     1       3.013  -1.517  -0.363  0.00  0.00    +0.177 C 
ENDROOT
BRANCH   1   7
ATOM      7  O   UNL     1       1.185   0.079   0.314  0.00  0.00    -0.386 OA
ATOM      8  H   UNL     1       0.847  -0.774   0.658  0.00  0.00    +0.210 HD
ENDBRANCH   1   7
BRANCH   3   9
ATOM      9  O   UNL     1       1.648   0.952  -3.101  0.00  0.00    -0.386 OA
ATOM     10  H   UNL     1       1.705   1.921  -3.218  0.00  0.00    +0.210 HD
ENDBRANCH   3   9
BRANCH   4  11
ATOM     11  O   UNL     1       4.577  -1.244  -2.841  0.00  0.00    -0.386 OA
ATOM     12  H   UNL     1       4.804  -1.569  -3.734  0.00  0.00    +0.210 HD
ENDBRANCH   4  11
BRANCH   6  13
ATOM     13  O   UNL     1       4.429  -1.646  -0.225  0.00  0.00    -0.386 OA
ATOM     14  H   UNL     1       4.842  -1.463  -1.103  0.00  0.00    +0.210 HD
ENDBRANCH   6  13
BRANCH   2  15
ATOM     15  O   UNL     1       4.381   1.172  -0.905  0.00  0.00    -0.278 OA
BRANCH  15  16
ATOM     16  P   UNL     1       4.898   1.558   0.700  0.00  0.00    +0.473 P 
ATOM     17  O   UNL     1       5.362   1.903   2.137  0.00  0.00    -0.228 OA
BRANCH  16  18
ATOM     18  O   UNL     1       5.058   3.086   0.141  0.00  0.00    -0.303 OA
ATOM     19  H   UNL     1       4.596   3.716   0.717  0.00  0.00    +0.222 HD
ENDBRANCH  16  18
BRANCH  16  20
ATOM     20  O   UNL     1       6.366   1.018   0.249  0.00  0.00    -0.303 OA
ATOM     21  H   UNL     1       6.547   0.135   0.616  0.00  0.00    +0.222 HD
ENDBRANCH  16  20
ENDBRANCH  15  16
ENDBRANCH   2  15
BRANCH   5  22
ATOM     22  O   UNL     1       1.115  -1.484  -1.699  0.00  0.00    -0.278 OA
BRANCH  22  23
ATOM     23  P   UNL     1       0.307  -1.624  -3.222  0.00  0.00    +0.473 P 
ATOM     24  O   UNL     1      -0.417  -1.750  -4.585  0.00  0.00    -0.228 OA
BRANCH  23  25
ATOM     25  O   UNL     1      -1.033  -1.191  -2.384  0.00  0.00    -0.303 OA
ATOM     26  H   UNL     1      -1.095  -0.219  -2.344  0.00  0.00    +0.222 HD
ENDBRANCH  23  25
BRANCH  23  27
ATOM     27  O   UNL     1       0.161  -3.211  -2.847  0.00  0.00    -0.303 OA
ATOM     28  H   UNL     1      -0.785  -3.339  -2.643  0.00  0.00    +0.222 HD
ENDBRANCH  23  27
ENDBRANCH  22  23
ENDBRANCH   5  22
TORSDOF 12
