REMARK  Name = 
REMARK  6 active torsions:
REMARK  status: ('A' for Active; 'I' for Inactive)
REMARK    1  A    between atoms: O_1  and  C_2
REMARK    2  A    between atoms: C_5  and  C_15
REMARK    3  A    between atoms: C_8  and  O_10
REMARK    4  A    between atoms: O_10  and  S_11
REMARK    5  A    between atoms: S_11  and  O_12
REMARK    6  A    between atoms: C_15  and  O_16
REMARK                            x       y       z     vdW  Elec       q    Type
REMARK                         _______ _______ _______ _____ _____    ______ ____
ROOT
ATOM      1  C   UNL     1       2.377  -0.026  -0.008  0.00  0.00    +0.176 C 
ATOM      2  C   UNL     1       2.881  -1.310   0.682  0.00  0.00    +0.221 C 
ATOM      3  C   UNL     1       3.757  -1.027   1.915  0.00  0.00    +0.266 C 
ATOM      4  O   UNL     1       4.507   0.188   1.913  0.00  0.00    -0.483 OA
ATOM      5  C   UNL     1       3.755   1.292   1.570  0.00  0.00    +0.203 C 
ATOM      6  C   UNL     1       2.771   1.241   0.664  0.00  0.00    +0.059 C 
ENDROOT
BRANCH   1   7
ATOM      7  O   UNL     1       2.849   0.029  -1.356  0.00  0.00    -0.385 OA
ATOM      8  H   UNL     1       3.779   0.313  -1.345  0.00  0.00    +0.210 HD
ENDBRANCH   1   7
BRANCH   5   9
ATOM      9  C   UNL     1       4.084   2.596   2.222  0.00  0.00    +0.372 C 
ATOM     10  O   UNL     1       3.578   3.668   1.945  0.00  0.00    -0.242 OA
BRANCH   9  11
ATOM     11  O   UNL     1       5.004   2.423   3.197  0.00  0.00    -0.475 OA
ATOM     12  H   UNL     1       5.275   1.483   3.258  0.00  0.00    +0.296 HD
ENDBRANCH   9  11
ENDBRANCH   5   9
BRANCH   2  13
ATOM     13  O   UNL     1       1.726  -2.066   1.085  0.00  0.00    -0.206 OA
BRANCH  13  14
ATOM     14  S   UNL     1       1.913  -3.595   1.582  0.00  0.00    +0.208 S 
ATOM     15  O   UNL     1       2.626  -3.590   2.836  0.00  0.00    -0.118 OA
ATOM     16  O   UNL     1       2.354  -4.381   0.452  0.00  0.00    -0.118 OA
BRANCH  14  17
ATOM     17  O   UNL     1       0.399  -4.053   1.872  0.00  0.00    -0.231 OA
ATOM     18  H   UNL     1       0.053  -4.480   1.060  0.00  0.00    +0.247 HD
ENDBRANCH  14  17
ENDBRANCH  13  14
ENDBRANCH   2  13
TORSDOF 6
