REMARK  Name = 
REMARK  14 active torsions:
REMARK  status: ('A' for Active; 'I' for Inactive)
REMARK    1  A    between atoms: C_1  and  C_2
REMARK    2  A    between atoms: C_2  and  N_4
REMARK    3  A    between atoms: C_2  and  P_20
REMARK    4  A    between atoms: N_4  and  C_5
REMARK    5  A    between atoms: C_5  and  C_6
REMARK    6  A    between atoms: C_7  and  O_8
REMARK    7  A    between atoms: C_9  and  C_10
REMARK    8  A    between atoms: C_13  and  C_14
REMARK    9  A    between atoms: C_14  and  O_15
REMARK   10  A    between atoms: O_15  and  P_16
REMARK   11  A    between atoms: P_16  and  O_17
REMARK   12  A    between atoms: P_16  and  O_18
REMARK   13  A    between atoms: P_20  and  O_21
REMARK   14  A    between atoms: P_20  and  O_22
REMARK                            x       y       z     vdW  Elec       q    Type
REMARK                         _______ _______ _______ _____ _____    ______ ____
ROOT
ATOM      1  C   UNL     1       3.162   0.928   3.698  0.00  0.00    +0.016 A 
ATOM      2  C   UNL     1       3.170  -0.364   4.249  0.00  0.00    +0.005 A 
ATOM      3  C   UNL     1       3.609  -0.487   5.565  0.00  0.00    +0.117 A 
ATOM      4  N   UNL     1       3.969   0.543   6.361  0.00  0.00    -0.256 NA
ATOM      5  C   UNL     1       3.892   1.792   5.846  0.00  0.00    +0.080 A 
ATOM      6  C   UNL     1       4.315   2.900   6.766  0.00  0.00    +0.069 C 
ATOM      7  C   UNL     1       3.488   2.016   4.527  0.00  0.00    +0.142 A 
ENDROOT
BRANCH   7   8
ATOM      8  O   UNL     1       3.444   3.307   4.064  0.00  0.00    -0.505 OA
ATOM      9  H   UNL     1       3.494   3.279   3.085  0.00  0.00    +0.292 HD
ENDBRANCH   7   8
BRANCH   1  10
ATOM     10  C   UNL     1       2.766   1.172   2.261  0.00  0.00    +0.121 C 
BRANCH  10  11
ATOM     11  N   UNL     1       3.759   1.958   1.542  0.00  0.00    -0.299 NA
ATOM     12  H   UNL     1       3.355   2.230   0.643  0.00  0.00    +0.123 HD
BRANCH  11  14
ATOM     13  C   UNL     1       4.989  -0.148   0.697  0.00  0.00    +0.037 C 
ATOM     14  C   UNL     1       5.053   1.275   1.238  0.00  0.00    +0.166 C 
BRANCH  14  15
ATOM     15  P   UNL     1       6.323   1.549   2.527  0.00  0.00    +0.344 P 
ATOM     16  O   UNL     1       7.398   1.781   3.617  0.00  0.00    -0.257 OA
BRANCH  15  17
ATOM     17  O   UNL     1       6.099   3.176   2.347  0.00  0.00    -0.323 OA
ATOM     18  H   UNL     1       6.726   3.613   2.959  0.00  0.00    +0.220 HD
ENDBRANCH  15  17
BRANCH  15  19
ATOM     19  O   UNL     1       7.447   1.452   1.322  0.00  0.00    -0.323 OA
ATOM     20  H   UNL     1       8.220   1.997   1.559  0.00  0.00    +0.220 HD
ENDBRANCH  15  19
ENDBRANCH  14  15
ENDBRANCH  11  14
ENDBRANCH  10  11
ENDBRANCH   1  10
BRANCH   2  21
ATOM     21  C   UNL     1       2.741  -1.595   3.489  0.00  0.00    +0.209 C 
BRANCH  21  22
ATOM     22  O   UNL     1       2.103  -2.487   4.377  0.00  0.00    -0.282 OA
BRANCH  22  23
ATOM     23  P   UNL     1       1.190  -3.650   3.780  0.00  0.00    +0.473 P 
ATOM     24  O   UNL     1       1.887  -4.866   3.284  0.00  0.00    -0.228 OA
BRANCH  23  25
ATOM     25  O   UNL     1       0.246  -2.883   2.749  0.00  0.00    -0.303 OA
ATOM     26  H   UNL     1      -0.497  -3.458   2.480  0.00  0.00    +0.222 HD
ENDBRANCH  23  25
BRANCH  23  27
ATOM     27  O   UNL     1       0.201  -3.840   5.016  0.00  0.00    -0.303 OA
ATOM     28  H   UNL     1       0.676  -3.637   5.844  0.00  0.00    +0.222 HD
ENDBRANCH  23  27
ENDBRANCH  22  23
ENDBRANCH  21  22
ENDBRANCH   2  21
TORSDOF 12
