REMARK  Name = 
REMARK  8 active torsions:
REMARK  status: ('A' for Active; 'I' for Inactive)
REMARK    1  A    between atoms: C_2  and  C_3
REMARK    2  A    between atoms: C_2  and  C_5
REMARK    3  A    between atoms: C_2  and  C_19
REMARK    4  A    between atoms: C_3  and  C_4
REMARK    5  A    between atoms: C_5  and  N_6
REMARK    6  A    between atoms: C_7  and  C_9
REMARK    7  A    between atoms: C_12  and  S_15
REMARK    8  A    between atoms: S_15  and  N_16
REMARK                            x       y       z     vdW  Elec       q    Type
REMARK                         _______ _______ _______ _____ _____    ______ ____
ROOT
ATOM      1  N   UNL     1       1.957  -2.270  -1.212  0.00  0.00    -0.311 N 
ATOM      2  H   UNL     1       2.605  -3.009  -0.976  0.00  0.00    +0.149 HD
ATOM      3  C   UNL     1       0.701  -2.604  -1.671  0.00  0.00    +0.244 C 
ATOM      4  O   UNL     1      -0.097  -1.808  -2.145  0.00  0.00    -0.270 OA
ENDROOT
BRANCH   3   5
ATOM      5  C   UNL     1       0.370  -4.055  -1.593  0.00  0.00    +0.037 A 
ATOM      6  C   UNL     1      -0.339  -4.655  -2.640  0.00  0.00    +0.015 A 
ATOM      7  C   UNL     1      -0.593  -6.031  -2.616  0.00  0.00    +0.029 A 
ATOM      8  C   UNL     1      -0.156  -6.796  -1.529  0.00  0.00    +0.105 A 
ATOM      9  C   UNL     1       0.516  -6.197  -0.461  0.00  0.00    +0.029 A 
ATOM     10  C   UNL     1       0.771  -4.826  -0.493  0.00  0.00    +0.015 A 
BRANCH   8  11
ATOM     11  S   UNL     1      -0.359  -8.554  -1.531  0.00  0.00    +0.056 S 
ATOM     12  O   UNL     1       0.685  -9.145  -0.726  0.00  0.00    -0.153 OA
ATOM     13  O   UNL     1      -0.645  -8.998  -2.874  0.00  0.00    -0.153 OA
BRANCH  11  14
ATOM     14  N   UNL     1      -1.780  -8.746  -0.662  0.00  0.00    -0.204 NA
ATOM     15  H   UNL     1      -1.594  -9.263   0.198  0.00  0.00    +0.144 HD
ATOM     16  H   UNL     1      -2.489  -9.179  -1.254  0.00  0.00    +0.144 HD
ENDBRANCH  11  14
ENDBRANCH   8  11
ENDBRANCH   3   5
BRANCH   1  17
ATOM     17  C   UNL     1       2.464  -0.908  -1.198  0.00  0.00    +0.112 C 
BRANCH  17  18
ATOM     18  C   UNL     1       2.018  -0.068   0.021  0.00  0.00    +0.036 C 
BRANCH  18  19
ATOM     19  C   UNL     1       2.461   1.386  -0.174  0.00  0.00    -0.042 A 
ATOM     20  C   UNL     1       3.821   1.737  -0.188  0.00  0.00    +0.006 A 
ATOM     21  C   UNL     1       4.243   3.061  -0.348  0.00  0.00    +0.026 A 
ATOM     22  C   UNL     1       3.256   4.038  -0.498  0.00  0.00    +0.046 A 
ATOM     23  N   UNL     1       3.373   5.399  -0.669  0.00  0.00    -0.361 N 
ATOM     24  H   UNL     1       4.252   5.897  -0.711  0.00  0.00    +0.165 HD
ATOM     25  C   UNL     1       2.134   5.973  -0.773  0.00  0.00    +0.083 A 
ATOM     26  C   UNL     1       1.198   4.969  -0.665  0.00  0.00    +0.027 A 
ATOM     27  C   UNL     1       1.894   3.739  -0.495  0.00  0.00    -0.000 A 
ATOM     28  C   UNL     1       1.494   2.396  -0.335  0.00  0.00    +0.014 A 
ENDBRANCH  18  19
BRANCH  18  29
ATOM     29  C   UNL     1       2.552  -0.572   1.386  0.00  0.00    +0.006 C 
ATOM     30  C   UNL     1       2.006  -1.910   1.848  0.00  0.00    +0.004 C 
ENDBRANCH  18  29
ENDBRANCH  17  18
ENDBRANCH   1  17
TORSDOF 7
