REMARK  Name = 
REMARK  11 active torsions:
REMARK  status: ('A' for Active; 'I' for Inactive)
REMARK    1  A    between atoms: C_1  and  C_2
REMARK    2  A    between atoms: C_2  and  C_3
REMARK    3  A    between atoms: C_3  and  O_4
REMARK    4  A    between atoms: O_4  and  P_5
REMARK    5  A    between atoms: P_5  and  O_6
REMARK    6  A    between atoms: P_5  and  O_8
REMARK    7  A    between atoms: O_8  and  C_9
REMARK    8  A    between atoms: C_9  and  C_10
REMARK    9  A    between atoms: C_13  and  N_21
REMARK   10  A    between atoms: C_15  and  O_17
REMARK   11  A    between atoms: C_18  and  O_20
REMARK                            x       y       z     vdW  Elec       q    Type
REMARK                         _______ _______ _______ _____ _____    ______ ____
ROOT
ATOM      1  C   UNL     1       6.211   6.656  -1.757  0.00  0.00    +0.178 C 
ATOM      2  C   UNL     1       7.639   6.922  -1.275  0.00  0.00    +0.178 C 
ATOM      3  C   UNL     1       7.751   8.446  -1.180  0.00  0.00    +0.195 C 
ATOM      4  C   UNL     1       6.339   8.951  -1.509  0.00  0.00    +0.253 C 
ATOM      5  O   UNL     1       5.457   7.821  -1.358  0.00  0.00    -0.346 OA
ENDROOT
BRANCH   4   6
ATOM      6  N   UNL     1       5.893  10.046  -0.673  0.00  0.00    -0.286 N 
ATOM      7  C   UNL     1       6.497  11.273  -0.598  0.00  0.00    +0.167 A 
ATOM      8  N   UNL     1       7.627  11.677  -1.209  0.00  0.00    -0.216 NA
ATOM      9  C   UNL     1       7.899  12.964  -0.893  0.00  0.00    +0.225 A 
ATOM     10  N   UNL     1       7.212  13.796  -0.080  0.00  0.00    -0.219 NA
ATOM     11  C   UNL     1       6.080  13.338   0.502  0.00  0.00    +0.147 A 
ATOM     12  N   UNL     1       5.368  14.194   1.332  0.00  0.00    -0.341 N 
ATOM     13  H   UNL     1       4.750  13.710   1.974  0.00  0.00    +0.144 HD
ATOM     14  H   UNL     1       5.944  14.937   1.703  0.00  0.00    +0.144 HD
ATOM     15  C   UNL     1       5.689  12.013   0.251  0.00  0.00    +0.147 A 
ATOM     16  N   UNL     1       4.626  11.255   0.698  0.00  0.00    -0.231 NA
ATOM     17  C   UNL     1       4.771  10.085   0.109  0.00  0.00    +0.203 A 
ENDBRANCH   4   6
BRANCH   2  18
ATOM     18  O   UNL     1       7.820   6.371   0.042  0.00  0.00    -0.386 OA
ATOM     19  H   UNL     1       7.040   6.585   0.585  0.00  0.00    +0.210 HD
ENDBRANCH   2  18
BRANCH   3  20
ATOM     20  O   UNL     1       8.707   8.947  -2.118  0.00  0.00    -0.385 OA
ATOM     21  H   UNL     1       8.867   9.883  -1.875  0.00  0.00    +0.210 HD
ENDBRANCH   3  20
BRANCH   1  22
ATOM     22  C   UNL     1       6.075   6.471  -3.273  0.00  0.00    +0.206 C 
BRANCH  22  23
ATOM     23  O   UNL     1       6.743   5.303  -3.719  0.00  0.00    -0.284 OA
BRANCH  23  24
ATOM     24  P   UNL     1       6.586   5.045  -5.422  0.00  0.00    +0.475 P 
ATOM     25  O   UNL     1       7.578   3.887  -5.335  0.00  0.00    -0.227 OA
BRANCH  24  26
ATOM     26  O   UNL     1       5.133   4.341  -5.178  0.00  0.00    -0.302 OA
ATOM     27  H   UNL     1       5.326   3.388  -5.062  0.00  0.00    +0.222 HD
ENDBRANCH  24  26
BRANCH  24  28
ATOM     28  O   UNL     1       6.428   4.787  -7.126  0.00  0.00    -0.287 OA
BRANCH  28  29
ATOM     29  C   UNL     1       5.765   5.845  -7.800  0.00  0.00    +0.172 C 
BRANCH  29  31
ATOM     30  C   UNL     1       4.849   4.255  -9.543  0.00  0.00    +0.006 C 
ATOM     31  C   UNL     1       5.651   5.522  -9.285  0.00  0.00    +0.025 C 
ENDBRANCH  29  31
ENDBRANCH  28  29
ENDBRANCH  24  28
ENDBRANCH  23  24
ENDBRANCH  22  23
ENDBRANCH   1  22
TORSDOF 10
