REMARK  Name = 
REMARK  15 active torsions:
REMARK  status: ('A' for Active; 'I' for Inactive)
REMARK    1  A    between atoms: N_1  and  C_2
REMARK    2  A    between atoms: C_2  and  C_4
REMARK    3  A    between atoms: C_2  and  C_27
REMARK    4  A    between atoms: C_4  and  C_5
REMARK    5  A    between atoms: C_5  and  C_6
REMARK    6  A    between atoms: N_8  and  C_9
REMARK    7  A    between atoms: C_9  and  C_11
REMARK    8  A    between atoms: C_9  and  C_20
REMARK    9  A    between atoms: C_11  and  S_12
REMARK   10  A    between atoms: S_12  and  C_13
REMARK   11  A    between atoms: C_13  and  C_14
REMARK   12  A    between atoms: N_22  and  CA_23
REMARK   13  A    between atoms: CA_23  and  C_24
REMARK   14  A    between atoms: C_24  and  O_25
REMARK   15  A    between atoms: C_27  and  O_28
REMARK                            x       y       z     vdW  Elec       q    Type
REMARK                         _______ _______ _______ _____ _____    ______ ____
ROOT
ATOM      1  C   UNK A   1       3.097   5.817   2.819  0.00  0.00    +0.169 C 
ENDROOT
BRANCH   1   3
ATOM      2  C   UNK A   1       1.597   4.727   4.465  0.00  0.00    +0.214 C 
ATOM      3  N   UNK A   1       2.623   5.590   4.181  0.00  0.00    -0.303 N 
ATOM      4  H   UNK A   1       3.010   6.172   4.916  0.00  0.00    +0.149 HD
ATOM      5  O   UNK A   1       1.010   4.076   3.607  0.00  0.00    -0.276 OA
BRANCH   2   6
ATOM      6  C   UNK A   1       1.258   4.615   5.935  0.00  0.00    +0.098 C 
BRANCH   6   7
ATOM      7  C   UNK A   1       0.560   5.872   6.449  0.00  0.00    +0.039 C 
BRANCH   7   8
ATOM      8  C   UNK A   1       0.171   5.779   7.928  0.00  0.00    +0.161 C 
BRANCH   8   9
ATOM      9  N   UNK A   1      -0.794   4.668   8.189  0.00  0.00    -0.318 NA
ATOM     10  H   UNK A   1      -1.379   4.538   7.355  0.00  0.00    +0.119 HD
ATOM     11  H   UNK A   1      -0.260   3.795   8.258  0.00  0.00    +0.119 HD
ENDBRANCH   8   9
BRANCH   8  12
ATOM     12  C   UNK A   1      -0.477   7.099   8.391  0.00  0.00    +0.322 C 
ATOM     13  O   UNK A   1       0.005   8.211   8.238  0.00  0.00    -0.249 OA
BRANCH  12  14
ATOM     14  O   UNK A   1      -1.661   6.875   9.017  0.00  0.00    -0.480 OA
ATOM     15  H   UNK A   1      -1.776   5.891   9.020  0.00  0.00    +0.295 HD
ENDBRANCH  12  14
ENDBRANCH   8  12
ENDBRANCH   7   8
ENDBRANCH   6   7
ENDBRANCH   2   6
ENDBRANCH   1   3
BRANCH   1  16
ATOM     16  C   UNK A   1       2.730   7.239   2.364  0.00  0.00    +0.235 C 
ATOM     17  N   GLY A   2       2.640   7.403   0.992  0.00  0.00    -0.303 N 
ATOM     18  H   GLY A   2       3.026   6.690   0.382  0.00  0.00    +0.149 HD
ATOM     19  O   UNK A   1       2.515   8.158   3.148  0.00  0.00    -0.274 OA
BRANCH  17  20
ATOM     20  CA  GLY A   2       2.407   8.722   0.398  0.00  0.00    +0.224 C 
BRANCH  20  21
ATOM     21  C   GLY A   2       0.933   9.093   0.243  0.00  0.00    +0.322 C 
ATOM     22  OXT GLY A   2       0.550  10.140  -0.260  0.00  0.00    -0.249 OA
BRANCH  21  23
ATOM     23  O   GLY A   2       0.074   8.134   0.659  0.00  0.00    -0.480 OA
ATOM     24  H   GLY A   2       0.558   7.395   1.076  0.00  0.00    +0.295 HD
ENDBRANCH  21  23
ENDBRANCH  20  21
ENDBRANCH  17  20
ENDBRANCH   1  16
BRANCH   1  25
ATOM     25  C   UNK A   1       4.611   5.606   2.709  0.00  0.00    +0.101 C 
BRANCH  25  26
ATOM     26  S   UNK A   1       5.162   3.933   3.218  0.00  0.00    -0.154 S 
BRANCH  26  27
ATOM     27  C   UNK A   1       4.249   2.927   2.005  0.00  0.00    +0.104 C 
BRANCH  27  28
ATOM     28  C   UNK A   1       4.411   1.455   2.262  0.00  0.00    -0.038 A 
ATOM     29  C   UNK A   1       5.498   0.753   1.726  0.00  0.00    +0.004 A 
ATOM     30  C   UNK A   1       5.636  -0.615   1.959  0.00  0.00    +0.000 A 
ATOM     31  C   UNK A   1       4.695  -1.292   2.733  0.00  0.00    +0.000 A 
ATOM     32  C   UNK A   1       3.615  -0.600   3.280  0.00  0.00    +0.000 A 
ATOM     33  C   UNK A   1       3.474   0.768   3.048  0.00  0.00    +0.004 A 
ENDBRANCH  27  28
ENDBRANCH  26  27
ENDBRANCH  25  26
ENDBRANCH   1  25
TORSDOF 15
