REMARK  Name = 
REMARK  7 active torsions:
REMARK  status: ('A' for Active; 'I' for Inactive)
REMARK    1  A    between atoms: C_2  and  C_3
REMARK    2  A    between atoms: C_2  and  O_4
REMARK    3  A    between atoms: C_2  and  C_5
REMARK    4  A    between atoms: C_5  and  C_7
REMARK    5  A    between atoms: C_5  and  C_9
REMARK    6  A    between atoms: N_11  and  C_12
REMARK    7  A    between atoms: C_15  and  C_18
REMARK                            x       y       z     vdW  Elec       q    Type
REMARK                         _______ _______ _______ _____ _____    ______ ____
ROOT
ATOM      1  C   UNL     1       4.024  -0.162  -1.451  0.00  0.00    +0.237 C 
ATOM      2  N   UNL     1       4.709  -0.854  -2.441  0.00  0.00    -0.284 N 
ATOM      3  H   UNL     1       4.273  -1.730  -2.722  0.00  0.00    +0.155 HD
ATOM      4  O   UNL     1       4.582   0.534  -0.604  0.00  0.00    -0.274 OA
ENDROOT
BRANCH   2   5
ATOM      5  C   UNL     1       6.117  -0.779  -2.533  0.00  0.00    +0.033 A 
ATOM      6  C   UNL     1       6.812   0.423  -2.374  0.00  0.00    +0.024 A 
ATOM      7  C   UNL     1       8.208   0.432  -2.310  0.00  0.00    +0.014 A 
ATOM      8  C   UNL     1       8.923  -0.771  -2.395  0.00  0.00    +0.055 A 
ATOM      9  C   UNL     1       8.220  -1.961  -2.637  0.00  0.00    +0.014 A 
ATOM     10  C   UNL     1       6.824  -1.964  -2.731  0.00  0.00    +0.024 A 
BRANCH   8  11
ATOM     11  C   UNL     1      10.419  -0.775  -2.194  0.00  0.00    +0.417 C 
ATOM     12  F   UNL     1      10.793  -0.180  -1.027  0.00  0.00    -0.166 F 
ATOM     13  F   UNL     1      11.082  -0.113  -3.182  0.00  0.00    -0.166 F 
ATOM     14  F   UNL     1      10.957  -2.027  -2.158  0.00  0.00    -0.166 F 
ENDBRANCH   8  11
ENDBRANCH   2   5
BRANCH   1  15
ATOM     15  C   UNL     1       2.504  -0.359  -1.463  0.00  0.00    +0.205 C 
BRANCH  15  16
ATOM     16  C   UNL     1       2.127  -1.735  -0.928  0.00  0.00    +0.137 C 
ATOM     17  C   UNL     1       0.615  -1.921  -0.778  0.00  0.00    +0.039 C 
BRANCH  16  18
ATOM     18  O   UNL     1       2.626  -2.724  -1.848  0.00  0.00    -0.390 OA
ATOM     19  H   UNL     1       1.888  -3.047  -2.395  0.00  0.00    +0.210 HD
ENDBRANCH  16  18
ENDBRANCH  15  16
BRANCH  15  20
ATOM     20  C   UNL     1       1.964   0.780  -0.614  0.00  0.00    +0.078 C 
ATOM     21  N   UNL     1       1.516   1.725   0.091  0.00  0.00    -0.196 NA
ENDBRANCH  15  20
ENDBRANCH   1  15
TORSDOF 6
