REMARK  Name = 
REMARK  14 active torsions:
REMARK  status: ('A' for Active; 'I' for Inactive)
REMARK    1  A    between atoms: C_2  and  O_3
REMARK    2  A    between atoms: C_5  and  C_7
REMARK    3  A    between atoms: C_7  and  O_8
REMARK    4  A    between atoms: C_9  and  O_11
REMARK    5  A    between atoms: C_12  and  O_14
REMARK    6  A    between atoms: C_15  and  O_17
REMARK    7  A    between atoms: O_17  and  C_18
REMARK    8  A    between atoms: C_18  and  C_19
REMARK    9  A    between atoms: C_19  and  C_20
REMARK   10  A    between atoms: C_20  and  C_21
REMARK   11  A    between atoms: C_21  and  C_22
REMARK   12  A    between atoms: C_22  and  C_23
REMARK   13  A    between atoms: C_23  and  C_24
REMARK   14  A    between atoms: C_24  and  C_25
REMARK                            x       y       z     vdW  Elec       q    Type
REMARK                         _______ _______ _______ _____ _____    ______ ____
ROOT
ATOM      1  C   UNL     1       1.720  -0.202  -0.013  0.00  0.00    +0.279 C 
ATOM      2  C   UNL     1       2.360   0.897  -0.906  0.00  0.00    +0.205 C 
ATOM      3  C   UNL     1       2.029   0.633  -2.387  0.00  0.00    +0.179 C 
ATOM      4  C   UNL     1       2.241  -0.835  -2.777  0.00  0.00    +0.177 C 
ATOM      5  C   UNL     1       1.500  -1.748  -1.803  0.00  0.00    +0.178 C 
ATOM      6  O   UNL     1       1.962  -1.521  -0.471  0.00  0.00    -0.341 OA
ENDROOT
BRANCH   3   7
ATOM      7  O   UNL     1       2.847   1.447  -3.248  0.00  0.00    -0.386 OA
ATOM      8  H   UNL     1       2.753   1.082  -4.148  0.00  0.00    +0.210 HD
ENDBRANCH   3   7
BRANCH   4   9
ATOM      9  O   UNL     1       1.806  -1.025  -4.131  0.00  0.00    -0.386 OA
ATOM     10  H   UNL     1       0.845  -0.897  -4.174  0.00  0.00    +0.210 HD
ENDBRANCH   4   9
BRANCH   1  11
ATOM     11  O   UNL     1       2.285  -0.165   1.294  0.00  0.00    -0.365 OA
ATOM     12  H   UNL     1       1.667  -0.660   1.857  0.00  0.00    +0.213 HD
ENDBRANCH   1  11
BRANCH   2  13
ATOM     13  O   UNL     1       1.855   2.220  -0.576  0.00  0.00    -0.369 OA
BRANCH  13  14
ATOM     14  C   UNL     1       2.235   2.640   0.732  0.00  0.00    +0.160 C 
BRANCH  14  15
ATOM     15  C   UNL     1       1.820   4.083   0.987  0.00  0.00    +0.028 C 
BRANCH  15  16
ATOM     16  C   UNL     1       2.138   4.435   2.440  0.00  0.00    +0.002 C 
BRANCH  16  17
ATOM     17  C   UNL     1       1.696   5.843   2.818  0.00  0.00    +0.000 C 
BRANCH  17  18
ATOM     18  C   UNL     1       2.040   6.130   4.281  0.00  0.00    -0.000 C 
BRANCH  18  19
ATOM     19  C   UNL     1       1.613   7.539   4.682  0.00  0.00    -0.000 C 
BRANCH  19  20
ATOM     20  C   UNL     1       1.966   7.831   6.140  0.00  0.00    -0.003 C 
ATOM     21  C   UNL     1       1.544   9.236   6.533  0.00  0.00    +0.004 C 
ENDBRANCH  19  20
ENDBRANCH  18  19
ENDBRANCH  17  18
ENDBRANCH  16  17
ENDBRANCH  15  16
ENDBRANCH  14  15
ENDBRANCH  13  14
ENDBRANCH   2  13
BRANCH   5  22
ATOM     22  C   UNL     1       1.747  -3.229  -2.106  0.00  0.00    +0.190 C 
BRANCH  22  23
ATOM     23  O   UNL     1       1.008  -4.023  -1.174  0.00  0.00    -0.392 OA
ATOM     24  H   UNL     1       1.297  -3.723  -0.291  0.00  0.00    +0.210 HD
ENDBRANCH  22  23
ENDBRANCH   5  22
TORSDOF 13
