REMARK  Name = 
REMARK  0 active torsions:
REMARK  status: ('A' for Active; 'I' for Inactive)
REMARK                            x       y       z     vdW  Elec       q    Type
REMARK                         _______ _______ _______ _____ _____    ______ ____
ROOT
ATOM      1 CL   UNL     1       0.974  -0.156   0.087  0.00  0.00    -0.082 Cl
ATOM      2  C   UNL     1       2.700  -0.079   0.071  0.00  0.00    +0.068 A 
ATOM      3  C   UNL     1       3.406   1.135   0.009  0.00  0.00    +0.079 A 
ATOM      4 CL   UNL     1       2.528   2.636  -0.055  0.00  0.00    -0.080 Cl
ATOM      5  C   UNL     1       4.823   1.130   0.000  0.00  0.00    +0.080 A 
ATOM      6 CL   UNL     1       5.695   2.637  -0.073  0.00  0.00    -0.080 Cl
ATOM      7  C   UNL     1       5.532  -0.086   0.050  0.00  0.00    +0.075 A 
ATOM      8 CL   UNL     1       7.259  -0.127   0.041  0.00  0.00    -0.081 Cl
ATOM      9  C   UNL     1       4.797  -1.263   0.107  0.00  0.00    +0.087 A 
ATOM     10  C   UNL     1       5.251  -2.653   0.163  0.00  0.00    +0.341 C 
ATOM     11  O   UNL     1       6.391  -3.064   0.169  0.00  0.00    -0.245 OA
ATOM     12  O   UNL     1       4.130  -3.432   0.205  0.00  0.00    -0.456 OA
ATOM     13  C   UNL     1       2.920  -2.656   0.191  0.00  0.00    +0.270 C 
ATOM     14  C   UNL     1       3.414  -1.266   0.120  0.00  0.00    +0.025 A 
ENDROOT
TORSDOF 0
