REMARK  Name = 
REMARK  14 active torsions:
REMARK  status: ('A' for Active; 'I' for Inactive)
REMARK    1  A    between atoms: C_1  and  C_2
REMARK    2  A    between atoms: N_4  and  C_5
REMARK    3  A    between atoms: C_7  and  O_9
REMARK    4  A    between atoms: C_11  and  C_13
REMARK    5  A    between atoms: C_13  and  O_14
REMARK    6  A    between atoms: C_15  and  O_17
REMARK    7  A    between atoms: O_17  and  C_18
REMARK    8  A    between atoms: C_21  and  C_23
REMARK    9  A    between atoms: C_23  and  O_24
REMARK   10  A    between atoms: C_25  and  O_27
REMARK   11  A    between atoms: C_28  and  O_30
REMARK   12  A    between atoms: C_31  and  N_33
REMARK   13  A    between atoms: C_34  and  C_35
REMARK   14  A    between atoms: C_37  and  O_39
REMARK                            x       y       z     vdW  Elec       q    Type
REMARK                         _______ _______ _______ _____ _____    ______ ____
ROOT
ATOM      1  O   UNL     1       5.071   2.189  -1.757  0.00  0.00    -0.341 OA
ENDROOT
BRANCH   1   4
ATOM      2  C   UNL     1       4.678   0.500   1.561  0.00  0.00    +0.160 C 
ATOM      3  C   UNL     1       4.820   1.692   0.592  0.00  0.00    +0.171 C 
ATOM      4  C   UNL     1       5.165   1.149  -0.804  0.00  0.00    +0.183 C 
ATOM      5  C   UNL     1       6.492   0.376  -0.766  0.00  0.00    +0.178 C 
ATOM      6  O   UNL     1       6.420  -0.694   0.198  0.00  0.00    -0.341 OA
ATOM      7  C   UNL     1       5.990  -0.338   1.519  0.00  0.00    +0.270 C 
BRANCH   2  10
ATOM      8  C   UNL     1       1.119  -0.710   0.899  0.00  0.00    +0.109 C 
ATOM      9  C   UNL     1       2.215   0.230   1.328  0.00  0.00    +0.210 C 
ATOM     10  N   UNL     1       3.483  -0.311   1.275  0.00  0.00    -0.305 N 
ATOM     11  H   UNL     1       3.595  -1.161   0.728  0.00  0.00    +0.149 HD
ATOM     12  O   UNL     1       1.982   1.367   1.720  0.00  0.00    -0.276 OA
ENDBRANCH   2  10
BRANCH   3  13
ATOM     13  O   UNL     1       5.831   2.588   1.090  0.00  0.00    -0.387 OA
ATOM     14  H   UNL     1       5.747   3.401   0.549  0.00  0.00    +0.210 HD
ENDBRANCH   3  13
BRANCH   7  15
ATOM     15  O   UNL     1       7.056   0.277   2.229  0.00  0.00    -0.365 OA
ATOM     16  H   UNL     1       6.888   1.241   2.206  0.00  0.00    +0.213 HD
ENDBRANCH   7  15
BRANCH   5  17
ATOM     17  C   UNL     1       7.763   1.232  -0.609  0.00  0.00    +0.190 C 
BRANCH  17  18
ATOM     18  O   UNL     1       8.920   0.415  -0.820  0.00  0.00    -0.392 OA
ATOM     19  H   UNL     1       8.908  -0.240  -0.095  0.00  0.00    +0.210 HD
ENDBRANCH  17  18
ENDBRANCH   5  17
ENDBRANCH   1   4
BRANCH   1  20
ATOM     20  C   UNL     1       5.077   1.866  -3.153  0.00  0.00    +0.274 C 
ATOM     21  C   UNL     1       4.085   0.767  -3.730  0.00  0.00    +0.160 C 
ATOM     22  C   UNL     1       4.101   0.893  -5.289  0.00  0.00    +0.171 C 
ATOM     23  C   UNL     1       3.843   2.309  -5.801  0.00  0.00    +0.176 C 
ATOM     24  C   UNL     1       4.903   3.213  -5.163  0.00  0.00    +0.178 C 
ATOM     25  O   UNL     1       4.798   3.155  -3.738  0.00  0.00    -0.341 OA
BRANCH  21  26
ATOM     26  N   UNL     1       4.463  -0.660  -3.480  0.00  0.00    -0.305 N 
ATOM     27  H   UNL     1       4.681  -1.155  -4.339  0.00  0.00    +0.149 HD
ATOM     28  C   UNL     1       3.831  -1.489  -2.590  0.00  0.00    +0.210 C 
ATOM     29  O   UNL     1       3.016  -1.131  -1.740  0.00  0.00    -0.276 OA
ATOM     30  C   UNL     1       4.221  -2.942  -2.735  0.00  0.00    +0.109 C 
ENDBRANCH  21  26
BRANCH  22  31
ATOM     31  O   UNL     1       3.217  -0.079  -5.874  0.00  0.00    -0.387 OA
ATOM     32  H   UNL     1       2.729   0.353  -6.600  0.00  0.00    +0.210 HD
ENDBRANCH  22  31
BRANCH  23  33
ATOM     33  O   UNL     1       2.495   2.667  -5.482  0.00  0.00    -0.387 OA
ATOM     34  H   UNL     1       2.322   3.580  -5.766  0.00  0.00    +0.210 HD
ENDBRANCH  23  33
BRANCH  24  35
ATOM     35  C   UNL     1       4.742   4.677  -5.572  0.00  0.00    +0.190 C 
BRANCH  35  36
ATOM     36  O   UNL     1       5.770   5.456  -4.965  0.00  0.00    -0.392 OA
ATOM     37  H   UNL     1       5.685   5.297  -4.003  0.00  0.00    +0.210 HD
ENDBRANCH  35  36
ENDBRANCH  24  35
ENDBRANCH   1  20
TORSDOF 12
