REMARK  Name = 
REMARK  11 active torsions:
REMARK  status: ('A' for Active; 'I' for Inactive)
REMARK    1  A    between atoms: C_10  and  C_12
REMARK    2  A    between atoms: C_12  and  C_13
REMARK    3  A    between atoms: C_13  and  C_14
REMARK    4  A    between atoms: C_17  and  C_20
REMARK    5  A    between atoms: N_22  and  CA_23
REMARK    6  A    between atoms: CA_23  and  CB_25
REMARK    7  A    between atoms: CA_23  and  C_30
REMARK    8  A    between atoms: CB_25  and  CG_26
REMARK    9  A    between atoms: CG_26  and  CD_27
REMARK   10  A    between atoms: CD_27  and  OE1_28
REMARK   11  A    between atoms: C_30  and  O_31
REMARK                            x       y       z     vdW  Elec       q    Type
REMARK                         _______ _______ _______ _____ _____    ______ ____
ROOT
ATOM      1  C   UNK A   0      12.175  -2.668  -1.311  0.00  0.00    -0.047 A 
ATOM      2  C   UNK A   0      13.364  -3.077  -0.692  0.00  0.00    +0.004 A 
ATOM      3  C   UNK A   0      14.588  -2.937  -1.348  0.00  0.00    +0.013 A 
ATOM      4  C   UNK A   0      14.635  -2.397  -2.637  0.00  0.00    +0.037 A 
ATOM      5  C   UNK A   0      13.464  -1.898  -3.219  0.00  0.00    +0.013 A 
ATOM      6  C   UNK A   0      12.242  -2.033  -2.557  0.00  0.00    +0.004 A 
ENDROOT
BRANCH   4   7
ATOM      7  C   UNK A   0      15.932  -2.423  -3.363  0.00  0.00    +0.245 C 
ATOM      8  N   GLU A   1      15.860  -2.518  -4.740  0.00  0.00    -0.298 N 
ATOM      9  H   GLU A   1      14.965  -2.412  -5.205  0.00  0.00    +0.150 HD
ATOM     10  O   UNK A   0      16.993  -2.394  -2.755  0.00  0.00    -0.270 OA
BRANCH   8  11
ATOM     11  CA  GLU A   1      17.062  -2.458  -5.588  0.00  0.00    +0.182 C 
BRANCH  11  12
ATOM     12  C   GLU A   1      16.885  -3.413  -6.782  0.00  0.00    +0.325 C 
ATOM     13  OXT GLU A   1      17.535  -3.371  -7.815  0.00  0.00    -0.249 OA
BRANCH  12  14
ATOM     14  O   GLU A   1      15.968  -4.387  -6.545  0.00  0.00    -0.479 OA
ATOM     15  H   GLU A   1      15.665  -4.350  -5.615  0.00  0.00    +0.295 HD
ENDBRANCH  12  14
ENDBRANCH  11  12
BRANCH  11  16
ATOM     16  CB  GLU A   1      17.337  -1.031  -6.071  0.00  0.00    +0.045 C 
BRANCH  16  17
ATOM     17  CG  GLU A   1      17.591  -0.050  -4.925  0.00  0.00    +0.123 C 
BRANCH  17  18
ATOM     18  CD  GLU A   1      17.907   1.332  -5.438  0.00  0.00    +0.305 C 
ATOM     19  OE2 GLU A   1      17.497   1.791  -6.493  0.00  0.00    -0.251 OA
BRANCH  18  20
ATOM     20  OE1 GLU A   1      18.650   2.056  -4.572  0.00  0.00    -0.481 OA
ATOM     21  HE1 GLU A   1      18.886   1.578  -3.754  0.00  0.00    +0.295 HD
ENDBRANCH  18  20
ENDBRANCH  17  18
ENDBRANCH  16  17
ENDBRANCH  11  16
ENDBRANCH   8  11
ENDBRANCH   4   7
BRANCH   1  22
ATOM     22  C   UNK A   0      10.844  -2.922  -0.645  0.00  0.00    +0.035 C 
BRANCH  22  23
ATOM     23  C   UNK A   0       9.925  -3.805  -1.504  0.00  0.00    +0.010 C 
BRANCH  23  34
ATOM     24  N   UNK A   0       2.950  -6.515   0.662  0.00  0.00    -0.329 N 
ATOM     25  H   UNK A   0       3.086  -7.080   1.486  0.00  0.00    +0.145 HD
ATOM     26  H   UNK A   0       2.247  -6.918   0.045  0.00  0.00    +0.145 HD
ATOM     27  C   UNK A   0       4.074  -6.201  -0.028  0.00  0.00    +0.195 A 
ATOM     28  N   UNK A   0       5.137  -5.917   0.756  0.00  0.00    -0.316 N 
ATOM     29  H   UNK A   0       5.005  -5.769   1.745  0.00  0.00    +0.170 HD
ATOM     30  C   UNK A   0       6.311  -5.474   0.224  0.00  0.00    +0.107 A 
ATOM     31  N   UNK A   0       7.362  -5.073   1.018  0.00  0.00    -0.330 N 
ATOM     32  H   UNK A   0       7.267  -5.209   2.016  0.00  0.00    +0.147 HD
ATOM     33  C   UNK A   0       8.697  -4.858   0.491  0.00  0.00    +0.106 C 
ATOM     34  C   UNK A   0       8.573  -4.103  -0.840  0.00  0.00    +0.011 C 
ATOM     35  C   UNK A   0       7.661  -4.906  -1.801  0.00  0.00    +0.049 C 
ATOM     36  C   UNK A   0       6.422  -5.412  -1.116  0.00  0.00    +0.057 A 
ATOM     37  C   UNK A   0       5.255  -5.839  -1.956  0.00  0.00    +0.279 A 
ATOM     38  O   UNK A   0       5.376  -5.854  -3.179  0.00  0.00    -0.265 OA
ATOM     39  N   UNK A   0       4.083  -6.183  -1.320  0.00  0.00    -0.177 NA
ENDBRANCH  23  34
ENDBRANCH  22  23
ENDBRANCH   1  22
TORSDOF 11
