REMARK  Name = 
REMARK  15 active torsions:
REMARK  status: ('A' for Active; 'I' for Inactive)
REMARK    1  A    between atoms: C_1  and  C_2
REMARK    2  A    between atoms: C_2  and  C_3
REMARK    3  A    between atoms: C_3  and  CA_4
REMARK    4  A    between atoms: CA_4  and  N_6
REMARK    5  A    between atoms: CA_4  and  C_22
REMARK    6  A    between atoms: N_6  and  C_7
REMARK    7  A    between atoms: C_7  and  C_8
REMARK    8  A    between atoms: C_9  and  O_10
REMARK    9  A    between atoms: C_11  and  C_12
REMARK   10  A    between atoms: C_15  and  C_16
REMARK   11  A    between atoms: C_16  and  O_17
REMARK   12  A    between atoms: O_17  and  P_18
REMARK   13  A    between atoms: P_18  and  O_19
REMARK   14  A    between atoms: P_18  and  O_20
REMARK   15  A    between atoms: C_22  and  O_23
REMARK                            x       y       z     vdW  Elec       q    Type
REMARK                         _______ _______ _______ _____ _____    ______ ____
ROOT
ATOM      1  C   UNL     1       4.694   2.683  -0.863  0.00  0.00    +0.016 A 
ATOM      2  C   UNL     1       5.740   2.779  -1.815  0.00  0.00    +0.005 A 
ATOM      3  C   UNL     1       6.074   4.065  -2.259  0.00  0.00    +0.117 A 
ATOM      4  N   UNL     1       5.510   5.217  -1.828  0.00  0.00    -0.256 NA
ATOM      5  C   UNL     1       4.578   5.125  -0.865  0.00  0.00    +0.080 A 
ATOM      6  C   UNL     1       3.988   6.425  -0.393  0.00  0.00    +0.069 C 
ATOM      7  C   UNL     1       4.193   3.894  -0.331  0.00  0.00    +0.142 A 
ENDROOT
BRANCH   7   8
ATOM      8  O   UNL     1       3.350   3.871   0.751  0.00  0.00    -0.505 OA
ATOM      9  H   UNL     1       3.938   3.788   1.526  0.00  0.00    +0.292 HD
ENDBRANCH   7   8
BRANCH   1  10
ATOM     10  C   UNL     1       4.154   1.335  -0.378  0.00  0.00    +0.121 C 
BRANCH  10  11
ATOM     11  N   UNL     1       2.747   1.424   0.052  0.00  0.00    -0.300 NA
ATOM     12  H   UNL     1       2.740   2.102   0.823  0.00  0.00    +0.123 HD
BRANCH  11  13
ATOM     13  CA  UNL     1       2.110   0.165   0.529  0.00  0.00    +0.164 C 
BRANCH  13  14
ATOM     14  C   UNL     1       0.597   0.469   0.749  0.00  0.00    +0.322 C 
ATOM     15  OXT UNL     1      -0.234  -0.322   1.158  0.00  0.00    -0.249 OA
BRANCH  14  16
ATOM     16  O   UNL     1       0.271   1.758   0.445  0.00  0.00    -0.480 OA
ATOM     17  H   UNL     1       1.053   2.174   0.012  0.00  0.00    +0.295 HD
ENDBRANCH  14  16
ENDBRANCH  13  14
BRANCH  13  18
ATOM     18  C   UNL     1       2.770  -0.359   1.821  0.00  0.00    +0.030 C 
BRANCH  18  20
ATOM     19  C   UNL     1       2.934  -2.213   3.537  0.00  0.00    +0.004 C 
ATOM     20  C   UNL     1       2.180  -1.680   2.329  0.00  0.00    -0.001 C 
ENDBRANCH  18  20
ENDBRANCH  13  18
ENDBRANCH  11  13
ENDBRANCH  10  11
ENDBRANCH   1  10
BRANCH   2  21
ATOM     21  C   UNL     1       6.491   1.596  -2.401  0.00  0.00    +0.209 C 
BRANCH  21  22
ATOM     22  O   UNL     1       7.816   1.976  -2.778  0.00  0.00    -0.282 OA
BRANCH  22  23
ATOM     23  P   UNL     1       8.814   0.761  -3.500  0.00  0.00    +0.473 P 
ATOM     24  O   UNL     1       9.707  -0.326  -4.146  0.00  0.00    -0.228 OA
BRANCH  23  25
ATOM     25  O   UNL     1       9.067   0.236  -1.969  0.00  0.00    -0.303 OA
ATOM     26  H   UNL     1       8.851  -0.707  -1.877  0.00  0.00    +0.222 HD
ENDBRANCH  23  25
BRANCH  23  27
ATOM     27  O   UNL     1       9.991   1.896  -3.512  0.00  0.00    -0.303 OA
ATOM     28  H   UNL     1      10.036   2.376  -4.354  0.00  0.00    +0.222 HD
ENDBRANCH  23  27
ENDBRANCH  22  23
ENDBRANCH  21  22
ENDBRANCH   2  21
TORSDOF 13
