REMARK  Name = 
REMARK  34 active torsions:
REMARK  status: ('A' for Active; 'I' for Inactive)
REMARK    1  A    between atoms: C_1  and  O_2
REMARK    2  A    between atoms: O_2  and  C_3
REMARK    3  A    between atoms: C_5  and  C_6
REMARK    4  A    between atoms: C_7  and  C_8
REMARK    5  A    between atoms: C_8  and  S_10
REMARK    6  A    between atoms: S_10  and  C_11
REMARK    7  A    between atoms: C_11  and  C_12
REMARK    8  A    between atoms: C_12  and  N_13
REMARK    9  A    between atoms: C_14  and  C_16
REMARK   10  A    between atoms: C_16  and  C_17
REMARK   11  A    between atoms: C_17  and  N_18
REMARK   12  A    between atoms: C_19  and  C_21
REMARK   13  A    between atoms: C_21  and  O_22
REMARK   14  A    between atoms: C_23  and  C_24
REMARK   15  A    between atoms: C_23  and  C_25
REMARK   16  A    between atoms: C_26  and  O_28
REMARK   17  A    between atoms: O_28  and  P_29
REMARK   18  A    between atoms: P_29  and  O_30
REMARK   19  A    between atoms: P_29  and  O_32
REMARK   20  A    between atoms: O_32  and  P_33
REMARK   21  A    between atoms: P_33  and  O_34
REMARK   22  A    between atoms: P_33  and  O_36
REMARK   23  A    between atoms: O_36  and  C_37
REMARK   24  A    between atoms: C_37  and  C_38
REMARK   25  A    between atoms: C_41  and  N_53
REMARK   26  A    between atoms: C_43  and  O_45
REMARK   27  A    between atoms: C_46  and  O_48
REMARK   28  A    between atoms: O_48  and  P_49
REMARK   29  A    between atoms: P_49  and  O_50
REMARK   30  A    between atoms: P_49  and  O_51
REMARK   31  A    between atoms: C_57  and  N_58
REMARK   32  A    between atoms: C_64  and  O_65
REMARK   33  A    between atoms: O_65  and  C_66
REMARK   34  A    between atoms: C_67  and  O_68
REMARK                            x       y       z     vdW  Elec       q    Type
REMARK                         _______ _______ _______ _____ _____    ______ ____
ROOT
ATOM      1  O   UNL     1      14.390   7.209 -16.274  0.00  0.00    -0.279 OA
ENDROOT
BRANCH   1   3
ATOM      2  C   UNL     1      12.091   7.964 -17.337  0.00  0.00    +0.176 C 
ATOM      3  C   UNL     1      13.307   7.056 -17.237  0.00  0.00    +0.180 C 
ATOM      4  C   UNL     1      13.208   8.038 -18.395  0.00  0.00    +0.035 C 
ATOM      5  C   UNL     1      14.052   9.299 -18.452  0.00  0.00    +0.017 C 
ATOM      6  C   UNL     1      12.973   7.459 -19.771  0.00  0.00    +0.017 C 
BRANCH   2   9
ATOM      7  N   UNL     1      11.309   9.165 -15.338  0.00  0.00    -0.312 N 
ATOM      8  H   UNL     1      11.287   8.251 -14.895  0.00  0.00    +0.149 HD
ATOM      9  C   UNL     1      11.747   9.255 -16.633  0.00  0.00    +0.248 C 
ATOM     10  O   UNL     1      11.686  10.303 -17.276  0.00  0.00    -0.273 OA
BRANCH   7  11
ATOM     11  C   UNL     1      10.856  10.335 -14.592  0.00  0.00    +0.113 C 
BRANCH  11  12
ATOM     12  C   UNL     1       9.507  10.148 -13.905  0.00  0.00    +0.114 C 
BRANCH  12  15
ATOM     13  N   UNL     1       9.827   9.446 -11.588  0.00  0.00    -0.314 N 
ATOM     14  H   UNL     1       9.956  10.429 -11.381  0.00  0.00    +0.149 HD
ATOM     15  C   UNL     1       9.566   9.040 -12.877  0.00  0.00    +0.215 C 
ATOM     16  O   UNL     1       9.449   7.865 -13.201  0.00  0.00    -0.276 OA
BRANCH  13  17
ATOM     17  C   UNL     1      10.034   8.480 -10.517  0.00  0.00    +0.115 C 
BRANCH  17  18
ATOM     18  C   UNL     1       8.754   8.128  -9.747  0.00  0.00    +0.096 C 
BRANCH  18  19
ATOM     19  S   UNL     1       9.172   6.896  -8.471  0.00  0.00    -0.082 S 
BRANCH  19  20
ATOM     20  C   UNL     1       7.605   6.616  -7.733  0.00  0.00    +0.213 C 
ATOM     21  O   UNL     1       6.597   7.229  -8.047  0.00  0.00    -0.280 OA
BRANCH  20  23
ATOM     22  C   UNL     1       6.561   5.233  -5.976  0.00  0.00    +0.012 C 
ATOM     23  C   UNL     1       7.659   5.572  -6.670  0.00  0.00    +0.058 C 
BRANCH  22  28
ATOM     24  C   UNL     1       5.554   3.557  -2.757  0.00  0.00    +0.166 A 
ATOM     25  C   UNL     1       6.460   2.478  -2.675  0.00  0.00    +0.201 A 
ATOM     26  C   UNL     1       7.364   2.242  -3.719  0.00  0.00    +0.166 A 
ATOM     27  C   UNL     1       7.383   3.139  -4.804  0.00  0.00    +0.057 A 
ATOM     28  C   UNL     1       6.540   4.256  -4.869  0.00  0.00    -0.018 A 
ATOM     29  C   UNL     1       5.612   4.440  -3.843  0.00  0.00    +0.057 A 
BRANCH  24  31
ATOM     30  C   UNL     1       3.426   4.344  -2.057  0.00  0.00    +0.277 C 
ATOM     31  O   UNL     1       4.657   3.707  -1.724  0.00  0.00    -0.491 OA
ENDBRANCH  24  31
BRANCH  26  32
ATOM     32  O   UNL     1       8.298   1.258  -3.879  0.00  0.00    -0.491 OA
ATOM     33  C   UNL     1       8.462   0.218  -2.934  0.00  0.00    +0.277 C 
ENDBRANCH  26  32
BRANCH  25  34
ATOM     34  O   UNL     1       6.395   1.727  -1.531  0.00  0.00    -0.501 OA
ATOM     35  H   UNL     1       6.522   0.797  -1.752  0.00  0.00    +0.292 HD
ENDBRANCH  25  34
ENDBRANCH  22  28
ENDBRANCH  20  23
ENDBRANCH  19  20
ENDBRANCH  18  19
ENDBRANCH  17  18
ENDBRANCH  13  17
ENDBRANCH  12  15
ENDBRANCH  11  12
ENDBRANCH   7  11
ENDBRANCH   2   9
BRANCH   2  36
ATOM     36  O   UNL     1      10.894   7.238 -17.741  0.00  0.00    -0.376 OA
ATOM     37  H   UNL     1      10.159   7.856 -17.907  0.00  0.00    +0.211 HD
ENDBRANCH   2  36
ENDBRANCH   1   3
BRANCH   1  38
ATOM     38  P   UNL     1      15.950   7.141 -17.019  0.00  0.00    +0.484 P 
ATOM     39  O   UNL     1      15.858   5.612 -17.111  0.00  0.00    -0.227 OA
BRANCH  38  40
ATOM     40  O   UNL     1      16.633   7.404 -15.558  0.00  0.00    -0.302 OA
ATOM     41  H   UNL     1      16.659   6.539 -15.103  0.00  0.00    +0.222 HD
ENDBRANCH  38  40
BRANCH  38  42
ATOM     42  O   UNL     1      17.510   7.072 -17.765  0.00  0.00    -0.186 OA
BRANCH  42  43
ATOM     43  P   UNL     1      17.848   7.286 -19.315  0.00  0.00    +0.483 P 
ATOM     44  O   UNL     1      19.288   7.132 -19.697  0.00  0.00    -0.227 OA
BRANCH  43  45
ATOM     45  O   UNL     1      16.961   6.203 -20.086  0.00  0.00    -0.302 OA
ATOM     46  H   UNL     1      17.456   5.366 -20.174  0.00  0.00    +0.222 HD
ENDBRANCH  43  45
BRANCH  43  47
ATOM     47  O   UNL     1      17.230   8.676 -19.837  0.00  0.00    -0.284 OA
BRANCH  47  48
ATOM     48  C   UNL     1      17.872   9.390 -20.919  0.00  0.00    +0.206 C 
BRANCH  48  49
ATOM     49  C   UNL     1      17.844   8.690 -22.311  0.00  0.00    +0.179 C 
ATOM     50  C   UNL     1      18.502   9.511 -23.474  0.00  0.00    +0.194 C 
ATOM     51  C   UNL     1      17.466   9.487 -24.604  0.00  0.00    +0.196 C 
ATOM     52  C   UNL     1      16.330   8.585 -24.086  0.00  0.00    +0.253 C 
ATOM     53  O   UNL     1      16.451   8.528 -22.656  0.00  0.00    -0.346 OA
BRANCH  52  54
ATOM     54  N   UNL     1      14.976   8.936 -24.449  0.00  0.00    -0.286 N 
ATOM     55  C   UNL     1      14.297  10.080 -24.124  0.00  0.00    +0.167 A 
ATOM     56  C   UNL     1      13.075   9.964 -24.771  0.00  0.00    +0.147 A 
ATOM     57  C   UNL     1      12.186  11.056 -24.650  0.00  0.00    +0.147 A 
ATOM     58  N   UNL     1      12.560  12.102 -23.888  0.00  0.00    -0.219 NA
ATOM     59  C   UNL     1      13.780  12.075 -23.306  0.00  0.00    +0.225 A 
ATOM     60  N   UNL     1      12.984   8.763 -25.442  0.00  0.00    -0.231 NA
ATOM     61  N   UNL     1      14.729  11.117 -23.380  0.00  0.00    -0.216 NA
ATOM     62  C   UNL     1      14.140   8.171 -25.223  0.00  0.00    +0.203 A 
BRANCH  57  63
ATOM     63  N   UNL     1      10.955  11.110 -25.288  0.00  0.00    -0.341 N 
ATOM     64  H   UNL     1      10.320  11.764 -24.851  0.00  0.00    +0.144 HD
ATOM     65  H   UNL     1      10.593  10.206 -25.567  0.00  0.00    +0.144 HD
ENDBRANCH  57  63
ENDBRANCH  52  54
BRANCH  51  66
ATOM     66  O   UNL     1      17.088  10.834 -24.906  0.00  0.00    -0.385 OA
ATOM     67  H   UNL     1      16.481  11.163 -24.209  0.00  0.00    +0.210 HD
ENDBRANCH  51  66
BRANCH  50  68
ATOM     68  O   UNL     1      19.787   9.023 -23.992  0.00  0.00    -0.278 OA
BRANCH  68  69
ATOM     69  P   UNL     1      20.996   9.071 -22.755  0.00  0.00    +0.473 P 
ATOM     70  O   UNL     1      22.077   9.115 -21.648  0.00  0.00    -0.228 OA
BRANCH  69  71
ATOM     71  O   UNL     1      21.987   8.568 -23.947  0.00  0.00    -0.303 OA
ATOM     72  H   UNL     1      21.549   8.738 -24.802  0.00  0.00    +0.222 HD
ENDBRANCH  69  71
BRANCH  69  73
ATOM     73  O   UNL     1      21.136  10.669 -23.046  0.00  0.00    -0.303 OA
ATOM     74  H   UNL     1      22.027  10.907 -22.713  0.00  0.00    +0.222 HD
ENDBRANCH  69  73
ENDBRANCH  68  69
ENDBRANCH  50  68
ENDBRANCH  48  49
ENDBRANCH  47  48
ENDBRANCH  43  47
ENDBRANCH  42  43
ENDBRANCH  38  42
ENDBRANCH   1  38
TORSDOF 30
