REMARK  Name = 
REMARK  32 active torsions:
REMARK  status: ('A' for Active; 'I' for Inactive)
REMARK    1  A    between atoms: C_1  and  C_2
REMARK    2  A    between atoms: C_2  and  O_4
REMARK    3  A    between atoms: C_2  and  C_5
REMARK    4  A    between atoms: C_5  and  C_6
REMARK    5  A    between atoms: C_6  and  S_8
REMARK    6  A    between atoms: S_8  and  C_9
REMARK    7  A    between atoms: C_9  and  C_10
REMARK    8  A    between atoms: C_10  and  N_11
REMARK    9  A    between atoms: C_12  and  C_14
REMARK   10  A    between atoms: C_14  and  C_15
REMARK   11  A    between atoms: C_15  and  N_16
REMARK   12  A    between atoms: C_17  and  C_19
REMARK   13  A    between atoms: C_19  and  O_21
REMARK   14  A    between atoms: C_19  and  C_22
REMARK   15  A    between atoms: C_22  and  C_23
REMARK   16  A    between atoms: C_22  and  C_24
REMARK   17  A    between atoms: C_22  and  C_25
REMARK   18  A    between atoms: C_25  and  O_26
REMARK   19  A    between atoms: O_26  and  P_27
REMARK   20  A    between atoms: P_27  and  O_28
REMARK   21  A    between atoms: P_27  and  O_30
REMARK   22  A    between atoms: O_30  and  P_31
REMARK   23  A    between atoms: P_31  and  O_32
REMARK   24  A    between atoms: P_31  and  O_34
REMARK   25  A    between atoms: O_34  and  C_35
REMARK   26  A    between atoms: C_35  and  C_36
REMARK   27  A    between atoms: C_39  and  N_51
REMARK   28  A    between atoms: C_41  and  O_43
REMARK   29  A    between atoms: C_44  and  O_46
REMARK   30  A    between atoms: O_46  and  P_47
REMARK   31  A    between atoms: P_47  and  O_48
REMARK   32  A    between atoms: P_47  and  O_49
REMARK                            x       y       z     vdW  Elec       q    Type
REMARK                         _______ _______ _______ _____ _____    ______ ____
ROOT
ATOM      1  O   UNL     1      28.596  -2.957   4.872  0.00  0.00    -0.186 OA
ENDROOT
BRANCH   1   2
ATOM      2  P   UNL     1      28.629  -4.088   5.997  0.00  0.00    +0.483 P 
ATOM      3  O   UNL     1      28.336  -5.480   5.581  0.00  0.00    -0.227 OA
BRANCH   2   4
ATOM      4  O   UNL     1      27.503  -3.626   7.044  0.00  0.00    -0.302 OA
ATOM      5  H   UNL     1      26.702  -4.172   6.870  0.00  0.00    +0.222 HD
ENDBRANCH   2   4
BRANCH   2   6
ATOM      6  O   UNL     1      29.991  -3.994   6.854  0.00  0.00    -0.284 OA
BRANCH   6   7
ATOM      7  C   UNL     1      30.864  -5.123   6.771  0.00  0.00    +0.206 C 
BRANCH   7   8
ATOM      8  C   UNL     1      31.487  -5.499   8.125  0.00  0.00    +0.179 C 
ATOM      9  C   UNL     1      32.060  -4.273   8.844  0.00  0.00    +0.194 C 
ATOM     10  C   UNL     1      31.156  -4.083  10.059  0.00  0.00    +0.196 C 
ATOM     11  C   UNL     1      30.041  -5.123   9.881  0.00  0.00    +0.253 C 
ATOM     12  O   UNL     1      30.535  -6.130   8.994  0.00  0.00    -0.346 OA
BRANCH  11  13
ATOM     13  N   UNL     1      29.650  -5.718  11.146  0.00  0.00    -0.286 N 
ATOM     14  C   UNL     1      28.703  -5.183  11.988  0.00  0.00    +0.167 A 
ATOM     15  N   UNL     1      27.944  -4.102  11.764  0.00  0.00    -0.216 NA
ATOM     16  C   UNL     1      27.112  -3.890  12.803  0.00  0.00    +0.225 A 
ATOM     17  N   UNL     1      27.018  -4.574  13.963  0.00  0.00    -0.219 NA
ATOM     18  C   UNL     1      27.818  -5.652  14.137  0.00  0.00    +0.147 A 
ATOM     19  N   UNL     1      27.734  -6.333  15.348  0.00  0.00    -0.341 N 
ATOM     20  H   UNL     1      28.569  -6.864  15.567  0.00  0.00    +0.144 HD
ATOM     21  H   UNL     1      27.348  -5.750  16.079  0.00  0.00    +0.144 HD
ATOM     22  C   UNL     1      28.716  -5.997  13.105  0.00  0.00    +0.147 A 
ATOM     23  N   UNL     1      29.662  -6.994  12.977  0.00  0.00    -0.231 NA
ATOM     24  C   UNL     1      30.194  -6.800  11.781  0.00  0.00    +0.203 A 
ENDBRANCH  11  13
BRANCH  10  25
ATOM     25  O   UNL     1      30.633  -2.750  10.074  0.00  0.00    -0.385 OA
ATOM     26  H   UNL     1      29.789  -2.750  10.569  0.00  0.00    +0.210 HD
ENDBRANCH  10  25
BRANCH   9  27
ATOM     27  O   UNL     1      33.428  -4.527   9.226  0.00  0.00    -0.278 OA
BRANCH  27  28
ATOM     28  P   UNL     1      34.382  -4.861   7.822  0.00  0.00    +0.473 P 
ATOM     29  O   UNL     1      35.236  -5.161   6.565  0.00  0.00    -0.228 OA
BRANCH  28  30
ATOM     30  O   UNL     1      35.096  -3.429   8.139  0.00  0.00    -0.303 OA
ATOM     31  H   UNL     1      35.656  -3.562   8.926  0.00  0.00    +0.222 HD
ENDBRANCH  28  30
BRANCH  28  32
ATOM     32  O   UNL     1      35.354  -5.717   8.820  0.00  0.00    -0.303 OA
ATOM     33  H   UNL     1      35.520  -6.600   8.440  0.00  0.00    +0.222 HD
ENDBRANCH  28  32
ENDBRANCH  27  28
ENDBRANCH   9  27
ENDBRANCH   7   8
ENDBRANCH   6   7
ENDBRANCH   2   6
ENDBRANCH   1   2
BRANCH   1  34
ATOM     34  P   UNL     1      29.452  -3.143   3.535  0.00  0.00    +0.483 P 
ATOM     35  O   UNL     1      30.096  -4.491   3.439  0.00  0.00    -0.227 OA
BRANCH  34  36
ATOM     36  O   UNL     1      30.570  -2.010   3.720  0.00  0.00    -0.302 OA
ATOM     37  H   UNL     1      31.369  -2.211   3.202  0.00  0.00    +0.222 HD
ENDBRANCH  34  36
BRANCH  34  38
ATOM     38  O   UNL     1      28.647  -2.562   2.276  0.00  0.00    -0.286 OA
BRANCH  38  39
ATOM     39  C   UNL     1      28.612  -3.125   0.954  0.00  0.00    +0.181 C 
BRANCH  39  40
ATOM     40  C   UNL     1      29.939  -3.242   0.149  0.00  0.00    +0.024 C 
ATOM     41  C   UNL     1      30.587  -1.845   0.061  0.00  0.00    +0.016 C 
ATOM     42  C   UNL     1      30.931  -4.182   0.845  0.00  0.00    +0.016 C 
BRANCH  40  43
ATOM     43  C   UNL     1      29.724  -3.806  -1.303  0.00  0.00    +0.208 C 
BRANCH  43  46
ATOM     44  N   UNL     1      27.963  -5.338  -2.112  0.00  0.00    -0.313 N 
ATOM     45  H   UNL     1      27.755  -4.549  -2.719  0.00  0.00    +0.149 HD
ATOM     46  C   UNL     1      29.132  -5.240  -1.379  0.00  0.00    +0.242 C 
ATOM     47  O   UNL     1      29.669  -6.206  -0.849  0.00  0.00    -0.273 OA
BRANCH  44  48
ATOM     48  C   UNL     1      27.279  -6.605  -2.357  0.00  0.00    +0.113 C 
BRANCH  48  49
ATOM     49  C   UNL     1      27.009  -7.453  -1.115  0.00  0.00    +0.114 C 
BRANCH  49  52
ATOM     50  N   UNL     1      25.968  -5.464  -0.096  0.00  0.00    -0.314 N 
ATOM     51  H   UNL     1      26.404  -4.978  -0.871  0.00  0.00    +0.149 HD
ATOM     52  C   UNL     1      26.147  -6.827  -0.038  0.00  0.00    +0.215 C 
ATOM     53  O   UNL     1      25.668  -7.532   0.854  0.00  0.00    -0.276 OA
BRANCH  50  54
ATOM     54  C   UNL     1      25.207  -4.640   0.831  0.00  0.00    +0.115 C 
BRANCH  54  55
ATOM     55  C   UNL     1      25.061  -5.128   2.273  0.00  0.00    +0.096 C 
BRANCH  55  56
ATOM     56  S   UNL     1      26.677  -5.426   3.035  0.00  0.00    -0.087 S 
BRANCH  56  57
ATOM     57  C   UNL     1      26.132  -6.311   4.449  0.00  0.00    +0.192 C 
ATOM     58  O   UNL     1      25.649  -5.690   5.395  0.00  0.00    -0.285 OA
BRANCH  57  59
ATOM     59  C   UNL     1      26.170  -7.821   4.374  0.00  0.00    +0.117 C 
BRANCH  59  61
ATOM     60  C   UNL     1      28.618  -8.445   4.941  0.00  0.00    +0.038 C 
ATOM     61  C   UNL     1      27.464  -8.524   3.950  0.00  0.00    +0.119 C 
BRANCH  61  62
ATOM     62  O   UNL     1      27.141  -9.919   3.818  0.00  0.00    -0.392 OA
ATOM     63  H   UNL     1      27.941 -10.371   3.499  0.00  0.00    +0.210 HD
ENDBRANCH  61  62
ENDBRANCH  59  61
ENDBRANCH  57  59
ENDBRANCH  56  57
ENDBRANCH  55  56
ENDBRANCH  54  55
ENDBRANCH  50  54
ENDBRANCH  49  52
ENDBRANCH  48  49
ENDBRANCH  44  48
ENDBRANCH  43  46
BRANCH  43  64
ATOM     64  O   UNL     1      28.971  -2.910  -2.128  0.00  0.00    -0.382 OA
ATOM     65  H   UNL     1      29.308  -3.030  -3.033  0.00  0.00    +0.210 HD
ENDBRANCH  43  64
ENDBRANCH  40  43
ENDBRANCH  39  40
ENDBRANCH  38  39
ENDBRANCH  34  38
ENDBRANCH   1  34
TORSDOF 29
