REMARK  Name = 
REMARK  53 active torsions:
REMARK  status: ('A' for Active; 'I' for Inactive)
REMARK    1  A    between atoms: C_1  and  C_2
REMARK    2  A    between atoms: C_2  and  C_3
REMARK    3  A    between atoms: C_3  and  C_4
REMARK    4  A    between atoms: C_4  and  C_5
REMARK    5  A    between atoms: C_5  and  C_6
REMARK    6  A    between atoms: C_6  and  C_7
REMARK    7  A    between atoms: C_7  and  C_8
REMARK    8  A    between atoms: C_8  and  C_9
REMARK    9  A    between atoms: C_9  and  C_10
REMARK   10  A    between atoms: C_10  and  C_11
REMARK   11  A    between atoms: C_11  and  C_12
REMARK   12  A    between atoms: C_12  and  C_13
REMARK   13  A    between atoms: C_13  and  C_14
REMARK   14  A    between atoms: C_14  and  C_15
REMARK   15  A    between atoms: C_15  and  C_16
REMARK   16  A    between atoms: C_16  and  C_17
REMARK   17  A    between atoms: C_17  and  C_18
REMARK   18  A    between atoms: C_18  and  O_20
REMARK   19  A    between atoms: O_20  and  C_21
REMARK   20  A    between atoms: C_21  and  C_22
REMARK   21  A    between atoms: C_22  and  C_24
REMARK   22  A    between atoms: C_22  and  O_58
REMARK   23  A    between atoms: C_24  and  O_25
REMARK   24  A    between atoms: O_25  and  C_26
REMARK   25  A    between atoms: C_29  and  C_31
REMARK   26  A    between atoms: C_31  and  O_32
REMARK   27  A    between atoms: O_32  and  C_33
REMARK   28  A    between atoms: C_36  and  C_38
REMARK   29  A    between atoms: C_38  and  O_39
REMARK   30  A    between atoms: C_40  and  O_42
REMARK   31  A    between atoms: C_43  and  O_45
REMARK   32  A    between atoms: C_46  and  O_48
REMARK   33  A    between atoms: C_49  and  O_51
REMARK   34  A    between atoms: C_52  and  O_54
REMARK   35  A    between atoms: C_55  and  O_57
REMARK   36  A    between atoms: O_58  and  C_59
REMARK   37  A    between atoms: C_59  and  C_61
REMARK   38  A    between atoms: C_61  and  C_62
REMARK   39  A    between atoms: C_62  and  C_63
REMARK   40  A    between atoms: C_63  and  C_64
REMARK   41  A    between atoms: C_64  and  C_65
REMARK   42  A    between atoms: C_65  and  C_66
REMARK   43  A    between atoms: C_66  and  C_67
REMARK   44  A    between atoms: C_67  and  C_68
REMARK   45  A    between atoms: C_68  and  C_69
REMARK   46  A    between atoms: C_69  and  C_70
REMARK   47  A    between atoms: C_70  and  C_71
REMARK   48  A    between atoms: C_71  and  C_72
REMARK   49  A    between atoms: C_72  and  C_73
REMARK   50  A    between atoms: C_73  and  C_74
REMARK   51  A    between atoms: C_74  and  C_75
REMARK   52  A    between atoms: C_75  and  C_76
REMARK   53  A    between atoms: C_76  and  C_77
REMARK                            x       y       z     vdW  Elec       q    Type
REMARK                         _______ _______ _______ _____ _____    ______ ____
ROOT
ATOM      1  C   UNL     1      21.388   7.331  11.877  0.00  0.00    +0.239 C 
ENDROOT
BRANCH   1   2
ATOM      2  C   UNL     1      21.002   6.663  13.184  0.00  0.00    +0.211 C 
BRANCH   2   3
ATOM      3  O   UNL     1      21.436   7.356  14.365  0.00  0.00    -0.345 OA
BRANCH   3   4
ATOM      4  C   UNL     1      20.776   8.608  14.615  0.00  0.00    +0.282 C 
ATOM      5  C   UNL     1      21.374   9.246  15.889  0.00  0.00    +0.201 C 
ATOM      6  C   UNL     1      20.920   8.480  17.150  0.00  0.00    +0.179 C 
ATOM      7  C   UNL     1      19.397   8.281  17.176  0.00  0.00    +0.177 C 
ATOM      8  C   UNL     1      18.865   7.746  15.842  0.00  0.00    +0.178 C 
ATOM      9  O   UNL     1      19.355   8.464  14.702  0.00  0.00    -0.341 OA
BRANCH   5  10
ATOM     10  O   UNL     1      21.027  10.636  15.945  0.00  0.00    -0.384 OA
ATOM     11  H   UNL     1      20.753  10.855  16.854  0.00  0.00    +0.210 HD
ENDBRANCH   5  10
BRANCH   6  12
ATOM     12  O   UNL     1      21.591   7.221  17.283  0.00  0.00    -0.386 OA
ATOM     13  H   UNL     1      21.894   6.933  16.400  0.00  0.00    +0.210 HD
ENDBRANCH   6  12
BRANCH   7  14
ATOM     14  O   UNL     1      18.784   9.549  17.472  0.00  0.00    -0.386 OA
ATOM     15  H   UNL     1      17.824   9.461  17.308  0.00  0.00    +0.210 HD
ENDBRANCH   7  14
BRANCH   8  16
ATOM     16  C   UNL     1      19.087   6.243  15.655  0.00  0.00    +0.197 C 
BRANCH  16  17
ATOM     17  O   UNL     1      18.553   5.402  16.656  0.00  0.00    -0.346 OA
BRANCH  17  18
ATOM     18  C   UNL     1      17.137   5.272  16.594  0.00  0.00    +0.282 C 
ATOM     19  C   UNL     1      16.749   4.280  17.705  0.00  0.00    +0.201 C 
ATOM     20  C   UNL     1      17.165   2.856  17.287  0.00  0.00    +0.179 C 
ATOM     21  C   UNL     1      16.626   2.522  15.886  0.00  0.00    +0.177 C 
ATOM     22  C   UNL     1      17.020   3.578  14.837  0.00  0.00    +0.178 C 
ATOM     23  O   UNL     1      16.685   4.900  15.287  0.00  0.00    -0.341 OA
BRANCH  19  24
ATOM     24  O   UNL     1      15.357   4.388  18.020  0.00  0.00    -0.384 OA
ATOM     25  H   UNL     1      14.910   3.602  17.647  0.00  0.00    +0.210 HD
ENDBRANCH  19  24
BRANCH  20  26
ATOM     26  O   UNL     1      18.580   2.667  17.351  0.00  0.00    -0.386 OA
ATOM     27  H   UNL     1      19.018   3.536  17.254  0.00  0.00    +0.210 HD
ENDBRANCH  20  26
BRANCH  21  28
ATOM     28  O   UNL     1      15.186   2.480  15.996  0.00  0.00    -0.386 OA
ATOM     29  H   UNL     1      14.813   2.619  15.106  0.00  0.00    +0.210 HD
ENDBRANCH  21  28
BRANCH  22  30
ATOM     30  C   UNL     1      18.450   3.439  14.282  0.00  0.00    +0.190 C 
BRANCH  30  31
ATOM     31  O   UNL     1      18.676   2.170  13.692  0.00  0.00    -0.392 OA
ATOM     32  H   UNL     1      18.556   2.257  12.731  0.00  0.00    +0.210 HD
ENDBRANCH  30  31
ENDBRANCH  22  30
ENDBRANCH  17  18
ENDBRANCH  16  17
ENDBRANCH   8  16
ENDBRANCH   3   4
ENDBRANCH   2   3
ENDBRANCH   1   2
BRANCH   1  33
ATOM     33  C   UNL     1      20.940   6.461  10.697  0.00  0.00    +0.279 C 
BRANCH  33  34
ATOM     34  O   UNL     1      21.313   7.065   9.449  0.00  0.00    -0.461 OA
BRANCH  34  35
ATOM     35  C   UNL     1      20.520   8.093   9.032  0.00  0.00    +0.307 C 
ATOM     36  O   UNL     1      19.501   8.465   9.591  0.00  0.00    -0.251 OA
BRANCH  35  37
ATOM     37  C   UNL     1      21.077   8.642   7.742  0.00  0.00    +0.120 C 
BRANCH  37  38
ATOM     38  C   UNL     1      20.811  10.128   7.542  0.00  0.00    +0.011 C 
BRANCH  38  39
ATOM     39  C   UNL     1      21.494  11.007   8.593  0.00  0.00    +0.001 C 
BRANCH  39  40
ATOM     40  C   UNL     1      21.276  12.482   8.259  0.00  0.00    +0.000 C 
BRANCH  40  41
ATOM     41  C   UNL     1      21.897  13.407   9.301  0.00  0.00    +0.000 C 
BRANCH  41  42
ATOM     42  C   UNL     1      21.641  14.858   8.909  0.00  0.00    +0.000 C 
BRANCH  42  43
ATOM     43  C   UNL     1      22.235  15.841   9.912  0.00  0.00    -0.000 C 
BRANCH  43  44
ATOM     44  C   UNL     1      21.944  17.268   9.458  0.00  0.00    -0.000 C 
BRANCH  44  45
ATOM     45  C   UNL     1      22.520  18.290  10.428  0.00  0.00    -0.000 C 
BRANCH  45  46
ATOM     46  C   UNL     1      22.210  19.703   9.945  0.00  0.00    -0.000 C 
BRANCH  46  47
ATOM     47  C   UNL     1      22.781  20.738  10.905  0.00  0.00    -0.000 C 
BRANCH  47  48
ATOM     48  C   UNL     1      22.473  22.150  10.420  0.00  0.00    -0.000 C 
BRANCH  48  49
ATOM     49  C   UNL     1      23.048  23.183  11.381  0.00  0.00    -0.000 C 
BRANCH  49  50
ATOM     50  C   UNL     1      22.742  24.599  10.906  0.00  0.00    -0.000 C 
BRANCH  50  51
ATOM     51  C   UNL     1      23.321  25.627  11.873  0.00  0.00    -0.000 C 
BRANCH  51  53
ATOM     52  C   UNL     1      23.601  28.070  12.374  0.00  0.00    +0.004 C 
ATOM     53  C   UNL     1      23.022  27.050  11.409  0.00  0.00    -0.003 C 
ENDBRANCH  51  53
ENDBRANCH  50  51
ENDBRANCH  49  50
ENDBRANCH  48  49
ENDBRANCH  47  48
ENDBRANCH  46  47
ENDBRANCH  45  46
ENDBRANCH  44  45
ENDBRANCH  43  44
ENDBRANCH  42  43
ENDBRANCH  41  42
ENDBRANCH  40  41
ENDBRANCH  39  40
ENDBRANCH  38  39
ENDBRANCH  37  38
ENDBRANCH  35  37
ENDBRANCH  34  35
ENDBRANCH  33  34
ENDBRANCH   1  33
BRANCH   1  54
ATOM     54  O   UNL     1      22.822   7.405  11.861  0.00  0.00    -0.456 OA
BRANCH  54  55
ATOM     55  C   UNL     1      23.363   8.642  12.017  0.00  0.00    +0.308 C 
ATOM     56  O   UNL     1      22.746   9.693  12.100  0.00  0.00    -0.251 OA
BRANCH  55  57
ATOM     57  C   UNL     1      24.853   8.531  12.114  0.00  0.00    +0.120 C 
BRANCH  57  58
ATOM     58  C   UNL     1      25.383   7.812  10.887  0.00  0.00    +0.011 C 
BRANCH  58  59
ATOM     59  C   UNL     1      26.899   7.752  10.899  0.00  0.00    +0.001 C 
BRANCH  59  60
ATOM     60  C   UNL     1      27.384   7.024   9.658  0.00  0.00    +0.000 C 
BRANCH  60  61
ATOM     61  C   UNL     1      28.900   6.948   9.645  0.00  0.00    +0.000 C 
BRANCH  61  62
ATOM     62  C   UNL     1      29.376   6.225   8.394  0.00  0.00    +0.000 C 
BRANCH  62  63
ATOM     63  C   UNL     1      30.895   6.155   8.373  0.00  0.00    -0.000 C 
BRANCH  63  64
ATOM     64  C   UNL     1      31.376   5.431   7.126  0.00  0.00    -0.000 C 
BRANCH  64  65
ATOM     65  C   UNL     1      32.897   5.362   7.108  0.00  0.00    -0.000 C 
BRANCH  65  66
ATOM     66  C   UNL     1      33.386   4.645   5.857  0.00  0.00    -0.000 C 
BRANCH  66  67
ATOM     67  C   UNL     1      34.906   4.579   5.839  0.00  0.00    -0.000 C 
BRANCH  67  68
ATOM     68  C   UNL     1      35.400   3.858   4.586  0.00  0.00    -0.000 C 
BRANCH  68  69
ATOM     69  C   UNL     1      36.920   3.789   4.567  0.00  0.00    -0.000 C 
BRANCH  69  70
ATOM     70  C   UNL     1      37.414   3.068   3.315  0.00  0.00    -0.000 C 
BRANCH  70  71
ATOM     71  C   UNL     1      38.939   2.997   3.298  0.00  0.00    -0.000 C 
BRANCH  71  72
ATOM     72  C   UNL     1      39.446   2.280   2.050  0.00  0.00    -0.003 C 
ATOM     73  C   UNL     1      40.964   2.212   2.037  0.00  0.00    +0.004 C 
ENDBRANCH  71  72
ENDBRANCH  70  71
ENDBRANCH  69  70
ENDBRANCH  68  69
ENDBRANCH  67  68
ENDBRANCH  66  67
ENDBRANCH  65  66
ENDBRANCH  64  65
ENDBRANCH  63  64
ENDBRANCH  62  63
ENDBRANCH  61  62
ENDBRANCH  60  61
ENDBRANCH  59  60
ENDBRANCH  58  59
ENDBRANCH  57  58
ENDBRANCH  55  57
ENDBRANCH  54  55
ENDBRANCH   1  54
TORSDOF 51
