REMARK  Name = 
REMARK  4 active torsions:
REMARK  status: ('A' for Active; 'I' for Inactive)
REMARK    1  A    between atoms: C_1  and  C_2
REMARK    2  A    between atoms: C_6  and  C_7
REMARK    3  A    between atoms: C_7  and  C_8
REMARK    4  A    between atoms: C_10  and  O_11
REMARK                            x       y       z     vdW  Elec       q    Type
REMARK                         _______ _______ _______ _____ _____    ______ ____
ROOT
ATOM      1  C   UNL     1       1.006   0.193  -0.008  0.00  0.00    +0.047 C 
ATOM      2  C   UNL     1       2.505   0.137   0.050  0.00  0.00    -0.009 A 
ATOM      3  C   UNL     1       3.178  -1.092   0.100  0.00  0.00    +0.123 A 
ATOM      4  C   UNL     1       4.580  -1.162   0.063  0.00  0.00    -0.002 A 
ATOM      5  C   UNL     1       5.306   0.040   0.085  0.00  0.00    +0.007 A 
ATOM      6  C   UNL     1       4.650   1.270   0.091  0.00  0.00    +0.001 A 
ATOM      7  C   UNL     1       3.256   1.319   0.054  0.00  0.00    +0.007 A 
ENDROOT
BRANCH   3   8
ATOM      8  O   UNL     1       2.419  -2.227   0.194  0.00  0.00    -0.506 OA
ATOM      9  H   UNL     1       2.926  -2.867   0.724  0.00  0.00    +0.292 HD
ENDBRANCH   3   8
BRANCH   4  10
ATOM     10  C   UNL     1       5.326  -2.471  -0.056  0.00  0.00    +0.065 C 
BRANCH  10  11
ATOM     11  C   UNL     1       5.771  -3.127   1.221  0.00  0.00    -0.030 C 
ATOM     12  C   UNL     1       5.567  -2.712   2.478  0.00  0.00    +0.004 C 
ENDBRANCH  10  11
ENDBRANCH   4  10
TORSDOF 3
