REMARK  Name = 
REMARK  8 active torsions:
REMARK  status: ('A' for Active; 'I' for Inactive)
REMARK    1  A    between atoms: C_1  and  AS_2
REMARK    2  A    between atoms: AS_2  and  C_3
REMARK    3  A    between atoms: AS_2  and  S_5
REMARK    4  A    between atoms: S_5  and  C_6
REMARK    5  A    between atoms: C_6  and  C_7
REMARK    6  A    between atoms: C_7  and  N_9
REMARK    7  A    between atoms: C_7  and  C_10
REMARK    8  A    between atoms: C_10  and  O_11
REMARK                            x       y       z     vdW  Elec       q    Type
REMARK                         _______ _______ _______ _____ _____    ______ ____
ROOT
ATOM      1  C   UNK     1       6.067  -1.634  -3.176  0.00  0.00    +0.000 C 
ENDROOT
BRANCH   1   2
ATOM      2  N   UNK     1       5.641  -0.921  -4.383  0.00  0.00    +0.000 NA
ATOM      3  H   UNK     1       6.092  -1.358  -5.219  0.00  0.00    +0.000 HD
ATOM      4  H   UNK     1       4.608  -1.019  -4.513  0.00  0.00    +0.000 HD
ENDBRANCH   1   2
BRANCH   1   5
ATOM      5  C   UNK     1       7.572  -1.562  -3.063  0.00  0.00    +0.000 C 
ATOM      6  O   UNK     1       8.228  -2.594  -3.061  0.00  0.00    +0.000 OA
BRANCH   5   7
ATOM      7  O   UNK     1       8.215  -0.378  -2.982  0.00  0.00    +0.000 OA
ATOM      8  H   UNK     1       7.740   0.464  -3.004  0.00  0.00    +0.000 HD
ENDBRANCH   5   7
ENDBRANCH   1   5
BRANCH   1   9
ATOM      9  C   UNK     1       5.405  -1.041  -1.917  0.00  0.00    +0.000 C 
BRANCH   9  10
ATOM     10  S   UNK     1       3.597  -1.294  -1.967  0.00  0.00    +0.000 S 
BRANCH  10  12
ATOM     11  C   UNK     1       3.740   1.710  -0.105  0.00  0.00    +0.000 C 
ATOM     12 AS   UNK     1       3.178  -0.172  -0.039  0.00  0.00    +0.000 As
ATOM     13  O   UNK     1       1.536  -0.085  -0.027  0.00  0.00    +0.000 OA
ATOM     14  C   UNK     1       3.612  -1.187   1.589  0.00  0.00    +0.000 C 
ENDBRANCH  10  12
ENDBRANCH   9  10
ENDBRANCH   1   9
TORSDOF 6
