REMARK  Name = 
REMARK  2 active torsions:
REMARK  status: ('A' for Active; 'I' for Inactive)
REMARK    1  A    between atoms: O_1  and  C_2
REMARK    2  A    between atoms: C_2  and  CA_4
REMARK                            x       y       z     vdW  Elec       q    Type
REMARK                         _______ _______ _______ _____ _____    ______ ____
ROOT
ATOM      1  CA  UNL     1       3.080  -0.994   0.904  0.00  0.00    +0.182 C 
ATOM      2  N   UNL     1       2.683  -2.372   0.684  0.00  0.00    -0.302 N 
ATOM      3  H   UNL     1       2.888  -2.893  -0.165  0.00  0.00    +0.150 HD
ATOM      4  C   UNL     1       2.741  -3.089   1.865  0.00  0.00    +0.214 C 
ATOM      5  O   UNL     1       2.715  -4.303   1.933  0.00  0.00    -0.276 OA
ATOM      6  C   UNL     1       2.920  -2.124   3.009  0.00  0.00    +0.098 C 
ATOM      7  C   UNL     1       2.685  -0.767   2.354  0.00  0.00    +0.043 C 
ENDROOT
BRANCH   1   8
ATOM      8  C   UNL     1       2.361  -0.023  -0.026  0.00  0.00    +0.325 C 
ATOM      9  OXT UNL     1       2.675   1.149  -0.169  0.00  0.00    -0.249 OA
BRANCH   8  10
ATOM     10  O   UNL     1       1.275  -0.570  -0.624  0.00  0.00    -0.479 OA
ATOM     11  H   UNL     1       1.146  -1.492  -0.311  0.00  0.00    +0.295 HD
ENDBRANCH   8  10
ENDBRANCH   1   8
TORSDOF 2
