REMARK  Name = 
REMARK  7 active torsions:
REMARK  status: ('A' for Active; 'I' for Inactive)
REMARK    1  A    between atoms: C_2  and  C_3
REMARK    2  A    between atoms: C_3  and  O_4
REMARK    3  A    between atoms: C_6  and  C_8
REMARK    4  A    between atoms: C_12  and  C_13
REMARK    5  A    between atoms: C_18  and  O_20
REMARK    6  A    between atoms: C_21  and  O_23
REMARK    7  A    between atoms: C_24  and  O_26
REMARK                            x       y       z     vdW  Elec       q    Type
REMARK                         _______ _______ _______ _____ _____    ______ ____
ROOT
ATOM      1  C   UNL     1       2.200  -0.020   0.108  0.00  0.00    +0.175 C 
ATOM      2  C   UNL     1       2.890   1.013  -0.801  0.00  0.00    +0.176 C 
ATOM      3  C   UNL     1       2.481   0.873  -2.273  0.00  0.00    +0.177 C 
ATOM      4  C   UNL     1       2.614  -0.582  -2.741  0.00  0.00    +0.181 C 
ATOM      5  C   UNL     1       1.945  -1.573  -1.783  0.00  0.00    +0.205 C 
ATOM      6  O   UNL     1       2.249  -1.363  -0.399  0.00  0.00    -0.359 OA
ENDROOT
BRANCH   5   7
ATOM      7  C   UNL     1       0.473  -1.837  -2.011  0.00  0.00    +0.111 A 
ATOM      8  S   UNL     1      -0.103  -3.399  -1.565  0.00  0.00    -0.069 S 
ATOM      9  C   UNL     1      -1.596  -3.082  -2.333  0.00  0.00    +0.039 A 
ATOM     10  C   UNL     1      -1.630  -1.751  -2.754  0.00  0.00    +0.079 A 
ATOM     11  C   UNL     1      -2.855  -1.258  -3.275  0.00  0.00    +0.032 A 
ATOM     12  C   UNL     1      -3.975  -2.113  -3.374  0.00  0.00    -0.048 A 
ATOM     13  C   UNL     1      -3.850  -3.463  -3.050  0.00  0.00    +0.004 A 
ATOM     14  C   UNL     1      -5.337  -1.603  -3.761  0.00  0.00    +0.044 C 
ATOM     15  C   UNL     1      -2.670  -3.962  -2.510  0.00  0.00    +0.017 A 
ATOM     16  N   UNL     1      -0.415  -1.067  -2.622  0.00  0.00    -0.241 NA
ENDBRANCH   5   7
BRANCH   2  17
ATOM     17  O   UNL     1       4.315   0.865  -0.666  0.00  0.00    -0.386 OA
ATOM     18  H   UNL     1       4.575   0.080  -1.191  0.00  0.00    +0.210 HD
ENDBRANCH   2  17
BRANCH   3  19
ATOM     19  O   UNL     1       1.170   1.400  -2.451  0.00  0.00    -0.386 OA
ATOM     20  H   UNL     1       0.729   0.936  -3.188  0.00  0.00    +0.210 HD
ENDBRANCH   3  19
BRANCH   4  21
ATOM     21  O   UNL     1       4.029  -0.889  -2.812  0.00  0.00    -0.386 OA
ATOM     22  H   UNL     1       4.122  -1.794  -3.167  0.00  0.00    +0.210 HD
ENDBRANCH   4  21
BRANCH   1  23
ATOM     23  C   UNL     1       0.779   0.376   0.537  0.00  0.00    +0.190 C 
BRANCH  23  24
ATOM     24  O   UNL     1       0.312  -0.479   1.583  0.00  0.00    -0.392 OA
ATOM     25  H   UNL     1       1.030  -0.595   2.224  0.00  0.00    +0.210 HD
ENDBRANCH  23  24
ENDBRANCH   1  23
TORSDOF 6
