REMARK  Name = 
REMARK  5 active torsions:
REMARK  status: ('A' for Active; 'I' for Inactive)
REMARK    1  A    between atoms: O_1  and  C_2
REMARK    2  A    between atoms: C_2  and  C_3
REMARK    3  A    between atoms: C_5  and  O_7
REMARK    4  A    between atoms: C_8  and  O_10
REMARK    5  A    between atoms: C_14  and  N_18
REMARK                            x       y       z     vdW  Elec       q    Type
REMARK                         _______ _______ _______ _____ _____    ______ ____
ROOT
ATOM      1  C   UNL     1       2.942  -0.168  -1.574  0.00  0.00    +0.088 C 
ATOM      2  C   UNL     1       4.417  -0.610  -1.578  0.00  0.00    +0.211 C 
ATOM      3  C   UNL     1       4.413  -2.141  -1.655  0.00  0.00    +0.182 C 
ATOM      4  N   UNL     1       5.086  -2.474  -2.923  0.00  0.00    -0.223 NA
ATOM      5  C   UNL     1       5.435  -1.331  -3.402  0.00  0.00    +0.314 C 
ATOM      6  C   UNL     1       2.932  -2.546  -1.644  0.00  0.00    +0.171 C 
ATOM      7  O   UNL     1       5.114  -0.196  -2.745  0.00  0.00    -0.457 OA
ATOM      8  C   UNL     1       2.217  -1.331  -2.242  0.00  0.00    +0.154 C 
ENDROOT
BRANCH   5   9
ATOM      9  N   UNL     1       6.107  -1.122  -4.560  0.00  0.00    -0.211 NA
ATOM     10  C   UNL     1       6.418  -2.162  -5.253  0.00  0.00    +0.146 C 
ENDBRANCH   5   9
BRANCH   6  11
ATOM     11  O   UNL     1       2.644  -3.743  -2.350  0.00  0.00    -0.387 OA
ATOM     12  H   UNL     1       1.728  -3.671  -2.675  0.00  0.00    +0.210 HD
ENDBRANCH   6  11
BRANCH   8  13
ATOM     13  O   UNL     1       0.826  -1.352  -1.945  0.00  0.00    -0.389 OA
ATOM     14  H   UNL     1       0.709  -1.372  -0.977  0.00  0.00    +0.210 HD
ENDBRANCH   8  13
BRANCH   1  15
ATOM     15  C   UNL     1       2.657   1.165  -2.246  0.00  0.00    +0.165 C 
BRANCH  15  16
ATOM     16  O   UNL     1       3.280   2.200  -1.497  0.00  0.00    -0.395 OA
ATOM     17  H   UNL     1       3.108   3.033  -1.971  0.00  0.00    +0.209 HD
ENDBRANCH  15  16
ENDBRANCH   1  15
TORSDOF 5
