REMARK  Name = 
REMARK  12 active torsions:
REMARK  status: ('A' for Active; 'I' for Inactive)
REMARK    1  A    between atoms: N_1  and  C_2
REMARK    2  A    between atoms: C_2  and  C_4
REMARK    3  A    between atoms: C_2  and  C_12
REMARK    4  A    between atoms: C_4  and  C_5
REMARK    5  A    between atoms: C_8  and  O_9
REMARK    6  A    between atoms: N_14  and  S_15
REMARK    7  A    between atoms: S_15  and  O_18
REMARK    8  A    between atoms: O_18  and  C_19
REMARK    9  A    between atoms: C_19  and  C_20
REMARK   10  A    between atoms: C_23  and  N_31
REMARK   11  A    between atoms: C_25  and  O_27
REMARK   12  A    between atoms: C_28  and  O_30
REMARK                            x       y       z     vdW  Elec       q    Type
REMARK                         _______ _______ _______ _____ _____    ______ ____
ROOT
ATOM      1  C   UNL     1       9.095  -4.507  -1.822  0.00  0.00    +0.229 C 
ENDROOT
BRANCH   1   2
ATOM      2  C   UNL     1       8.760  -4.802  -0.353  0.00  0.00    +0.180 C 
ATOM      3  C   UNL     1       7.519  -5.661  -0.155  0.00  0.00    +0.178 C 
ATOM      4  C   UNL     1       8.037  -7.073   0.112  0.00  0.00    +0.195 C 
ATOM      5  C   UNL     1       9.566  -6.924   0.150  0.00  0.00    +0.253 C 
ATOM      6  O   UNL     1       9.830  -5.509   0.307  0.00  0.00    -0.346 OA
BRANCH   5   7
ATOM      7  N   UNL     1      10.247  -7.656   1.207  0.00  0.00    -0.286 N 
ATOM      8  C   UNL     1       9.973  -8.933   1.628  0.00  0.00    +0.167 A 
ATOM      9  N   UNL     1       8.927  -9.709   1.292  0.00  0.00    -0.216 NA
ATOM     10  C   UNL     1       9.003 -10.909   1.910  0.00  0.00    +0.225 A 
ATOM     11  N   UNL     1       9.969 -11.374   2.730  0.00  0.00    -0.219 NA
ATOM     12  C   UNL     1      11.021 -10.570   3.003  0.00  0.00    +0.147 A 
ATOM     13  N   UNL     1      12.040 -11.071   3.799  0.00  0.00    -0.341 N 
ATOM     14  H   UNL     1      12.630 -10.364   4.221  0.00  0.00    +0.144 HD
ATOM     15  H   UNL     1      11.758 -11.865   4.357  0.00  0.00    +0.144 HD
ATOM     16  C   UNL     1      11.027  -9.270   2.465  0.00  0.00    +0.147 A 
ATOM     17  N   UNL     1      11.908  -8.217   2.593  0.00  0.00    -0.231 NA
ATOM     18  C   UNL     1      11.417  -7.274   1.816  0.00  0.00    +0.203 A 
ENDBRANCH   5   7
BRANCH   3  19
ATOM     19  O   UNL     1       6.813  -5.184   1.006  0.00  0.00    -0.386 OA
ATOM     20  H   UNL     1       7.432  -5.168   1.759  0.00  0.00    +0.210 HD
ENDBRANCH   3  19
BRANCH   4  21
ATOM     21  O   UNL     1       7.617  -7.963  -0.924  0.00  0.00    -0.385 OA
ATOM     22  H   UNL     1       7.871  -8.863  -0.636  0.00  0.00    +0.210 HD
ENDBRANCH   4  21
ENDBRANCH   1   2
BRANCH   1  23
ATOM     23  O   UNL     1       9.288  -5.688  -2.581  0.00  0.00    -0.220 OA
BRANCH  23  24
ATOM     24  S   UNL     1       9.896  -5.556  -4.084  0.00  0.00    +0.169 S 
ATOM     25  O   UNL     1      10.168  -6.881  -4.591  0.00  0.00    -0.126 OA
ATOM     26  O   UNL     1       9.054  -4.640  -4.822  0.00  0.00    -0.126 OA
BRANCH  24  28
ATOM     27  C   UNL     1      12.250  -5.055  -2.893  0.00  0.00    +0.251 C 
ATOM     28  N   UNL     1      11.348  -4.781  -3.926  0.00  0.00    -0.164 N 
ATOM     29  H   UNL     1      11.503  -3.996  -4.553  0.00  0.00    +0.179 HD
ATOM     30  O   UNL     1      11.976  -5.851  -2.008  0.00  0.00    -0.272 OA
BRANCH  27  31
ATOM     31  C   UNL     1      13.527  -4.192  -2.906  0.00  0.00    +0.144 C 
BRANCH  31  32
ATOM     32  N   UNL     1      13.131  -2.759  -2.827  0.00  0.00    -0.320 NA
ATOM     33  H   UNL     1      12.687  -2.590  -1.920  0.00  0.00    +0.119 HD
ATOM     34  H   UNL     1      13.974  -2.182  -2.816  0.00  0.00    +0.119 HD
ENDBRANCH  31  32
BRANCH  31  35
ATOM     35  C   UNL     1      14.478  -4.592  -1.755  0.00  0.00    +0.063 C 
BRANCH  35  36
ATOM     36  C   UNL     1      14.932  -6.035  -1.838  0.00  0.00    -0.045 A 
ATOM     37  C   UNL     1      14.581  -6.938  -0.821  0.00  0.00    +0.007 A 
ATOM     38  C   UNL     1      14.860  -8.299  -0.949  0.00  0.00    +0.045 A 
ATOM     39  C   UNL     1      15.498  -8.759  -2.091  0.00  0.00    +0.117 A 
ATOM     40  C   UNL     1      15.903  -7.878  -3.087  0.00  0.00    +0.045 A 
ATOM     41  C   UNL     1      15.626  -6.513  -2.957  0.00  0.00    +0.007 A 
BRANCH  39  42
ATOM     42  O   UNL     1      15.703 -10.103  -2.206  0.00  0.00    -0.507 OA
ATOM     43  H   UNL     1      15.968 -10.298  -3.120  0.00  0.00    +0.292 HD
ENDBRANCH  39  42
ENDBRANCH  35  36
ENDBRANCH  31  35
ENDBRANCH  27  31
ENDBRANCH  24  28
ENDBRANCH  23  24
ENDBRANCH   1  23
TORSDOF 12
