REMARK  Name = 
REMARK  13 active torsions:
REMARK  status: ('A' for Active; 'I' for Inactive)
REMARK    1  A    between atoms: C_1  and  C_2
REMARK    2  A    between atoms: N_4  and  C_5
REMARK    3  A    between atoms: C_5  and  C_7
REMARK    4  A    between atoms: C_5  and  B_15
REMARK    5  A    between atoms: C_7  and  C_8
REMARK    6  A    between atoms: B_15  and  O_16
REMARK    7  A    between atoms: B_15  and  O_17
REMARK    8  A    between atoms: B_15  and  O_18
REMARK    9  A    between atoms: O_18  and  C_19
REMARK   10  A    between atoms: C_19  and  C_20
REMARK   11  A    between atoms: C_20  and  N_22
REMARK   12  A    between atoms: C_20  and  C_23
REMARK   13  A    between atoms: C_23  and  O_24
REMARK                            x       y       z     vdW  Elec       q    Type
REMARK                         _______ _______ _______ _____ _____    ______ ____
ROOT
ATOM      1  B   UNK     1       8.437   4.096  -0.821  0.00  0.00    +0.000 B 
ENDROOT
BRANCH   1   2
ATOM      2  O   UNK     1       8.271   3.655  -2.227  0.00  0.00    +0.000 OA
ATOM      3  H   UNK     1       7.671   2.867  -2.214  0.00  0.00    +0.000 HD
ENDBRANCH   1   2
BRANCH   1   4
ATOM      4  O   UNK     1       8.880   2.963   0.033  0.00  0.00    +0.000 OA
ATOM      5  H   UNK     1       8.242   2.217  -0.096  0.00  0.00    +0.000 HD
ENDBRANCH   1   4
BRANCH   1   6
ATOM      6  C   UNK     1       7.036   4.703  -0.246  0.00  0.00    +0.000 C 
BRANCH   6   9
ATOM      7  C   UNK     1       4.673   3.586  -2.075  0.00  0.00    +0.000 C 
ATOM      8  C   UNK     1       5.063   3.112  -0.700  0.00  0.00    +0.000 C 
ATOM      9  N   UNK     1       6.068   3.645   0.069  0.00  0.00    +0.000 N 
ATOM     10  H   UNK     1       6.197   3.213   0.998  0.00  0.00    +0.000 HD
ATOM     11  O   UNK     1       4.425   2.177  -0.240  0.00  0.00    +0.000 OA
ENDBRANCH   6   9
BRANCH   6  12
ATOM     12  C   UNK     1       6.495   5.901  -1.063  0.00  0.00    +0.000 C 
BRANCH  12  13
ATOM     13  C   UNK     1       5.278   6.597  -0.483  0.00  0.00    +0.000 A 
ATOM     14  C   UNK     1       4.454   7.341  -1.346  0.00  0.00    +0.000 A 
ATOM     15  C   UNK     1       3.326   8.003  -0.858  0.00  0.00    +0.000 A 
ATOM     16  C   UNK     1       3.010   7.943   0.502  0.00  0.00    +0.000 A 
ATOM     17 CL   UNK     1       1.599   8.781   1.117  0.00  0.00    +0.000 Cl
ATOM     18  C   UNK     1       3.827   7.216   1.372  0.00  0.00    +0.000 A 
ATOM     19  C   UNK     1       4.950   6.545   0.887  0.00  0.00    +0.000 A 
ENDBRANCH  12  13
ENDBRANCH   6  12
ENDBRANCH   1   6
BRANCH   1  20
ATOM     20  O   UNK     1       9.458   5.188  -0.749  0.00  0.00    +0.000 OA
BRANCH  20  21
ATOM     21  C   UNK     1      10.723   4.770  -1.223  0.00  0.00    +0.000 C 
BRANCH  21  22
ATOM     22  C   UNK     1      11.741   5.916  -1.087  0.00  0.00    +0.000 C 
BRANCH  22  23
ATOM     23  N   UNK     1      11.896   6.305   0.316  0.00  0.00    +0.000 NA
ATOM     24  H   UNK     1      12.238   5.485   0.867  0.00  0.00    +0.000 HD
ATOM     25  H   UNK     1      12.628   7.049   0.385  0.00  0.00    +0.000 HD
ENDBRANCH  22  23
BRANCH  22  26
ATOM     26  C   UNK     1      11.324   7.117  -1.908  0.00  0.00    +0.000 C 
ATOM     27  O   UNK     1      10.283   7.702  -1.652  0.00  0.00    +0.000 OA
BRANCH  26  28
ATOM     28  O   UNK     1      12.096   7.564  -2.922  0.00  0.00    +0.000 OA
ATOM     29  H   UNK     1      12.929   7.134  -3.159  0.00  0.00    +0.000 HD
ENDBRANCH  26  28
ENDBRANCH  22  26
ENDBRANCH  21  22
ENDBRANCH  20  21
ENDBRANCH   1  20
TORSDOF 12
