REMARK  Name = 
REMARK  3 active torsions:
REMARK  status: ('A' for Active; 'I' for Inactive)
REMARK    1  A    between atoms: N_1  and  C_2
REMARK    2  A    between atoms: C_2  and  N_4
REMARK    3  A    between atoms: N_4  and  C_5
REMARK                            x       y       z     vdW  Elec       q    Type
REMARK                         _______ _______ _______ _____ _____    ______ ____
ROOT
ATOM      1  N   UNL     1       3.323   0.817   0.652  0.00  0.00    -0.297 N 
ATOM      2  H   UNL     1       2.859   1.516   1.214  0.00  0.00    +0.154 HD
ENDROOT
BRANCH   1   3
ATOM      3  C   UNL     1       4.735   0.855   0.718  0.00  0.00    +0.033 A 
ATOM      4  C   UNL     1       5.585  -0.117   0.193  0.00  0.00    +0.023 A 
ATOM      5  C   UNL     1       6.973   0.039   0.267  0.00  0.00    +0.002 A 
ATOM      6  C   UNL     1       7.528   1.155   0.882  0.00  0.00    +0.000 A 
ATOM      7  C   UNL     1       6.694   2.107   1.450  0.00  0.00    +0.002 A 
ATOM      8  C   UNL     1       5.305   1.952   1.382  0.00  0.00    +0.023 A 
ENDBRANCH   1   3
BRANCH   1   9
ATOM      9  C   UNL     1       2.473   0.167  -0.213  0.00  0.00    +0.132 C 
ATOM     10  S   UNL     1       2.787  -0.735  -1.575  0.00  0.00    -0.019 S 
BRANCH   9  11
ATOM     11  N   UNL     1       1.160   0.393   0.102  0.00  0.00    -0.340 N 
ATOM     12  H   UNL     1       0.868   0.714   1.013  0.00  0.00    +0.144 HD
ATOM     13  H   UNL     1       0.469  -0.095  -0.460  0.00  0.00    +0.144 HD
ENDBRANCH   9  11
ENDBRANCH   1   9
TORSDOF 3
