REMARK  Name = 
REMARK  12 active torsions:
REMARK  status: ('A' for Active; 'I' for Inactive)
REMARK    1  A    between atoms: C_1  and  C_2
REMARK    2  A    between atoms: C_5  and  N_8
REMARK    3  A    between atoms: C_10  and  C_36
REMARK    4  A    between atoms: C_12  and  N_13
REMARK    5  A    between atoms: N_16  and  C_17
REMARK    6  A    between atoms: C_20  and  O_21
REMARK    7  A    between atoms: O_21  and  C_22
REMARK    8  A    between atoms: C_22  and  C_23
REMARK    9  A    between atoms: C_23  and  N_24
REMARK   10  A    between atoms: C_36  and  C_37
REMARK   11  A    between atoms: C_36  and  C_38
REMARK   12  A    between atoms: C_36  and  C_39
REMARK                            x       y       z     vdW  Elec       q    Type
REMARK                         _______ _______ _______ _____ _____    ______ ____
ROOT
ATOM      1  N   UNL     1       6.753  -2.677  -1.132  0.00  0.00    -0.254 N 
ATOM      2  H   UNL     1       6.039  -2.987  -0.493  0.00  0.00    +0.158 HD
ATOM      3  C   UNL     1       7.824  -3.552  -1.486  0.00  0.00    +0.309 C 
ATOM      4  N   UNL     1       7.692  -4.789  -0.897  0.00  0.00    -0.269 N 
ATOM      5  H   UNL     1       6.821  -5.024  -0.462  0.00  0.00    +0.156 HD
ATOM      6  O   UNL     1       8.719  -3.157  -2.212  0.00  0.00    -0.252 OA
ENDROOT
BRANCH   4   7
ATOM      7  C   UNL     1       8.688  -5.814  -0.934  0.00  0.00    +0.043 A 
ATOM      8  C   UNL     1       8.403  -7.153  -0.519  0.00  0.00    +0.007 A 
ATOM      9  C   UNL     1       7.112  -7.594  -0.133  0.00  0.00    +0.010 A 
ATOM     10  C   UNL     1       6.891  -8.880   0.369  0.00  0.00    +0.001 A 
ATOM     11  C   UNL     1       7.947  -9.769   0.489  0.00  0.00    +0.001 A 
ATOM     12  C   UNL     1       9.213  -9.398   0.041  0.00  0.00    +0.012 A 
ATOM     13  C   UNL     1       9.464  -8.118  -0.494  0.00  0.00    +0.026 A 
ATOM     14  C   UNL     1      10.748  -7.778  -0.983  0.00  0.00    +0.128 A 
ATOM     15  C   UNL     1      10.987  -6.469  -1.394  0.00  0.00    +0.048 A 
ATOM     16  C   UNL     1       9.990  -5.503  -1.332  0.00  0.00    +0.027 A 
BRANCH  14  17
ATOM     17  O   UNL     1      11.718  -8.769  -1.096  0.00  0.00    -0.490 OA
BRANCH  17  18
ATOM     18  C   UNL     1      13.041  -8.282  -0.832  0.00  0.00    +0.244 C 
BRANCH  18  19
ATOM     19  C   UNL     1      14.174  -9.332  -0.930  0.00  0.00    +0.125 C 
BRANCH  19  20
ATOM     20  N   UNL     1      15.486  -8.699  -0.636  0.00  0.00    -0.295 NA
ATOM     21  C   UNL     1      16.635  -9.630  -0.700  0.00  0.00    +0.112 C 
ATOM     22  C   UNL     1      16.833 -10.542   0.536  0.00  0.00    +0.175 C 
ATOM     23  O   UNL     1      16.670  -9.871   1.795  0.00  0.00    -0.377 OA
ATOM     24  C   UNL     1      15.478  -9.083   1.821  0.00  0.00    +0.175 C 
ATOM     25  C   UNL     1      15.541  -8.050   0.694  0.00  0.00    +0.112 C 
ENDBRANCH  19  20
ENDBRANCH  18  19
ENDBRANCH  17  18
ENDBRANCH  14  17
ENDBRANCH   4   7
BRANCH   1  27
ATOM     26  N   UNL     1       5.837  -0.324  -1.185  0.00  0.00    -0.218 N 
ATOM     27  C   UNL     1       6.666  -1.361  -1.624  0.00  0.00    +0.130 A 
ATOM     28  C   UNL     1       7.324  -0.853  -2.722  0.00  0.00    +0.069 A 
ATOM     29  C   UNL     1       6.802   0.439  -2.948  0.00  0.00    +0.071 A 
ATOM     30  N   UNL     1       5.869   0.738  -2.036  0.00  0.00    -0.169 NA
BRANCH  26  35
ATOM     31  C   UNL     1       2.020  -0.743   3.052  0.00  0.00    +0.044 C 
ATOM     32  C   UNL     1       3.082  -0.523   2.013  0.00  0.00    -0.050 A 
ATOM     33  C   UNL     1       4.276  -1.249   2.074  0.00  0.00    +0.005 A 
ATOM     34  C   UNL     1       5.226  -1.139   1.055  0.00  0.00    +0.028 A 
ATOM     35  C   UNL     1       4.975  -0.319  -0.052  0.00  0.00    +0.067 A 
ATOM     36  C   UNL     1       3.832   0.491  -0.064  0.00  0.00    +0.028 A 
ATOM     37  C   UNL     1       2.883   0.373   0.957  0.00  0.00    +0.005 A 
ENDBRANCH  26  35
BRANCH  29  38
ATOM     38  C   UNL     1       7.195   1.403  -4.064  0.00  0.00    +0.006 C 
ATOM     39  C   UNL     1       6.076   2.419  -4.368  0.00  0.00    +0.017 C 
ATOM     40  C   UNL     1       7.491   0.636  -5.374  0.00  0.00    +0.017 C 
ATOM     41  C   UNL     1       8.467   2.175  -3.662  0.00  0.00    +0.017 C 
ENDBRANCH  29  38
ENDBRANCH   1  27
TORSDOF 8
