REMARK  Name = 
REMARK  6 active torsions:
REMARK  status: ('A' for Active; 'I' for Inactive)
REMARK    1  A    between atoms: C_1  and  C_2
REMARK    2  A    between atoms: C_2  and  C_3
REMARK    3  A    between atoms: C_6  and  N_7
REMARK    4  A    between atoms: C_8  and  P_10
REMARK    5  A    between atoms: P_10  and  O_11
REMARK    6  A    between atoms: P_10  and  O_12
REMARK                            x       y       z     vdW  Elec       q    Type
REMARK                         _______ _______ _______ _____ _____    ______ ____
ROOT
ATOM      1  N   UNL     1       3.469  -4.052  -3.758  0.00  0.00    -0.275 N 
ATOM      2  H   UNL     1       3.224  -5.006  -3.502  0.00  0.00    +0.155 HD
ATOM      3  C   UNL     1       3.946  -3.897  -5.045  0.00  0.00    +0.329 C 
ATOM      4  O   UNL     1       4.458  -2.866  -5.481  0.00  0.00    -0.262 OA
ENDROOT
BRANCH   1   8
ATOM      5  C   UNL     1       2.950  -0.970  -0.900  0.00  0.00    -0.048 A 
ATOM      6  C   UNL     1       2.881  -2.319  -0.533  0.00  0.00    +0.005 A 
ATOM      7  C   UNL     1       3.067  -3.332  -1.487  0.00  0.00    +0.023 A 
ATOM      8  C   UNL     1       3.341  -3.008  -2.816  0.00  0.00    +0.034 A 
ATOM      9  C   UNL     1       3.445  -1.654  -3.164  0.00  0.00    +0.023 A 
ATOM     10  C   UNL     1       3.252  -0.645  -2.222  0.00  0.00    +0.005 A 
BRANCH   5  12
ATOM     11  C   UNL     1       1.091   0.363   0.063  0.00  0.00    +0.009 C 
ATOM     12  C   UNL     1       2.596   0.122   0.074  0.00  0.00    +0.032 C 
ENDBRANCH   5  12
ENDBRANCH   1   8
BRANCH   3  13
ATOM     13  P   UNL     1       4.030  -5.240  -6.286  0.00  0.00    +0.412 P 
ATOM     14  O   UNL     1       4.101  -6.375  -7.336  0.00  0.00    -0.249 OA
BRANCH  13  15
ATOM     15  O   UNL     1       3.032  -6.168  -5.332  0.00  0.00    -0.318 OA
ATOM     16  H   UNL     1       3.098  -7.060  -5.739  0.00  0.00    +0.220 HD
ENDBRANCH  13  15
BRANCH  13  17
ATOM     17  O   UNL     1       5.434  -5.753  -5.551  0.00  0.00    -0.318 OA
ATOM     18  H   UNL     1       6.090  -5.034  -5.460  0.00  0.00    +0.220 HD
ENDBRANCH  13  17
ENDBRANCH   3  13
TORSDOF 5
