REMARK  Name = 
REMARK  33 active torsions:
REMARK  status: ('A' for Active; 'I' for Inactive)
REMARK    1  A    between atoms: C_1  and  C_2
REMARK    2  A    between atoms: C_2  and  C_3
REMARK    3  A    between atoms: C_2  and  C_4
REMARK    4  A    between atoms: C_2  and  C_40
REMARK    5  A    between atoms: C_4  and  O_5
REMARK    6  A    between atoms: O_5  and  P_6
REMARK    7  A    between atoms: P_6  and  O_7
REMARK    8  A    between atoms: P_6  and  O_9
REMARK    9  A    between atoms: O_9  and  P_10
REMARK   10  A    between atoms: P_10  and  O_11
REMARK   11  A    between atoms: P_10  and  O_13
REMARK   12  A    between atoms: O_13  and  C_14
REMARK   13  A    between atoms: C_14  and  C_15
REMARK   14  A    between atoms: C_18  and  N_30
REMARK   15  A    between atoms: C_20  and  O_22
REMARK   16  A    between atoms: C_23  and  O_25
REMARK   17  A    between atoms: O_25  and  P_26
REMARK   18  A    between atoms: P_26  and  O_27
REMARK   19  A    between atoms: P_26  and  O_28
REMARK   20  A    between atoms: C_34  and  N_35
REMARK   21  A    between atoms: C_40  and  O_42
REMARK   22  A    between atoms: C_40  and  C_43
REMARK   23  A    between atoms: N_45  and  C_46
REMARK   24  A    between atoms: C_46  and  C_47
REMARK   25  A    between atoms: C_47  and  C_48
REMARK   26  A    between atoms: N_50  and  C_51
REMARK   27  A    between atoms: C_51  and  C_52
REMARK   28  A    between atoms: C_52  and  S_53
REMARK   29  A    between atoms: S_53  and  C_54
REMARK   30  A    between atoms: C_54  and  C_55
REMARK   31  A    between atoms: N_57  and  C_58
REMARK   32  A    between atoms: C_58  and  C_59
REMARK   33  A    between atoms: C_59  and  C_60
REMARK                            x       y       z     vdW  Elec       q    Type
REMARK                         _______ _______ _______ _____ _____    ______ ____
ROOT
ATOM      1  C   UNL     1      14.619   2.165 -10.076  0.00  0.00    +0.181 C 
ENDROOT
BRANCH   1   3
ATOM      2  C   UNL     1      16.580   2.369 -11.562  0.00  0.00    +0.016 C 
ATOM      3  C   UNL     1      16.147   2.407 -10.074  0.00  0.00    +0.024 C 
ATOM      4  C   UNL     1      16.474   3.819  -9.555  0.00  0.00    +0.016 C 
BRANCH   3   5
ATOM      5  C   UNL     1      16.872   1.298  -9.245  0.00  0.00    +0.208 C 
BRANCH   5   6
ATOM      6  C   UNL     1      16.574   1.288  -7.719  0.00  0.00    +0.242 C 
ATOM      7  N   UNL     1      16.971   0.126  -7.081  0.00  0.00    -0.313 N 
ATOM      8  H   UNL     1      17.604  -0.502  -7.561  0.00  0.00    +0.149 HD
ATOM      9  O   UNL     1      16.033   2.196  -7.098  0.00  0.00    -0.273 OA
BRANCH   7  10
ATOM     10  C   UNL     1      16.459  -0.182  -5.759  0.00  0.00    +0.113 C 
BRANCH  10  11
ATOM     11  C   UNL     1      17.504  -0.774  -4.833  0.00  0.00    +0.114 C 
BRANCH  11  12
ATOM     12  C   UNL     1      16.887  -0.943  -3.462  0.00  0.00    +0.215 C 
ATOM     13  N   UNL     1      17.763  -0.728  -2.424  0.00  0.00    -0.314 N 
ATOM     14  H   UNL     1      18.754  -0.672  -2.618  0.00  0.00    +0.149 HD
ATOM     15  O   UNL     1      15.715  -1.265  -3.296  0.00  0.00    -0.276 OA
BRANCH  13  16
ATOM     16  C   UNL     1      17.342  -0.871  -1.041  0.00  0.00    +0.115 C 
BRANCH  16  17
ATOM     17  C   UNL     1      17.451  -2.309  -0.531  0.00  0.00    +0.088 C 
BRANCH  17  18
ATOM     18  S   UNL     1      19.152  -3.012  -0.595  0.00  0.00    -0.150 S 
BRANCH  18  19
ATOM     19  C   UNL     1      20.057  -1.836   0.461  0.00  0.00    +0.164 C 
BRANCH  19  20
ATOM     20  C   UNL     1      19.488  -1.788   1.866  0.00  0.00    +0.223 C 
ATOM     21  N   UNL     1      20.105  -2.622   2.776  0.00  0.00    -0.314 N 
ATOM     22  H   UNL     1      20.741  -3.335   2.438  0.00  0.00    +0.149 HD
ATOM     23  O   UNL     1      18.543  -1.058   2.160  0.00  0.00    -0.275 OA
BRANCH  21  24
ATOM     24  C   UNL     1      19.563  -2.752   4.121  0.00  0.00    +0.109 C 
BRANCH  24  25
ATOM     25  C   UNL     1      20.293  -3.776   4.984  0.00  0.00    +0.056 C 
BRANCH  25  26
ATOM     26  C   UNL     1      20.145  -5.196   4.519  0.00  0.00    -0.021 A 
ATOM     27  C   UNL     1      21.207  -6.126   4.235  0.00  0.00    +0.004 A 
ATOM     28  C   UNL     1      22.614  -6.054   4.278  0.00  0.00    +0.025 A 
ATOM     29  C   UNL     1      23.363  -7.189   3.965  0.00  0.00    +0.019 A 
ATOM     30  C   UNL     1      22.748  -8.388   3.623  0.00  0.00    +0.017 A 
ATOM     31  C   UNL     1      21.348  -8.495   3.589  0.00  0.00    +0.027 A 
ATOM     32 BR   UNL     1      25.253  -7.090   4.001  0.00  0.00    -0.050 Br
ATOM     33  C   UNL     1      20.605  -7.344   3.897  0.00  0.00    +0.047 A 
ATOM     34  N   UNL     1      19.247  -7.160   3.959  0.00  0.00    -0.360 N 
ATOM     35  H   UNL     1      18.567  -7.878   3.766  0.00  0.00    +0.165 HD
ATOM     36  C   UNL     1      18.956  -5.877   4.336  0.00  0.00    +0.087 A 
ENDBRANCH  25  26
ENDBRANCH  24  25
ENDBRANCH  21  24
ENDBRANCH  19  20
ENDBRANCH  18  19
ENDBRANCH  17  18
ENDBRANCH  16  17
ENDBRANCH  13  16
ENDBRANCH  11  12
ENDBRANCH  10  11
ENDBRANCH   7  10
ENDBRANCH   5   6
BRANCH   5  37
ATOM     37  O   UNL     1      18.297   1.340  -9.384  0.00  0.00    -0.382 OA
ATOM     38  H   UNL     1      18.520   1.346 -10.328  0.00  0.00    +0.210 HD
ENDBRANCH   5  37
ENDBRANCH   3   5
ENDBRANCH   1   3
BRANCH   1  39
ATOM     39  O   UNL     1      14.069   2.106  -8.771  0.00  0.00    -0.286 OA
BRANCH  39  40
ATOM     40  P   UNL     1      12.362   1.824  -8.765  0.00  0.00    +0.483 P 
ATOM     41  O   UNL     1      12.122   3.271  -9.193  0.00  0.00    -0.227 OA
BRANCH  40  42
ATOM     42  O   UNL     1      12.491   1.849  -7.140  0.00  0.00    -0.302 OA
ATOM     43  H   UNL     1      12.757   2.764  -6.888  0.00  0.00    +0.222 HD
ENDBRANCH  40  42
BRANCH  40  44
ATOM     44  O   UNL     1      10.655   1.543  -8.760  0.00  0.00    -0.186 OA
BRANCH  44  45
ATOM     45  P   UNL     1      10.037   1.779  -7.162  0.00  0.00    +0.483 P 
ATOM     46  O   UNL     1       8.789   0.986  -7.577  0.00  0.00    -0.227 OA
BRANCH  45  47
ATOM     47  O   UNL     1       9.667   3.331  -7.521  0.00  0.00    -0.302 OA
ATOM     48  H   UNL     1       8.848   3.340  -8.046  0.00  0.00    +0.222 HD
ENDBRANCH  45  47
BRANCH  45  49
ATOM     49  O   UNL     1       9.419   2.015  -5.563  0.00  0.00    -0.284 OA
BRANCH  49  50
ATOM     50  C   UNL     1       8.020   1.979  -5.302  0.00  0.00    +0.206 C 
BRANCH  50  51
ATOM     51  C   UNL     1       7.798   2.363  -3.822  0.00  0.00    +0.179 C 
ATOM     52  C   UNL     1       8.467   3.702  -3.604  0.00  0.00    +0.194 C 
ATOM     53  C   UNL     1       7.319   4.712  -3.506  0.00  0.00    +0.196 C 
ATOM     54  C   UNL     1       6.070   3.917  -3.884  0.00  0.00    +0.253 C 
ATOM     55  O   UNL     1       6.384   2.546  -3.566  0.00  0.00    -0.346 OA
BRANCH  54  56
ATOM     56  N   UNL     1       4.870   4.356  -3.186  0.00  0.00    -0.286 N 
ATOM     57  C   UNL     1       4.431   5.655  -3.128  0.00  0.00    +0.167 A 
ATOM     58  C   UNL     1       3.242   5.603  -2.417  0.00  0.00    +0.147 A 
ATOM     59  C   UNL     1       2.582   6.825  -2.198  0.00  0.00    +0.147 A 
ATOM     60  N   UNL     1       3.132   7.953  -2.703  0.00  0.00    -0.219 NA
ATOM     61  C   UNL     1       4.297   7.854  -3.379  0.00  0.00    +0.225 A 
ATOM     62  N   UNL     1       2.941   4.300  -2.076  0.00  0.00    -0.231 NA
ATOM     63  N   UNL     1       5.025   6.746  -3.648  0.00  0.00    -0.216 NA
ATOM     64  C   UNL     1       3.934   3.582  -2.562  0.00  0.00    +0.203 A 
BRANCH  59  65
ATOM     65  N   UNL     1       1.382   6.937  -1.505  0.00  0.00    -0.341 N 
ATOM     66  H   UNL     1       0.869   7.773  -1.752  0.00  0.00    +0.144 HD
ATOM     67  H   UNL     1       0.866   6.066  -1.448  0.00  0.00    +0.144 HD
ENDBRANCH  59  65
ENDBRANCH  54  56
BRANCH  53  68
ATOM     68  O   UNL     1       7.588   5.787  -4.415  0.00  0.00    -0.385 OA
ATOM     69  H   UNL     1       6.782   6.348  -4.462  0.00  0.00    +0.210 HD
ENDBRANCH  53  68
BRANCH  52  70
ATOM     70  O   UNL     1       9.407   3.816  -2.497  0.00  0.00    -0.278 OA
BRANCH  70  71
ATOM     71  P   UNL     1      10.106   5.355  -2.862  0.00  0.00    +0.473 P 
ATOM     72  O   UNL     1      10.733   6.733  -3.189  0.00  0.00    -0.228 OA
BRANCH  71  73
ATOM     73  O   UNL     1      11.317   4.542  -3.602  0.00  0.00    -0.303 OA
ATOM     74  H   UNL     1      11.967   5.222  -3.864  0.00  0.00    +0.222 HD
ENDBRANCH  71  73
BRANCH  71  75
ATOM     75  O   UNL     1      10.702   5.319  -1.340  0.00  0.00    -0.303 OA
ATOM     76  H   UNL     1      10.106   5.759  -0.715  0.00  0.00    +0.222 HD
ENDBRANCH  71  75
ENDBRANCH  70  71
ENDBRANCH  52  70
ENDBRANCH  50  51
ENDBRANCH  49  50
ENDBRANCH  45  49
ENDBRANCH  44  45
ENDBRANCH  40  44
ENDBRANCH  39  40
ENDBRANCH   1  39
TORSDOF 31
