REMARK  Name = 
REMARK  5 active torsions:
REMARK  status: ('A' for Active; 'I' for Inactive)
REMARK    1  A    between atoms: C_1  and  C_2
REMARK    2  A    between atoms: C_2  and  O_4
REMARK    3  A    between atoms: C_2  and  C_5
REMARK    4  A    between atoms: C_5  and  O_7
REMARK    5  A    between atoms: C_5  and  C_8
REMARK                            x       y       z     vdW  Elec       q    Type
REMARK                         _______ _______ _______ _____ _____    ______ ____
ROOT
ATOM      1  C   UNL     1       4.556  -0.868   1.202  0.00  0.00    +0.119 C 
ATOM      2  N   UNL     1       5.074   0.380   1.812  0.00  0.00    -0.330 N 
ATOM      3  H   UNL     1       4.926   1.208   1.222  0.00  0.00    +0.147 HD
ATOM      4  C   UNL     1       6.424   0.368   2.207  0.00  0.00    +0.133 A 
ATOM      5  C   UNL     1       7.190   1.647   2.182  0.00  0.00    +0.276 A 
ATOM      6  N   UNL     1       8.534   1.525   2.351  0.00  0.00    -0.294 N 
ATOM      7  H   UNL     1       9.068   2.371   2.263  0.00  0.00    +0.172 HD
ATOM      8  C   UNL     1       9.139   0.326   2.530  0.00  0.00    +0.195 A 
ATOM      9  N   UNL     1       8.489  -0.790   2.625  0.00  0.00    -0.199 NA
ATOM     10  N   UNL     1      10.491   0.335   2.605  0.00  0.00    -0.329 N 
ATOM     11  H   UNL     1      10.871  -0.533   2.969  0.00  0.00    +0.145 HD
ATOM     12  H   UNL     1      10.945   1.166   2.958  0.00  0.00    +0.145 HD
ATOM     13  O   UNL     1       6.657   2.737   1.981  0.00  0.00    -0.266 OA
ATOM     14  C   UNL     1       7.124  -0.767   2.464  0.00  0.00    +0.149 A 
ATOM     15  N   UNL     1       6.435  -1.976   2.454  0.00  0.00    -0.326 N 
ATOM     16  H   UNL     1       7.040  -2.776   2.316  0.00  0.00    +0.148 HD
ATOM     17  C   UNL     1       5.018  -2.077   2.082  0.00  0.00    +0.127 C 
ENDROOT
BRANCH   1  18
ATOM     18  C   UNL     1       5.022  -1.068  -0.275  0.00  0.00    +0.164 C 
BRANCH  18  20
ATOM     19  C   UNL     1       3.362   0.504  -1.465  0.00  0.00    +0.040 C 
ATOM     20  C   UNL     1       4.821   0.143  -1.222  0.00  0.00    +0.142 C 
BRANCH  20  21
ATOM     21  O   UNL     1       5.518   1.291  -0.750  0.00  0.00    -0.389 OA
ATOM     22  H   UNL     1       5.398   2.013  -1.391  0.00  0.00    +0.210 HD
ENDBRANCH  20  21
ENDBRANCH  18  20
BRANCH  18  23
ATOM     23  O   UNL     1       4.338  -2.209  -0.827  0.00  0.00    -0.387 OA
ATOM     24  H   UNL     1       4.713  -2.372  -1.711  0.00  0.00    +0.210 HD
ENDBRANCH  18  23
ENDBRANCH   1  18
TORSDOF 4
