REMARK  Name = 
REMARK  12 active torsions:
REMARK  status: ('A' for Active; 'I' for Inactive)
REMARK    1  A    between atoms: C_1  and  C_2
REMARK    2  A    between atoms: C_2  and  C_3
REMARK    3  A    between atoms: C_3  and  C_4
REMARK    4  A    between atoms: C_3  and  C_6
REMARK    5  A    between atoms: C_4  and  C_5
REMARK    6  A    between atoms: C_6  and  N_8
REMARK    7  A    between atoms: C_6  and  C_12
REMARK    8  A    between atoms: C_9  and  C_10
REMARK    9  A    between atoms: C_14  and  O_16
REMARK   10  A    between atoms: C_17  and  C_26
REMARK   11  A    between atoms: C_20  and  N_22
REMARK   12  A    between atoms: C_26  and  O_27
REMARK                            x       y       z     vdW  Elec       q    Type
REMARK                         _______ _______ _______ _____ _____    ______ ____
ROOT
ATOM      1  C   UNL     1       4.963   3.012  -0.224  0.00  0.00    +0.076 C 
ATOM      2  C   UNL     1       5.547   2.631   1.160  0.00  0.00    +0.153 C 
ATOM      3  C   UNL     1       6.318   3.839   1.700  0.00  0.00    +0.058 C 
ATOM      4  C   UNL     1       5.940   5.031   0.826  0.00  0.00    +0.130 C 
ATOM      5  C   UNL     1       4.792   4.546  -0.053  0.00  0.00    +0.136 C 
ENDROOT
BRANCH   2   6
ATOM      6  N   UNL     1       4.475   2.306   2.097  0.00  0.00    -0.273 N 
ATOM      7  H   UNL     1       3.785   3.045   2.205  0.00  0.00    +0.258 HD
ATOM      8  C   UNL     1       4.190   1.114   2.662  0.00  0.00    +0.376 C 
ATOM      9  N   UNL     1       3.135   0.889   3.359  0.00  0.00    -0.130 NA
ATOM     10  H   UNL     1       2.578   1.742   3.414  0.00  0.00    +0.306 HD
ATOM     11  N   UNL     1       5.062   0.105   2.495  0.00  0.00    -0.289 N 
ATOM     12  H   UNL     1       4.774  -0.682   3.068  0.00  0.00    +0.255 HD
ATOM     13  H   UNL     1       6.018   0.353   2.703  0.00  0.00    +0.255 HD
ENDBRANCH   2   6
BRANCH   4  14
ATOM     14  C   UNL     1       7.135   5.531   0.036  0.00  0.00    +0.310 C 
ATOM     15  O   UNL     1       8.070   4.828  -0.314  0.00  0.00    -0.251 OA
BRANCH  14  16
ATOM     16  O   UNL     1       7.106   6.860  -0.193  0.00  0.00    -0.480 OA
ATOM     17  H   UNL     1       6.329   7.325   0.168  0.00  0.00    +0.295 HD
ENDBRANCH  14  16
ENDBRANCH   4  14
BRANCH   5  18
ATOM     18  O   UNL     1       3.572   4.798   0.671  0.00  0.00    -0.391 OA
ATOM     19  H   UNL     1       2.836   4.466   0.123  0.00  0.00    +0.210 HD
ENDBRANCH   5  18
BRANCH   1  20
ATOM     20  C   UNL     1       5.774   2.653  -1.520  0.00  0.00    +0.085 C 
BRANCH  20  21
ATOM     21  N   UNL     1       5.020   3.213  -2.677  0.00  0.00    -0.312 N 
ATOM     22  H   UNL     1       4.202   2.704  -2.992  0.00  0.00    +0.149 HD
ATOM     23  C   UNL     1       5.487   4.232  -3.482  0.00  0.00    +0.210 C 
ATOM     24  O   UNL     1       6.526   4.847  -3.260  0.00  0.00    -0.276 OA
ATOM     25  C   UNL     1       4.594   4.586  -4.642  0.00  0.00    +0.109 C 
ENDBRANCH  20  21
BRANCH  20  26
ATOM     26  C   UNL     1       6.011   1.127  -1.849  0.00  0.00    +0.009 C 
BRANCH  26  28
ATOM     27  C   UNL     1       7.063  -0.466  -3.612  0.00  0.00    +0.004 C 
ATOM     28  C   UNL     1       6.808   0.976  -3.182  0.00  0.00    +0.002 C 
ENDBRANCH  26  28
BRANCH  26  29
ATOM     29  C   UNL     1       6.668   0.278  -0.747  0.00  0.00    +0.002 C 
ATOM     30  C   UNL     1       8.048   0.747  -0.300  0.00  0.00    +0.004 C 
ENDBRANCH  26  29
ENDBRANCH  20  26
ENDBRANCH   1  20
TORSDOF 9
