REMARK  Name = 
REMARK  10 active torsions:
REMARK  status: ('A' for Active; 'I' for Inactive)
REMARK    1  A    between atoms: C_2  and  S_3
REMARK    2  A    between atoms: C_2  and  C_4
REMARK    3  A    between atoms: C_2  and  C_7
REMARK    4  A    between atoms: C_4  and  C_5
REMARK    5  A    between atoms: C_5  and  S_6
REMARK    6  A    between atoms: C_7  and  C_8
REMARK    7  A    between atoms: C_8  and  C_9
REMARK    8  A    between atoms: C_9  and  C_10
REMARK    9  A    between atoms: C_10  and  C_11
REMARK   10  A    between atoms: C_11  and  O_12
REMARK                            x       y       z     vdW  Elec       q    Type
REMARK                         _______ _______ _______ _____ _____    ______ ____
ROOT
ATOM      1  C   UNL     1       2.496  -1.350  -0.512  0.00  0.00    +0.014 C 
ENDROOT
BRANCH   1   2
ATOM      2  C   UNL     1       1.956  -0.036   0.078  0.00  0.00    +0.044 C 
BRANCH   2   3
ATOM      3  S   UNL     1       2.521   1.409  -0.904  0.00  0.00    -0.175 S 
ATOM      4  H   UNL     1       2.003   1.017  -2.078  0.00  0.00    +0.102 HD
ENDBRANCH   2   3
BRANCH   2   5
ATOM      5  C   UNL     1       0.413  -0.002   0.096  0.00  0.00    +0.024 C 
BRANCH   5   6
ATOM      6  C   UNL     1      -0.200  -1.081   0.990  0.00  0.00    +0.066 C 
BRANCH   6   7
ATOM      7  S   UNL     1      -2.013  -0.952   0.992  0.00  0.00    -0.178 S 
ATOM      8  H   UNL     1      -2.085   0.286   1.502  0.00  0.00    +0.102 HD
ENDBRANCH   6   7
ENDBRANCH   5   6
ENDBRANCH   2   5
ENDBRANCH   1   2
BRANCH   1   9
ATOM      9  C   UNL     1       4.025  -1.460  -0.595  0.00  0.00    +0.002 C 
BRANCH   9  10
ATOM     10  C   UNL     1       4.487  -2.806  -1.172  0.00  0.00    +0.011 C 
BRANCH  10  11
ATOM     11  C   UNL     1       3.997  -3.035  -2.604  0.00  0.00    +0.120 C 
BRANCH  11  12
ATOM     12  C   UNL     1       4.502  -4.329  -3.194  0.00  0.00    +0.305 C 
ATOM     13  O   UNL     1       5.237  -5.125  -2.634  0.00  0.00    -0.251 OA
BRANCH  12  14
ATOM     14  O   UNL     1       4.032  -4.532  -4.447  0.00  0.00    -0.481 OA
ATOM     15  H   UNL     1       3.449  -3.817  -4.770  0.00  0.00    +0.295 HD
ENDBRANCH  12  14
ENDBRANCH  11  12
ENDBRANCH  10  11
ENDBRANCH   9  10
ENDBRANCH   1   9
TORSDOF 10
