REMARK  Name = 
REMARK  21 active torsions:
REMARK  status: ('A' for Active; 'I' for Inactive)
REMARK    1  A    between atoms: C_1  and  C_2
REMARK    2  A    between atoms: C_2  and  C_3
REMARK    3  A    between atoms: C_6  and  C_7
REMARK    4  A    between atoms: C_8  and  O_10
REMARK    5  A    between atoms: C_11  and  C_13
REMARK    6  A    between atoms: C_15  and  O_17
REMARK    7  A    between atoms: O_17  and  C_18
REMARK    8  A    between atoms: C_22  and  O_23
REMARK    9  A    between atoms: C_24  and  C_26
REMARK   10  A    between atoms: C_28  and  O_30
REMARK   11  A    between atoms: O_30  and  C_31
REMARK   12  A    between atoms: C_46  and  C_57
REMARK   13  A    between atoms: C_48  and  C_50
REMARK   14  A    between atoms: C_51  and  O_53
REMARK   15  A    between atoms: C_57  and  C_58
REMARK   16  A    between atoms: C_59  and  C_60
REMARK   17  A    between atoms: C_64  and  O_66
REMARK   18  A    between atoms: O_66  and  C_67
REMARK   19  A    between atoms: N_71  and  C_72
REMARK   20  A    between atoms: C_77  and  O_80
REMARK   21  A    between atoms: O_80  and  C_81
REMARK                            x       y       z     vdW  Elec       q    Type
REMARK                         _______ _______ _______ _____ _____    ______ ____
ROOT
ATOM      1  C   UNL     1      -0.000  -0.000  -0.000  0.00  0.00    +0.078 C 
ATOM      2  C   UNL     1      -0.000  -0.000  -0.000  0.00  0.00    +0.143 C 
ATOM      3  O   UNL     1      -0.000  -0.000   0.000  0.00  0.00    -0.297 OA
ATOM      4  C   UNL     1      -0.000  -0.000  -0.000  0.00  0.00    +0.106 C 
ATOM      5  C   UNL     1      -0.000  -0.000  -0.000  0.00  0.00    +0.128 C 
ATOM      6  C   UNL     1      -0.000  -0.000   0.000  0.00  0.00    +0.060 C 
ATOM      7  C   UNL     1      -0.000  -0.000  -0.000  0.00  0.00    +0.014 C 
ATOM      8  C   UNL     1      -0.000  -0.000  -0.000  0.00  0.00    +0.207 C 
ATOM      9  O   UNL     1      -0.000  -0.000  -0.000  0.00  0.00    -0.455 OA
ATOM     10  C   UNL     1      -0.000  -0.000   0.000  0.00  0.00    +0.328 C 
ATOM     11  O   UNL     1      -0.000  -0.000  -0.000  0.00  0.00    -0.249 OA
ATOM     12  C   UNL     1      -0.000  -0.000  -0.000  0.00  0.00    +0.185 C 
ATOM     13  N   UNL     1      -0.000  -0.000  -0.000  0.00  0.00    -0.282 N 
ATOM     14  C   UNL     1      -0.000  -0.000  -0.000  0.00  0.00    +0.109 C 
ATOM     15  C   UNL     1      -0.000  -0.000  -0.000  0.00  0.00    +0.019 C 
ATOM     16  C   UNL     1      -0.000  -0.000   0.000  0.00  0.00    +0.004 C 
ATOM     17  C   UNL     1      -0.000  -0.000  -0.000  0.00  0.00    +0.288 C 
ATOM     18  O   UNL     1      -0.000  -0.000  -0.000  0.00  0.00    -0.267 OA
ATOM     19  C   UNL     1      -0.000  -0.000  -0.000  0.00  0.00    +0.276 C 
ATOM     20  O   UNL     1      -0.000  -0.000  -0.000  0.00  0.00    -0.281 OA
ATOM     21  C   UNL     1      -0.000  -0.000  -0.000  0.00  0.00    +0.240 C 
ATOM     22  C   UNL     1      -0.000  -0.000  -0.000  0.00  0.00    +0.056 C 
ATOM     23  C   UNL     1      -0.000  -0.000  -0.000  0.00  0.00    +0.013 C 
ATOM     24  C   UNL     1      -0.000  -0.000  -0.000  0.00  0.00    +0.043 C 
ATOM     25  C   UNL     1      -0.000  -0.000  -0.000  0.00  0.00    +0.150 C 
ATOM     26  C   UNL     1      -0.000  -0.000   0.000  0.00  0.00    +0.179 C 
ATOM     27  C   UNL     1      -0.000  -0.000  -0.000  0.00  0.00    +0.150 C 
ATOM     28  C   UNL     1      -0.000  -0.000  -0.000  0.00  0.00    +0.040 C 
ATOM     29  C   UNL     1      -0.000  -0.000  -0.000  0.00  0.00    +0.021 C 
ATOM     30  C   UNL     1      -0.000  -0.000  -0.000  0.00  0.00    +0.010 C 
ATOM     31  C   UNL     1      -0.000  -0.000  -0.000  0.00  0.00    +0.143 C 
ATOM     32  C   UNL     1      -0.000  -0.000  -0.000  0.00  0.00    -0.048 C 
ATOM     33  C   UNL     1      -0.000  -0.000  -0.000  0.00  0.00    +0.041 C 
ATOM     34  O   UNL     1      -0.000  -0.000  -0.000  0.00  0.00    -0.334 OA
ATOM     35  C   UNL     1      -0.000  -0.000  -0.000  0.00  0.00    +0.034 C 
ATOM     36  C   UNL     1      -0.000  -0.000  -0.000  0.00  0.00    -0.015 C 
ENDROOT
BRANCH   8  37
ATOM     37  C   UNL     1      -0.000  -0.000  -0.000  0.00  0.00    -0.036 C 
ATOM     38  C   UNL     1      -0.000  -0.000  -0.000  0.00  0.00    -0.021 C 
ATOM     39  C   UNL     1      -0.000  -0.000   0.000  0.00  0.00    +0.042 C 
BRANCH  38  40
ATOM     40  C   UNL     1      -0.000  -0.000   0.000  0.00  0.00    +0.014 C 
ATOM     41  C   UNL     1      -0.000  -0.000  -0.000  0.00  0.00    +0.043 C 
ATOM     42  C   UNL     1      -0.000  -0.000  -0.000  0.00  0.00    +0.159 C 
ATOM     43  C   UNL     1      -0.000  -0.000   0.000  0.00  0.00    +0.202 C 
ATOM     44  C   UNL     1      -0.000  -0.000   0.000  0.00  0.00    +0.048 C 
ATOM     45  C   UNL     1      -0.000  -0.000   0.000  0.00  0.00    +0.011 C 
BRANCH  42  46
ATOM     46  O   UNL     1      -0.000  -0.000   0.000  0.00  0.00    -0.376 OA
ATOM     47  C   UNL     1      -0.000  -0.000  -0.000  0.00  0.00    +0.194 C 
ENDBRANCH  42  46
BRANCH  43  48
ATOM     48  O   UNL     1      -0.000  -0.000   0.000  0.00  0.00    -0.486 OA
BRANCH  48  49
ATOM     49  C   UNL     1      -0.000  -0.000   0.000  0.00  0.00    +0.122 A 
ATOM     50  C   UNL     1      -0.000  -0.000   0.000  0.00  0.00    +0.055 A 
ATOM     51  C   UNL     1      -0.000  -0.000  -0.000  0.00  0.00    +0.003 A 
ATOM     52  C   UNL     1      -0.000  -0.000  -0.000  0.00  0.00    +0.049 A 
ATOM     53  N   UNL     1      -0.000  -0.000  -0.000  0.00  0.00    -0.350 N 
ATOM     54  C   UNL     1      -0.000  -0.000  -0.000  0.00  0.00    +0.086 A 
ATOM     55  C   UNL     1      -0.000  -0.000  -0.000  0.00  0.00    +0.149 C 
ATOM     56  C   UNL     1      -0.000  -0.000   0.000  0.00  0.00    +0.030 A 
ATOM     57  C   UNL     1      -0.000  -0.000   0.000  0.00  0.00    +0.028 A 
ATOM     58  C   UNL     1      -0.000  -0.000  -0.000  0.00  0.00    +0.048 A 
ENDBRANCH  48  49
ENDBRANCH  43  48
ENDBRANCH  38  40
ENDBRANCH   8  37
BRANCH   1  60
ATOM     59  C   UNL     1      -0.000  -0.000  -0.000  0.00  0.00    +0.005 C 
ATOM     60  C   UNL     1      -0.000  -0.000  -0.000  0.00  0.00    +0.012 C 
ENDBRANCH   1  60
BRANCH   5  61
ATOM     61  O   UNL     1      -0.000  -0.000   0.000  0.00  0.00    -0.391 OA
ATOM     62  H   UNL     1       0.000   0.000   0.000  0.00  0.00    +0.210 HD
ENDBRANCH   5  61
BRANCH  21  63
ATOM     63  O   UNL     1      -0.000  -0.000  -0.000  0.00  0.00    -0.358 OA
ATOM     64  H   UNL     1       0.000   0.000   0.000  0.00  0.00    +0.213 HD
ENDBRANCH  21  63
BRANCH  25  65
ATOM     65  O   UNL     1      -0.000  -0.000  -0.000  0.00  0.00    -0.377 OA
ATOM     66  C   UNL     1      -0.000  -0.000  -0.000  0.00  0.00    +0.194 C 
ENDBRANCH  25  65
BRANCH  27  67
ATOM     67  O   UNL     1      -0.000  -0.000  -0.000  0.00  0.00    -0.377 OA
ATOM     68  C   UNL     1      -0.000  -0.000  -0.000  0.00  0.00    +0.194 C 
ENDBRANCH  27  67
BRANCH  31  69
ATOM     69  O   UNL     1      -0.000  -0.000  -0.000  0.00  0.00    -0.387 OA
ATOM     70  H   UNL     1       0.000   0.000   0.000  0.00  0.00    +0.210 HD
ENDBRANCH  31  69
TORSDOF 11
