REMARK  Name = 
REMARK  4 active torsions:
REMARK  status: ('A' for Active; 'I' for Inactive)
REMARK    1  A    between atoms: C_1  and  C_2
REMARK    2  A    between atoms: C_2  and  C_4
REMARK    3  A    between atoms: C_2  and  C_6
REMARK    4  A    between atoms: C_4  and  N_5
REMARK                            x       y       z     vdW  Elec       q    Type
REMARK                         _______ _______ _______ _____ _____    ______ ____
ROOT
ATOM      1  C   UNL     1       2.949   0.908  -1.177  0.00  0.00    +0.015 C 
ATOM      2  C   UNL     1       2.429   0.103   0.008  0.00  0.00    +0.045 C 
ENDROOT
BRANCH   2   3
ATOM      3  C   UNL     1       2.932  -1.341  -0.142  0.00  0.00    +0.046 C 
ATOM      4  O   UNL     1       2.024  -2.210  -0.280  0.00  0.00    -0.550 OA
ATOM      5  O   UNL     1       4.187  -1.498  -0.116  0.00  0.00    -0.550 OA
ENDBRANCH   2   3
BRANCH   2   6
ATOM      6  C   UNL     1       2.936   0.586   1.362  0.00  0.00    +0.086 C 
BRANCH   6   7
ATOM      7  N   UNL     1       2.507   1.964   1.666  0.00  0.00    -0.329 NA
ATOM      8  H   UNL     1       2.943   2.235   2.544  0.00  0.00    +0.118 HD
ATOM      9  H   UNL     1       2.899   2.575   0.953  0.00  0.00    +0.118 HD
ENDBRANCH   6   7
ENDBRANCH   2   6
TORSDOF 3
