REMARK  Name = 
REMARK  2 active torsions:
REMARK  status: ('A' for Active; 'I' for Inactive)
REMARK    1  A    between atoms: O_1  and  C_2
REMARK    2  A    between atoms: C_5  and  C_8
REMARK                            x       y       z     vdW  Elec       q    Type
REMARK                         _______ _______ _______ _____ _____    ______ ____
ROOT
ATOM      1  C   UNL     1       2.460  -0.010   0.103  0.00  0.00    +0.117 A 
ATOM      2  C   UNL     1       3.164  -1.205   0.023  0.00  0.00    +0.046 A 
ATOM      3  C   UNL     1       4.547  -1.182  -0.167  0.00  0.00    +0.016 A 
ATOM      4  C   UNL     1       5.231   0.040  -0.276  0.00  0.00    +0.055 A 
ATOM      5  C   UNL     1       4.501   1.236  -0.183  0.00  0.00    +0.016 A 
ATOM      6  C   UNL     1       3.117   1.212   0.006  0.00  0.00    +0.046 A 
ENDROOT
BRANCH   4   7
ATOM      7  C   UNL     1       6.724   0.049  -0.494  0.00  0.00    +0.417 C 
ATOM      8  F   UNL     1       7.088  -0.603  -1.633  0.00  0.00    -0.166 F 
ATOM      9  F   UNL     1       7.404  -0.558   0.518  0.00  0.00    -0.166 F 
ATOM     10  F   UNL     1       7.252   1.301  -0.598  0.00  0.00    -0.166 F 
ENDBRANCH   4   7
BRANCH   1  11
ATOM     11  O   UNL     1       1.110  -0.080   0.277  0.00  0.00    -0.507 OA
ATOM     12  H   UNL     1       0.747   0.821   0.270  0.00  0.00    +0.292 HD
ENDBRANCH   1  11
TORSDOF 2
