REMARK  Name = 
REMARK  11 active torsions:
REMARK  status: ('A' for Active; 'I' for Inactive)
REMARK    1  A    between atoms: C_1  and  C_2
REMARK    2  A    between atoms: N_4  and  C_5
REMARK    3  A    between atoms: C_7  and  O_9
REMARK    4  A    between atoms: C_11  and  C_23
REMARK    5  A    between atoms: C_13  and  C_15
REMARK    6  A    between atoms: C_15  and  O_17
REMARK    7  A    between atoms: C_15  and  C_18
REMARK    8  A    between atoms: C_18  and  O_20
REMARK    9  A    between atoms: C_18  and  C_21
REMARK   10  A    between atoms: C_21  and  O_22
REMARK   11  A    between atoms: C_23  and  O_24
REMARK                            x       y       z     vdW  Elec       q    Type
REMARK                         _______ _______ _______ _____ _____    ______ ____
ROOT
ATOM      1  C   UNL     1       4.728  -0.862   0.644  0.00  0.00    +0.148 C 
ATOM      2  C   UNL     1       4.997  -2.357   0.299  0.00  0.00    +0.228 C 
ATOM      3  O   UNL     1       6.001  -3.051   1.066  0.00  0.00    -0.478 OA
ATOM      4  C   UNL     1       6.340  -2.582   2.310  0.00  0.00    +0.203 C 
ATOM      5  C   UNL     1       5.951  -1.404   2.808  0.00  0.00    +0.059 C 
ATOM      6  C   UNL     1       5.118  -0.433   2.072  0.00  0.00    +0.165 C 
ENDROOT
BRANCH   1   9
ATOM      7  C   UNL     1       5.516   1.134  -2.504  0.00  0.00    +0.109 C 
ATOM      8  C   UNL     1       4.790   0.165  -1.615  0.00  0.00    +0.210 C 
ATOM      9  N   UNL     1       5.341   0.034  -0.358  0.00  0.00    -0.306 N 
ATOM     10  H   UNL     1       6.253   0.439  -0.177  0.00  0.00    +0.149 HD
ATOM     11  O   UNL     1       3.804  -0.467  -1.979  0.00  0.00    -0.276 OA
ENDBRANCH   1   9
BRANCH   4  12
ATOM     12  C   UNL     1       7.200  -3.437   3.186  0.00  0.00    +0.372 C 
ATOM     13  O   UNL     1       7.875  -3.031   4.114  0.00  0.00    -0.242 OA
BRANCH  12  14
ATOM     14  O   UNL     1       7.146  -4.735   2.814  0.00  0.00    -0.475 OA
ATOM     15  H   UNL     1       6.458  -4.888   2.137  0.00  0.00    +0.296 HD
ENDBRANCH  12  14
ENDBRANCH   4  12
BRANCH   6  16
ATOM     16  O   UNL     1       3.969  -0.187   2.877  0.00  0.00    -0.386 OA
ATOM     17  H   UNL     1       3.387   0.426   2.396  0.00  0.00    +0.210 HD
ENDBRANCH   6  16
BRANCH   2  18
ATOM     18  C   UNL     1       3.668  -3.160   0.282  0.00  0.00    +0.187 C 
BRANCH  18  19
ATOM     19  O   UNL     1       3.129  -3.213   1.606  0.00  0.00    -0.385 OA
ATOM     20  H   UNL     1       3.577  -3.949   2.067  0.00  0.00    +0.210 HD
ENDBRANCH  18  19
BRANCH  18  21
ATOM     21  C   UNL     1       3.820  -4.589  -0.279  0.00  0.00    +0.172 C 
BRANCH  21  22
ATOM     22  O   UNL     1       4.738  -5.329   0.545  0.00  0.00    -0.387 OA
ATOM     23  H   UNL     1       5.619  -5.177   0.157  0.00  0.00    +0.210 HD
ENDBRANCH  21  22
BRANCH  21  24
ATOM     24  C   UNL     1       2.463  -5.316  -0.322  0.00  0.00    +0.189 C 
BRANCH  24  25
ATOM     25  O   UNL     1       2.579  -6.616  -0.901  0.00  0.00    -0.392 OA
ATOM     26  H   UNL     1       3.049  -6.536  -1.747  0.00  0.00    +0.210 HD
ENDBRANCH  24  25
ENDBRANCH  21  24
ENDBRANCH  18  21
ENDBRANCH   2  18
TORSDOF 10
