REMARK  Name = 
REMARK  48 active torsions:
REMARK  status: ('A' for Active; 'I' for Inactive)
REMARK    1  A    between atoms: C_1  and  C_2
REMARK    2  A    between atoms: C_2  and  C_3
REMARK    3  A    between atoms: C_3  and  C_4
REMARK    4  A    between atoms: C_4  and  C_5
REMARK    5  A    between atoms: C_5  and  C_6
REMARK    6  A    between atoms: C_6  and  C_7
REMARK    7  A    between atoms: C_7  and  C_8
REMARK    8  A    between atoms: C_8  and  C_9
REMARK    9  A    between atoms: C_10  and  C_11
REMARK   10  A    between atoms: C_11  and  C_12
REMARK   11  A    between atoms: C_12  and  C_13
REMARK   12  A    between atoms: C_13  and  C_14
REMARK   13  A    between atoms: C_14  and  C_15
REMARK   14  A    between atoms: C_15  and  C_16
REMARK   15  A    between atoms: C_16  and  C_17
REMARK   16  A    between atoms: C_17  and  C_18
REMARK   17  A    between atoms: C_18  and  O_20
REMARK   18  A    between atoms: O_20  and  C_21
REMARK   19  A    between atoms: C_21  and  C_22
REMARK   20  A    between atoms: C_22  and  C_24
REMARK   21  A    between atoms: C_22  and  O_36
REMARK   22  A    between atoms: C_24  and  O_25
REMARK   23  A    between atoms: O_25  and  P_26
REMARK   24  A    between atoms: P_26  and  O_28
REMARK   25  A    between atoms: P_26  and  O_29
REMARK   26  A    between atoms: O_29  and  C_30
REMARK   27  A    between atoms: C_30  and  C_31
REMARK   28  A    between atoms: C_31  and  N_32
REMARK   29  A    between atoms: N_32  and  C_33
REMARK   30  A    between atoms: N_32  and  C_34
REMARK   31  A    between atoms: N_32  and  C_35
REMARK   32  A    between atoms: O_36  and  C_37
REMARK   33  A    between atoms: C_37  and  C_39
REMARK   34  A    between atoms: C_39  and  C_40
REMARK   35  A    between atoms: C_40  and  C_41
REMARK   36  A    between atoms: C_41  and  C_42
REMARK   37  A    between atoms: C_42  and  C_43
REMARK   38  A    between atoms: C_43  and  C_44
REMARK   39  A    between atoms: C_44  and  C_45
REMARK   40  A    between atoms: C_45  and  C_46
REMARK   41  A    between atoms: C_47  and  C_48
REMARK   42  A    between atoms: C_48  and  C_49
REMARK   43  A    between atoms: C_49  and  C_50
REMARK   44  A    between atoms: C_50  and  C_51
REMARK   45  A    between atoms: C_51  and  C_52
REMARK   46  A    between atoms: C_52  and  C_53
REMARK   47  A    between atoms: C_53  and  C_54
REMARK   48  A    between atoms: C_54  and  C_55
REMARK                            x       y       z     vdW  Elec       q    Type
REMARK                         _______ _______ _______ _____ _____    ______ ____
ROOT
ATOM      1  C   UNL     1      15.688  12.711  -5.336  0.00  0.00    +0.240 C 
ENDROOT
BRANCH   1   2
ATOM      2  C   UNL     1      17.194  13.287  -5.265  0.00  0.00    +0.220 C 
BRANCH   2   3
ATOM      3  O   UNL     1      17.829  13.490  -6.584  0.00  0.00    -0.283 OA
BRANCH   3   4
ATOM      4  P   UNL     1      19.424  13.576  -6.876  0.00  0.00    +0.475 P 
ATOM      5  O   UNL     1      20.306  13.467  -5.727  0.00  0.00    -0.227 OA
BRANCH   4   6
ATOM      6  O   UNL     1      19.525  15.059  -7.518  0.00  0.00    -0.302 OA
ATOM      7  H   UNL     1      20.379  15.473  -7.373  0.00  0.00    +0.222 HD
ENDBRANCH   4   6
BRANCH   4   8
ATOM      8  O   UNL     1      19.809  12.635  -8.246  0.00  0.00    -0.281 OA
BRANCH   8   9
ATOM      9  C   UNL     1      21.188  12.260  -8.527  0.00  0.00    +0.223 C 
BRANCH   9  10
ATOM     10  C   UNL     1      21.878  10.739  -9.165  0.00  0.00    +0.161 C 
BRANCH  10  11
ATOM     11  N   UNL     1      21.179   9.223  -9.368  0.00  0.00    +0.239 N 
ATOM     12  C   UNL     1      22.044   8.266 -10.212  0.00  0.00    +0.192 C 
ATOM     13  C   UNL     1      20.013   9.520 -10.228  0.00  0.00    +0.192 C 
ATOM     14  C   UNL     1      20.819   8.241  -8.183  0.00  0.00    +0.192 C 
ENDBRANCH  10  11
ENDBRANCH   9  10
ENDBRANCH   8   9
ENDBRANCH   4   8
ENDBRANCH   3   4
ENDBRANCH   2   3
ENDBRANCH   1   2
BRANCH   1  15
ATOM     15  C   UNL     1      14.850  13.180  -4.119  0.00  0.00    +0.279 C 
BRANCH  15  16
ATOM     16  O   UNL     1      13.487  12.682  -4.155  0.00  0.00    -0.461 OA
BRANCH  16  17
ATOM     17  C   UNL     1      12.659  13.367  -5.012  0.00  0.00    +0.307 C 
ATOM     18  O   UNL     1      12.973  14.373  -5.654  0.00  0.00    -0.251 OA
BRANCH  17  19
ATOM     19  C   UNL     1      11.298  12.687  -5.131  0.00  0.00    +0.120 C 
BRANCH  19  20
ATOM     20  C   UNL     1      10.553  12.662  -3.818  0.00  0.00    +0.011 C 
BRANCH  20  21
ATOM     21  C   UNL     1      10.279  14.067  -3.278  0.00  0.00    +0.001 C 
BRANCH  21  22
ATOM     22  C   UNL     1       9.490  13.999  -1.976  0.00  0.00    +0.000 C 
BRANCH  22  23
ATOM     23  C   UNL     1       9.226  15.395  -1.422  0.00  0.00    +0.000 C 
BRANCH  23  24
ATOM     24  C   UNL     1       8.431  15.319  -0.121  0.00  0.00    +0.004 C 
BRANCH  24  25
ATOM     25  C   UNL     1       8.153  16.716   0.430  0.00  0.00    +0.027 C 
BRANCH  25  27
ATOM     26  C   UNL     1       7.874  17.091   2.886  0.00  0.00    -0.031 C 
ATOM     27  C   UNL     1       7.389  16.644   1.718  0.00  0.00    -0.031 C 
BRANCH  26  28
ATOM     28  C   UNL     1       7.112  17.053   4.177  0.00  0.00    +0.027 C 
BRANCH  28  29
ATOM     29  C   UNL     1       6.878  18.469   4.703  0.00  0.00    +0.004 C 
BRANCH  29  30
ATOM     30  C   UNL     1       6.103  18.440   6.019  0.00  0.00    +0.000 C 
BRANCH  30  31
ATOM     31  C   UNL     1       5.870  19.856   6.548  0.00  0.00    +0.000 C 
BRANCH  31  32
ATOM     32  C   UNL     1       5.089  19.812   7.862  0.00  0.00    -0.000 C 
BRANCH  32  33
ATOM     33  C   UNL     1       4.847  21.234   8.398  0.00  0.00    -0.000 C 
BRANCH  33  35
ATOM     34  C   UNL     1       3.831  22.591  10.250  0.00  0.00    +0.004 C 
ATOM     35  C   UNL     1       4.063  21.191   9.711  0.00  0.00    -0.003 C 
ENDBRANCH  33  35
ENDBRANCH  32  33
ENDBRANCH  31  32
ENDBRANCH  30  31
ENDBRANCH  29  30
ENDBRANCH  28  29
ENDBRANCH  26  28
ENDBRANCH  25  27
ENDBRANCH  24  25
ENDBRANCH  23  24
ENDBRANCH  22  23
ENDBRANCH  21  22
ENDBRANCH  20  21
ENDBRANCH  19  20
ENDBRANCH  17  19
ENDBRANCH  16  17
ENDBRANCH  15  16
ENDBRANCH   1  15
BRANCH   1  36
ATOM     36  O   UNL     1      15.598  11.231  -5.273  0.00  0.00    -0.456 OA
BRANCH  36  37
ATOM     37  C   UNL     1      14.528  10.675  -5.973  0.00  0.00    +0.308 C 
ATOM     38  O   UNL     1      13.753  11.299  -6.657  0.00  0.00    -0.251 OA
BRANCH  37  39
ATOM     39  C   UNL     1      14.428   9.154  -5.823  0.00  0.00    +0.120 C 
BRANCH  39  40
ATOM     40  C   UNL     1      14.046   8.470  -7.162  0.00  0.00    +0.011 C 
BRANCH  40  41
ATOM     41  C   UNL     1      14.993   8.814  -8.293  0.00  0.00    +0.001 C 
BRANCH  41  42
ATOM     42  C   UNL     1      16.393   8.312  -7.986  0.00  0.00    +0.000 C 
BRANCH  42  43
ATOM     43  C   UNL     1      17.386   8.926  -8.930  0.00  0.00    +0.000 C 
BRANCH  43  44
ATOM     44  C   UNL     1      17.487  10.419  -8.683  0.00  0.00    +0.004 C 
BRANCH  44  45
ATOM     45  C   UNL     1      17.920  10.778  -7.249  0.00  0.00    +0.027 C 
BRANCH  45  46
ATOM     46  C   UNL     1      19.061  10.457  -6.210  0.00  0.00    -0.031 C 
ATOM     47  C   UNL     1      20.391  10.473  -6.446  0.00  0.00    -0.031 C 
BRANCH  47  48
ATOM     48  C   UNL     1      21.795  10.290  -5.803  0.00  0.00    +0.027 C 
BRANCH  48  49
ATOM     49  C   UNL     1      22.879  11.424  -5.927  0.00  0.00    +0.004 C 
BRANCH  49  50
ATOM     50  C   UNL     1      24.336  11.101  -5.589  0.00  0.00    +0.000 C 
BRANCH  50  51
ATOM     51  C   UNL     1      25.173  12.406  -5.562  0.00  0.00    +0.000 C 
BRANCH  51  52
ATOM     52  C   UNL     1      26.595  12.119  -5.092  0.00  0.00    -0.000 C 
BRANCH  52  53
ATOM     53  C   UNL     1      27.417  13.386  -4.840  0.00  0.00    -0.000 C 
BRANCH  53  54
ATOM     54  C   UNL     1      28.784  12.994  -4.277  0.00  0.00    -0.003 C 
ATOM     55  C   UNL     1      29.649  14.201  -3.967  0.00  0.00    +0.004 C 
ENDBRANCH  53  54
ENDBRANCH  52  53
ENDBRANCH  51  52
ENDBRANCH  50  51
ENDBRANCH  49  50
ENDBRANCH  48  49
ENDBRANCH  47  48
ENDBRANCH  45  46
ENDBRANCH  44  45
ENDBRANCH  43  44
ENDBRANCH  42  43
ENDBRANCH  41  42
ENDBRANCH  40  41
ENDBRANCH  39  40
ENDBRANCH  37  39
ENDBRANCH  36  37
ENDBRANCH   1  36
TORSDOF 43
