REMARK  Name = 
REMARK  9 active torsions:
REMARK  status: ('A' for Active; 'I' for Inactive)
REMARK    1  A    between atoms: O_1  and  O_2
REMARK    2  A    between atoms: O_2  and  C_3
REMARK    3  A    between atoms: C_3  and  C_4
REMARK    4  A    between atoms: C_4  and  C_5
REMARK    5  A    between atoms: C_8  and  O_9
REMARK    6  A    between atoms: C_14  and  C_16
REMARK    7  A    between atoms: C_16  and  C_17
REMARK    8  A    between atoms: C_23  and  C_28
REMARK    9  A    between atoms: C_31  and  O_32
REMARK                            x       y       z     vdW  Elec       q    Type
REMARK                         _______ _______ _______ _____ _____    ______ ____
ROOT
ATOM      1  C   UNL     1       2.700  -1.204   0.531  0.00  0.00    +0.381 C 
ATOM      2  C   UNL     1       2.562  -2.564  -0.178  0.00  0.00    +0.391 C 
ATOM      3  O   UNL     1       2.970  -2.865  -1.290  0.00  0.00    -0.239 OA
ATOM      4  N   UNL     1       1.968  -3.381   0.739  0.00  0.00    -0.123 N 
ATOM      5  C   UNL     1       1.649  -2.656   1.843  0.00  0.00    +0.319 C 
ATOM      6  C   UNL     1       0.857  -3.385   2.952  0.00  0.00    +0.188 C 
ATOM      7  N   UNL     1       1.285  -4.805   2.968  0.00  0.00    -0.328 N 
ATOM      8  H   UNL     1       0.834  -5.401   3.659  0.00  0.00    +0.147 HD
ATOM      9  C   UNL     1       1.543  -5.444   1.759  0.00  0.00    +0.073 C 
ATOM     10  C   UNL     1       1.851  -4.746   0.651  0.00  0.00    +0.223 C 
ATOM     11  N   UNL     1       1.980  -1.402   1.831  0.00  0.00    -0.034 NA
ENDROOT
BRANCH   9  12
ATOM     12  C   UNL     1       1.607  -6.911   1.730  0.00  0.00    -0.001 A 
ATOM     13  C   UNL     1       0.454  -7.685   1.558  0.00  0.00    +0.013 A 
ATOM     14  C   UNL     1       0.547  -9.081   1.509  0.00  0.00    +0.046 A 
ATOM     15  C   UNL     1       1.788  -9.694   1.616  0.00  0.00    +0.117 A 
ATOM     16  C   UNL     1       2.946  -8.940   1.774  0.00  0.00    +0.046 A 
ATOM     17  C   UNL     1       2.852  -7.545   1.836  0.00  0.00    +0.013 A 
BRANCH  15  18
ATOM     18  O   UNL     1       1.837 -11.054   1.552  0.00  0.00    -0.507 OA
ATOM     19  H   UNL     1       2.765 -11.337   1.599  0.00  0.00    +0.292 HD
ENDBRANCH  15  18
ENDBRANCH   9  12
BRANCH   1  20
ATOM     20  O   UNL     1       2.253  -0.147  -0.322  0.00  0.00    -0.169 OA
BRANCH  20  21
ATOM     21  O   UNL     1       0.816  -0.326  -0.517  0.00  0.00    -0.245 OA
ATOM     22  H   UNL     1       0.591   0.622  -0.500  0.00  0.00    +0.253 HD
ENDBRANCH  20  21
ENDBRANCH   1  20
BRANCH   6  23
ATOM     23  C   UNL     1       0.967  -2.767   4.360  0.00  0.00    +0.038 C 
BRANCH  23  24
ATOM     24  C   UNL     1       0.410  -1.342   4.459  0.00  0.00    -0.009 C 
ATOM     25  C   UNL     1       0.421  -0.705   5.852  0.00  0.00    +0.003 C 
ATOM     26  C   UNL     1      -0.550   0.484   5.732  0.00  0.00    +0.000 C 
ATOM     27  C   UNL     1      -1.269   0.303   4.394  0.00  0.00    +0.000 C 
ATOM     28  C   UNL     1      -1.052  -1.164   4.055  0.00  0.00    +0.003 C 
ENDBRANCH  23  24
ENDBRANCH   6  23
BRANCH   1  29
ATOM     29  C   UNL     1       4.214  -1.026   0.805  0.00  0.00    +0.138 C 
BRANCH  29  30
ATOM     30  C   UNL     1       4.623   0.200   1.593  0.00  0.00    -0.040 A 
ATOM     31  C   UNL     1       4.987   1.379   0.924  0.00  0.00    +0.007 A 
ATOM     32  C   UNL     1       5.442   2.487   1.639  0.00  0.00    +0.045 A 
ATOM     33  C   UNL     1       5.519   2.430   3.025  0.00  0.00    +0.117 A 
ATOM     34  C   UNL     1       5.151   1.277   3.710  0.00  0.00    +0.045 A 
ATOM     35  C   UNL     1       4.701   0.164   2.993  0.00  0.00    +0.007 A 
BRANCH  33  36
ATOM     36  O   UNL     1       5.964   3.540   3.681  0.00  0.00    -0.507 OA
ATOM     37  H   UNL     1       5.829   3.408   4.633  0.00  0.00    +0.292 HD
ENDBRANCH  33  36
ENDBRANCH  29  30
ENDBRANCH   1  29
TORSDOF 9
