REMARK  Name = 
REMARK  14 active torsions:
REMARK  status: ('A' for Active; 'I' for Inactive)
REMARK    1  A    between atoms: O_1  and  C_2
REMARK    2  A    between atoms: C_2  and  CA_4
REMARK    3  A    between atoms: CA_4  and  CB_6
REMARK    4  A    between atoms: CA_4  and  N_14
REMARK    5  A    between atoms: CB_6  and  CG_7
REMARK    6  A    between atoms: CZ_10  and  OH_11
REMARK    7  A    between atoms: C_15  and  CA_17
REMARK    8  A    between atoms: CA_17  and  CB_19
REMARK    9  A    between atoms: CA_17  and  N_26
REMARK   10  A    between atoms: CB_19  and  CG_20
REMARK   11  A    between atoms: C_27  and  C_29
REMARK   12  A    between atoms: C_29  and  S_31
REMARK   13  A    between atoms: C_29  and  C_32
REMARK   14  A    between atoms: C_32  and  C_33
REMARK                            x       y       z     vdW  Elec       q    Type
REMARK                         _______ _______ _______ _____ _____    ______ ____
ROOT
ATOM      1  CA  PHE A   1       6.936  -0.101  -1.798  0.00  0.00    +0.163 C 
ENDROOT
BRANCH   1   4
ATOM      2  N   PHE A   1       4.862   1.124  -2.250  0.00  0.00    -0.301 N 
ATOM      3  H   PHE A   1       5.463   1.946  -2.173  0.00  0.00    +0.150 HD
ATOM      4  C   PHE A   1       5.425  -0.126  -2.144  0.00  0.00    +0.234 C 
ATOM      5  O   PHE A   1       4.804  -1.157  -2.399  0.00  0.00    -0.274 OA
BRANCH   2   6
ATOM      6  CA  PHE A   1       3.470   1.364  -2.645  0.00  0.00    +0.186 C 
BRANCH   6   7
ATOM      7  C   PHE A   1       2.899   2.568  -1.892  0.00  0.00    +0.326 C 
ATOM      8  OXT PHE A   1       3.534   3.253  -1.103  0.00  0.00    -0.249 OA
BRANCH   7   9
ATOM      9  O   PHE A   1       1.595   2.834  -2.168  0.00  0.00    -0.479 OA
ATOM     10  H   PHE A   1       1.165   2.230  -2.804  0.00  0.00    +0.295 HD
ENDBRANCH   7   9
ENDBRANCH   6   7
BRANCH   6  11
ATOM     11  CB  PHE A   1       3.336   1.557  -4.158  0.00  0.00    +0.069 C 
BRANCH  11  12
ATOM     12  CG  PHE A   1       4.075   2.745  -4.734  0.00  0.00    -0.045 A 
ATOM     13  CD2 PHE A   1       3.601   4.059  -4.709  0.00  0.00    +0.007 A 
ATOM     14  CE2 PHE A   1       4.288   5.072  -5.396  0.00  0.00    +0.045 A 
ATOM     15  CZ  PHE A   1       5.409   4.764  -6.152  0.00  0.00    +0.117 A 
ATOM     16  CE1 PHE A   1       5.926   3.485  -6.130  0.00  0.00    +0.045 A 
ATOM     17  CD1 PHE A   1       5.289   2.509  -5.367  0.00  0.00    +0.007 A 
BRANCH  15  18
ATOM     18  OH  PHE A   1       5.989   5.737  -6.908  0.00  0.00    -0.507 OA
ATOM     19  HH  PHE A   1       6.725   5.341  -7.405  0.00  0.00    +0.292 HD
ENDBRANCH  15  18
ENDBRANCH  11  12
ENDBRANCH   6  11
ENDBRANCH   2   6
ENDBRANCH   1   4
BRANCH   1  20
ATOM     20  N   PHE A   1       7.679  -0.131  -3.067  0.00  0.00    -0.303 N 
ATOM     21  H   PHE A   1       7.812  -1.037  -3.493  0.00  0.00    +0.149 HD
ATOM     22  C   UNK A   0       8.055   1.002  -3.724  0.00  0.00    +0.227 C 
ATOM     23  O   UNK A   0       7.798   2.121  -3.283  0.00  0.00    -0.275 OA
BRANCH  22  24
ATOM     24  C   UNK A   0       8.907   0.826  -5.012  0.00  0.00    +0.133 C 
BRANCH  24  25
ATOM     25  S   UNK A   0      10.681   0.888  -4.485  0.00  0.00    -0.165 S 
ATOM     26  H   UNK A   0      10.664   2.150  -4.017  0.00  0.00    +0.102 HD
ENDBRANCH  24  25
BRANCH  24  27
ATOM     27  C   UNK A   0       8.693  -0.449  -5.855  0.00  0.00    +0.058 C 
BRANCH  27  28
ATOM     28  C   UNK A   0       7.301  -0.624  -6.416  0.00  0.00    -0.046 A 
ATOM     29  C   UNK A   0       6.544  -1.766  -6.132  0.00  0.00    +0.004 A 
ATOM     30  C   UNK A   0       5.197  -1.841  -6.507  0.00  0.00    +0.000 A 
ATOM     31  C   UNK A   0       4.596  -0.782  -7.180  0.00  0.00    +0.000 A 
ATOM     32  C   UNK A   0       5.373   0.298  -7.579  0.00  0.00    +0.000 A 
ATOM     33  C   UNK A   0       6.728   0.358  -7.229  0.00  0.00    +0.004 A 
ENDBRANCH  27  28
ENDBRANCH  24  27
ENDBRANCH  22  24
ENDBRANCH   1  20
BRANCH   1  34
ATOM     34  CB  PHE A   1       7.331  -1.291  -0.903  0.00  0.00    +0.067 C 
BRANCH  34  35
ATOM     35  CG  PHE A   1       8.806  -1.275  -0.538  0.00  0.00    -0.045 A 
ATOM     36  CD2 PHE A   1       9.665  -2.290  -0.982  0.00  0.00    +0.004 A 
ATOM     37  CE2 PHE A   1      11.038  -2.218  -0.733  0.00  0.00    +0.000 A 
ATOM     38  CZ  PHE A   1      11.566  -1.137  -0.030  0.00  0.00    +0.000 A 
ATOM     39  CE1 PHE A   1      10.718  -0.144   0.453  0.00  0.00    +0.000 A 
ATOM     40  CD1 PHE A   1       9.345  -0.216   0.209  0.00  0.00    +0.004 A 
ENDBRANCH  34  35
ENDBRANCH   1  34
TORSDOF 14
