REMARK  Name = 
REMARK  4 active torsions:
REMARK  status: ('A' for Active; 'I' for Inactive)
REMARK    1  A    between atoms: C_1  and  C_2
REMARK    2  A    between atoms: C_5  and  N_7
REMARK    3  A    between atoms: CA_9  and  C_11
REMARK    4  A    between atoms: C_11  and  O_12
REMARK                            x       y       z     vdW  Elec       q    Type
REMARK                         _______ _______ _______ _____ _____    ______ ____
ROOT
ATOM      1  C   UNL     1       0.908   0.064  -0.043  0.00  0.00    +0.010 C 
ATOM      2  C   UNL     1       2.428   0.070  -0.010  0.00  0.00    +0.017 C 
ATOM      3  CA  UNL     1       3.025  -1.184   0.629  0.00  0.00    +0.167 C 
ATOM      4  N   UNL     1       4.297  -0.751   1.299  0.00  0.00    -0.289 NA
ATOM      5  H   UNL     1       4.212  -0.917   2.303  0.00  0.00    +0.124 HD
ATOM      6  C   UNL     1       4.400   0.685   1.126  0.00  0.00    +0.120 C 
ATOM      7  C   UNL     1       2.995   1.187   0.850  0.00  0.00    +0.039 C 
ENDROOT
BRANCH   6   8
ATOM      8  N   UNL     1       4.963   1.176   2.349  0.00  0.00    -0.315 NA
ATOM      9  H   UNL     1       5.227   2.153   2.224  0.00  0.00    +0.120 HD
ATOM     10  H   UNL     1       4.263   1.184   3.088  0.00  0.00    +0.120 HD
ENDBRANCH   6   8
BRANCH   3  11
ATOM     11  C   UNL     1       3.365  -2.244  -0.425  0.00  0.00    +0.322 C 
ATOM     12  OXT UNL     1       2.555  -2.779  -1.165  0.00  0.00    -0.249 OA
BRANCH  11  13
ATOM     13  O   UNL     1       4.695  -2.520  -0.447  0.00  0.00    -0.480 OA
ATOM     14  H   UNL     1       5.102  -1.935   0.243  0.00  0.00    +0.295 HD
ENDBRANCH  11  13
ENDBRANCH   3  11
TORSDOF 3
