REMARK  Name = 
REMARK  6 active torsions:
REMARK  status: ('A' for Active; 'I' for Inactive)
REMARK    1  A    between atoms: N_1  and  CA_2
REMARK    2  A    between atoms: CA_2  and  C_4
REMARK    3  A    between atoms: CA_2  and  C_12
REMARK    4  A    between atoms: C_4  and  C_5
REMARK    5  A    between atoms: C_9  and  O_10
REMARK    6  A    between atoms: C_12  and  O_13
REMARK                            x       y       z     vdW  Elec       q    Type
REMARK                         _______ _______ _______ _____ _____    ______ ____
ROOT
ATOM      1  C   UNL     1       2.972   0.896  -1.042  0.00  0.00    +0.065 C 
ENDROOT
BRANCH   1   2
ATOM      2  C   UNL     1       2.550   0.390  -2.402  0.00  0.00    -0.042 A 
ATOM      3  C   UNL     1       3.277  -0.627  -3.035  0.00  0.00    +0.049 A 
ATOM      4  C   UNL     1       2.863  -1.116  -4.270  0.00  0.00    +0.117 A 
ATOM      5  C   UNL     1       1.731  -0.607  -4.897  0.00  0.00    +0.045 A 
ATOM      6  C   UNL     1       1.004   0.408  -4.276  0.00  0.00    +0.004 A 
ATOM      7  C   UNL     1       1.410   0.905  -3.035  0.00  0.00    +0.004 A 
BRANCH   4   8
ATOM      8  O   UNL     1       3.600  -2.113  -4.837  0.00  0.00    -0.507 OA
ATOM      9  H   UNL     1       3.182  -2.372  -5.674  0.00  0.00    +0.292 HD
ENDBRANCH   4   8
ENDBRANCH   1   2
BRANCH   1  10
ATOM     10  CA  UNL     1       2.482   0.003   0.109  0.00  0.00    +0.165 C 
BRANCH  10  11
ATOM     11  N   UNL     1       0.987  -0.087   0.204  0.00  0.00    -0.318 NA
ATOM     12  H1  UNL     1       0.606   0.854   0.056  0.00  0.00    +0.119 HD
ATOM     13  H2  UNL     1       0.669  -0.606  -0.623  0.00  0.00    +0.119 HD
ENDBRANCH  10  11
BRANCH  10  14
ATOM     14  C   UNL     1       3.004   0.534   1.456  0.00  0.00    +0.322 C 
ATOM     15  OXT UNL     1       4.095   1.043   1.648  0.00  0.00    -0.249 OA
BRANCH  14  16
ATOM     16  O   UNL     1       2.088   0.331   2.441  0.00  0.00    -0.480 OA
ATOM     17  H   UNL     1       1.299  -0.070   1.995  0.00  0.00    +0.295 HD
ENDBRANCH  14  16
ENDBRANCH  10  14
ENDBRANCH   1  10
TORSDOF 6
