REMARK  Name = 
REMARK  9 active torsions:
REMARK  status: ('A' for Active; 'I' for Inactive)
REMARK    1  A    between atoms: C_1  and  C_2
REMARK    2  A    between atoms: C_2  and  C_3
REMARK    3  A    between atoms: C_3  and  N_4
REMARK    4  A    between atoms: C_5  and  C_7
REMARK    5  A    between atoms: C_7  and  O_9
REMARK    6  A    between atoms: C_7  and  C_10
REMARK    7  A    between atoms: C_10  and  O_12
REMARK    8  A    between atoms: C_10  and  C_13
REMARK    9  A    between atoms: C_13  and  O_14
REMARK                            x       y       z     vdW  Elec       q    Type
REMARK                         _______ _______ _______ _____ _____    ______ ____
ROOT
ATOM      1  C   UNL     1       6.707  -0.563   2.587  0.00  0.00    +0.239 C 
ENDROOT
BRANCH   1   4
ATOM      2  N   UNL     1       4.539  -0.283   1.483  0.00  0.00    -0.313 N 
ATOM      3  H   UNL     1       5.056  -0.395   0.619  0.00  0.00    +0.149 HD
ATOM      4  C   UNL     1       5.175  -0.479   2.696  0.00  0.00    +0.245 C 
ATOM      5  O   UNL     1       4.574  -0.579   3.763  0.00  0.00    -0.273 OA
BRANCH   2   6
ATOM      6  C   UNL     1       3.099  -0.126   1.397  0.00  0.00    +0.104 C 
BRANCH   6   8
ATOM      7  C   UNL     1       3.144   2.253   0.514  0.00  0.00    +0.005 C 
ATOM      8  C   UNL     1       2.656   1.321   1.613  0.00  0.00    +0.015 C 
ENDBRANCH   6   8
ENDBRANCH   2   6
ENDBRANCH   1   4
BRANCH   1   9
ATOM      9  O   UNL     1       7.190   0.674   2.066  0.00  0.00    -0.379 OA
ATOM     10  H   UNL     1       6.575   0.992   1.384  0.00  0.00    +0.211 HD
ENDBRANCH   1   9
BRANCH   1  11
ATOM     11  C   UNL     1       7.286  -0.846   3.979  0.00  0.00    +0.260 C 
BRANCH  11  12
ATOM     12  C   UNL     1       8.809  -0.999   3.939  0.00  0.00    +0.337 C 
ATOM     13  O   UNL     1       9.615  -0.134   3.634  0.00  0.00    -0.248 OA
BRANCH  12  14
ATOM     14  O   UNL     1       9.193  -2.248   4.329  0.00  0.00    -0.479 OA
ATOM     15  H   UNL     1       8.368  -2.732   4.577  0.00  0.00    +0.295 HD
ENDBRANCH  12  14
ENDBRANCH  11  12
BRANCH  11  16
ATOM     16  O   UNL     1       6.771  -2.100   4.504  0.00  0.00    -0.378 OA
ATOM     17  H   UNL     1       5.839  -1.902   4.751  0.00  0.00    +0.211 HD
ENDBRANCH  11  16
ENDBRANCH   1  11
TORSDOF 8
