REMARK  Name = 
REMARK  8 active torsions:
REMARK  status: ('A' for Active; 'I' for Inactive)
REMARK    1  A    between atoms: C_2  and  C_3
REMARK    2  A    between atoms: C_2  and  N_7
REMARK    3  A    between atoms: C_2  and  C_27
REMARK    4  A    between atoms: C_3  and  C_4
REMARK    5  A    between atoms: C_4  and  O_5
REMARK    6  A    between atoms: C_8  and  C_10
REMARK    7  A    between atoms: C_12  and  C_15
REMARK    8  A    between atoms: C_18  and  C_21
REMARK                            x       y       z     vdW  Elec       q    Type
REMARK                         _______ _______ _______ _____ _____    ______ ____
ROOT
ATOM      1  C   UNL     1       2.738  -3.770   0.469  0.00  0.00    +0.074 A 
ATOM      2  S   UNL     1       1.741  -5.075   0.963  0.00  0.00    -0.091 S 
ATOM      3  C   UNL     1       2.665  -6.211   0.086  0.00  0.00    +0.054 A 
ATOM      4  C   UNL     1       3.722  -5.640  -0.596  0.00  0.00    -0.010 A 
ATOM      5  C   UNL     1       3.739  -4.216  -0.382  0.00  0.00    +0.029 A 
ENDROOT
BRANCH   4   6
ATOM      6  C   UNL     1       4.669  -6.449  -1.375  0.00  0.00    -0.017 A 
ATOM      7  C   UNL     1       5.289  -5.930  -2.515  0.00  0.00    +0.009 A 
ATOM      8  C   UNL     1       6.247  -6.681  -3.219  0.00  0.00    +0.009 A 
ATOM      9  C   UNL     1       6.640  -7.966  -2.802  0.00  0.00    -0.018 A 
ATOM     10  C   UNL     1       5.972  -8.492  -1.684  0.00  0.00    +0.009 A 
ATOM     11  C   UNL     1       5.009  -7.750  -0.983  0.00  0.00    +0.009 A 
BRANCH   9  12
ATOM     12  C   UNL     1       7.756  -8.699  -3.453  0.00  0.00    -0.015 A 
ATOM     13  C   UNL     1       8.855  -8.015  -3.995  0.00  0.00    +0.028 A 
ATOM     14  C   UNL     1       9.923  -8.729  -4.522  0.00  0.00    +0.111 A 
ATOM     15  N   UNL     1       9.984 -10.074  -4.551  0.00  0.00    -0.263 NA
ATOM     16  C   UNL     1       8.924 -10.730  -4.040  0.00  0.00    +0.111 A 
ATOM     17  C   UNL     1       7.808 -10.102  -3.501  0.00  0.00    +0.028 A 
ENDBRANCH   9  12
ENDBRANCH   4   6
BRANCH   1  20
ATOM     18  N   UNL     1       1.490  -2.273   1.884  0.00  0.00    -0.304 N 
ATOM     19  H   UNL     1       0.785  -3.003   1.835  0.00  0.00    +0.150 HD
ATOM     20  C   UNL     1       2.525  -2.415   0.964  0.00  0.00    +0.251 C 
ATOM     21  O   UNL     1       3.240  -1.465   0.653  0.00  0.00    -0.270 OA
BRANCH  18  22
ATOM     22  C   UNL     1       1.077  -0.965   2.405  0.00  0.00    +0.114 C 
BRANCH  22  23
ATOM     23  C   UNL     1       0.044  -0.341   1.476  0.00  0.00    -0.027 A 
ATOM     24  C   UNL     1       0.336   0.858   0.806  0.00  0.00    +0.005 A 
ATOM     25  C   UNL     1      -0.603   1.444  -0.048  0.00  0.00    +0.000 A 
ATOM     26  C   UNL     1      -1.843   0.841  -0.246  0.00  0.00    +0.000 A 
ATOM     27  C   UNL     1      -2.150  -0.346   0.415  0.00  0.00    +0.000 A 
ATOM     28  C   UNL     1      -1.215  -0.933   1.269  0.00  0.00    +0.005 A 
ENDBRANCH  22  23
BRANCH  22  29
ATOM     29  C   UNL     1       0.511  -1.086   3.827  0.00  0.00    +0.147 C 
BRANCH  29  30
ATOM     30  C   UNL     1       1.486  -1.536   4.887  0.00  0.00    +0.307 C 
ATOM     31  O   UNL     1       1.395  -1.183   6.055  0.00  0.00    -0.251 OA
BRANCH  30  32
ATOM     32  O   UNL     1       2.395  -2.452   4.499  0.00  0.00    -0.481 OA
ATOM     33  H   UNL     1       2.360  -2.674   3.548  0.00  0.00    +0.295 HD
ENDBRANCH  30  32
ENDBRANCH  29  30
ENDBRANCH  22  29
ENDBRANCH  18  22
ENDBRANCH   1  20
TORSDOF 8
