REMARK  Name = 
REMARK  11 active torsions:
REMARK  status: ('A' for Active; 'I' for Inactive)
REMARK    1  A    between atoms: C_2  and  O_3
REMARK    2  A    between atoms: C_5  and  O_7
REMARK    3  A    between atoms: C_8  and  O_10
REMARK    4  A    between atoms: O_10  and  C_11
REMARK    5  A    between atoms: C_11  and  C_12
REMARK    6  A    between atoms: C_12  and  C_13
REMARK    7  A    between atoms: C_13  and  C_14
REMARK    8  A    between atoms: C_14  and  C_15
REMARK    9  A    between atoms: C_15  and  C_16
REMARK   10  A    between atoms: C_18  and  C_20
REMARK   11  A    between atoms: C_20  and  O_21
REMARK                            x       y       z     vdW  Elec       q    Type
REMARK                         _______ _______ _______ _____ _____    ______ ____
ROOT
ATOM      1  C   UNL     1       2.087  -0.039   0.054  0.00  0.00    +0.148 C 
ATOM      2  C   UNL     1       2.602   1.009  -0.954  0.00  0.00    +0.175 C 
ATOM      3  O   UNL     1       2.185   0.692  -2.293  0.00  0.00    -0.341 OA
ATOM      4  C   UNL     1       2.563  -0.608  -2.764  0.00  0.00    +0.279 C 
ATOM      5  C   UNL     1       2.037  -1.711  -1.816  0.00  0.00    +0.173 C 
ATOM      6  C   UNL     1       2.462  -1.454  -0.373  0.00  0.00    +0.070 C 
ENDROOT
BRANCH   5   7
ATOM      7  O   UNL     1       0.605  -1.784  -1.856  0.00  0.00    -0.387 OA
ATOM      8  H   UNL     1       0.266  -0.885  -2.032  0.00  0.00    +0.210 HD
ENDBRANCH   5   7
BRANCH   1   9
ATOM      9  O   UNL     1       2.584   0.215   1.369  0.00  0.00    -0.389 OA
ATOM     10  H   UNL     1       2.138  -0.411   1.969  0.00  0.00    +0.210 HD
ENDBRANCH   1   9
BRANCH   2  11
ATOM     11  C   UNL     1       4.113   1.302  -0.824  0.00  0.00    +0.190 C 
BRANCH  11  12
ATOM     12  O   UNL     1       4.446   1.864   0.443  0.00  0.00    -0.392 OA
ATOM     13  H   UNL     1       3.971   1.324   1.111  0.00  0.00    +0.210 HD
ENDBRANCH  11  12
ENDBRANCH   2  11
BRANCH   4  14
ATOM     14  O   UNL     1       3.967  -0.739  -2.930  0.00  0.00    -0.349 OA
BRANCH  14  15
ATOM     15  C   UNL     1       4.480   0.116  -3.951  0.00  0.00    +0.163 C 
BRANCH  15  16
ATOM     16  C   UNL     1       5.987  -0.101  -4.041  0.00  0.00    +0.028 C 
BRANCH  16  17
ATOM     17  C   UNL     1       6.304  -1.508  -4.545  0.00  0.00    +0.002 C 
BRANCH  17  18
ATOM     18  C   UNL     1       7.807  -1.746  -4.661  0.00  0.00    -0.000 C 
BRANCH  18  19
ATOM     19  C   UNL     1       8.085  -3.151  -5.194  0.00  0.00    -0.003 C 
ATOM     20  C   UNL     1       9.574  -3.415  -5.329  0.00  0.00    +0.004 C 
ENDBRANCH  18  19
ENDBRANCH  17  18
ENDBRANCH  16  17
ENDBRANCH  15  16
ENDBRANCH  14  15
ENDBRANCH   4  14
TORSDOF 10
