REMARK  Name = 
REMARK  12 active torsions:
REMARK  status: ('A' for Active; 'I' for Inactive)
REMARK    1  A    between atoms: C_1  and  C_2
REMARK    2  A    between atoms: C_2  and  N_3
REMARK    3  A    between atoms: C_4  and  C_6
REMARK    4  A    between atoms: C_7  and  C_8
REMARK    5  A    between atoms: C_7  and  C_9
REMARK    6  A    between atoms: C_10  and  C_11
REMARK    7  A    between atoms: C_12  and  C_13
REMARK    8  A    between atoms: C_12  and  C_14
REMARK    9  A    between atoms: C_15  and  C_16
REMARK   10  A    between atoms: C_17  and  C_18
REMARK   11  A    between atoms: C_22  and  C_23
REMARK   12  A    between atoms: C_22  and  C_24
REMARK                            x       y       z     vdW  Elec       q    Type
REMARK                         _______ _______ _______ _____ _____    ______ ____
ROOT
ATOM      1  C   UNL     1       8.722  -4.414   4.486  0.00  0.00    +0.003 C 
ATOM      2  C   UNL     1      10.049  -4.609   4.691  0.00  0.00    -0.050 C 
ATOM      3  C   UNL     1      11.149  -3.904   3.924  0.00  0.00    +0.044 C 
ENDROOT
BRANCH   1   5
ATOM      4  C   UNL     1       6.856  -3.258   3.265  0.00  0.00    +0.003 C 
ATOM      5  C   UNL     1       8.157  -3.500   3.511  0.00  0.00    +0.001 C 
BRANCH   4   7
ATOM      6  C   UNL     1       5.065  -2.122   2.025  0.00  0.00    +0.070 C 
ATOM      7  C   UNL     1       6.387  -2.296   2.244  0.00  0.00    -0.046 C 
ATOM      8  C   UNL     1       7.462  -1.531   1.498  0.00  0.00    +0.044 C 
BRANCH   6  11
ATOM      9  N   UNL     1       3.291  -0.680   1.285  0.00  0.00    -0.312 N 
ATOM     10  H   UNL     1       2.889  -0.835   2.199  0.00  0.00    +0.149 HD
ATOM     11  C   UNL     1       4.502  -1.244   0.957  0.00  0.00    +0.237 C 
ATOM     12  O   UNL     1       5.059  -1.060  -0.117  0.00  0.00    -0.271 OA
BRANCH   9  14
ATOM     13  C   UNL     1       3.049   1.692   0.672  0.00  0.00    +0.024 C 
ATOM     14  C   UNL     1       2.638   0.257   0.389  0.00  0.00    +0.101 C 
ENDBRANCH   9  14
ENDBRANCH   6  11
ENDBRANCH   4   7
ENDBRANCH   1   5
BRANCH   2  15
ATOM     15  C   UNL     1      10.495  -5.559   5.724  0.00  0.00    +0.003 C 
ATOM     16  C   UNL     1      11.776  -5.780   6.078  0.00  0.00    +0.004 C 
BRANCH  16  17
ATOM     17  C   UNL     1      12.232  -6.721   7.103  0.00  0.00    -0.043 C 
ATOM     18  C   UNL     1      13.233  -7.786   6.619  0.00  0.00    -0.010 C 
ATOM     19  C   UNL     1      12.680  -8.520   5.369  0.00  0.00    +0.016 C 
ATOM     20  C   UNL     1      14.568  -7.108   6.212  0.00  0.00    +0.016 C 
ATOM     21  C   UNL     1      13.582  -8.894   7.657  0.00  0.00    +0.011 C 
ATOM     22  C   UNL     1      13.143  -8.735   9.103  0.00  0.00    +0.005 C 
ATOM     23  C   UNL     1      12.298  -7.534   9.481  0.00  0.00    +0.031 C 
ATOM     24  C   UNL     1      11.858  -6.596   8.394  0.00  0.00    -0.069 C 
ATOM     25  C   UNL     1      10.996  -5.476   8.941  0.00  0.00    +0.039 C 
ENDBRANCH  16  17
ENDBRANCH   2  15
TORSDOF 6
