REMARK  Name = 
REMARK  9 active torsions:
REMARK  status: ('A' for Active; 'I' for Inactive)
REMARK    1  A    between atoms: C_1  and  C_2
REMARK    2  A    between atoms: C_2  and  C_3
REMARK    3  A    between atoms: C_2  and  C_4
REMARK    4  A    between atoms: C_6  and  O_7
REMARK    5  A    between atoms: O_7  and  C_8
REMARK    6  A    between atoms: C_12  and  C_13
REMARK    7  A    between atoms: C_13  and  C_14
REMARK    8  A    between atoms: C_14  and  O_15
REMARK    9  A    between atoms: C_22  and  O_23
REMARK                            x       y       z     vdW  Elec       q    Type
REMARK                         _______ _______ _______ _____ _____    ______ ____
ROOT
ATOM      1  C   UNL     1       2.261   6.050   1.281  0.00  0.00    +0.165 A 
ATOM      2  C   UNL     1       1.857   7.103   0.436  0.00  0.00    +0.085 A 
ATOM      3 CL   UNL     1       0.955   6.794  -1.012  0.00  0.00    -0.080 Cl
ATOM      4  C   UNL     1       2.081   8.454   0.776  0.00  0.00    +0.028 A 
ATOM      5  C   UNL     1       2.747   8.787   1.961  0.00  0.00    -0.034 A 
ATOM      6  C   UNL     1       3.157   7.743   2.797  0.00  0.00    +0.028 A 
ATOM      7  C   UNL     1       2.814   6.409   2.518  0.00  0.00    +0.085 A 
ATOM      8 CL   UNL     1       2.901   5.337   3.880  0.00  0.00    -0.080 Cl
ENDROOT
BRANCH   1   9
ATOM      9  O   UNL     1       1.943   4.770   0.871  0.00  0.00    -0.453 OA
BRANCH   9  14
ATOM     10  C   UNL     1       2.942   1.235   0.894  0.00  0.00    +0.000 A 
ATOM     11  C   UNL     1       4.174   1.304   1.554  0.00  0.00    +0.120 A 
ATOM     12  C   UNL     1       4.745   2.532   1.871  0.00  0.00    +0.049 A 
ATOM     13  C   UNL     1       4.082   3.716   1.542  0.00  0.00    +0.050 A 
ATOM     14  C   UNL     1       2.775   3.683   1.061  0.00  0.00    +0.129 A 
ATOM     15  C   UNL     1       2.227   2.439   0.705  0.00  0.00    +0.053 A 
BRANCH  10  17
ATOM     16  C   UNL     1       1.068  -0.505   0.722  0.00  0.00    +0.012 C 
ATOM     17  C   UNL     1       2.468  -0.078   0.287  0.00  0.00    +0.017 C 
ATOM     18  C   UNL     1       2.569   0.009  -1.241  0.00  0.00    +0.012 C 
ENDBRANCH  10  17
BRANCH  11  19
ATOM     19  O   UNL     1       4.842   0.152   1.858  0.00  0.00    -0.506 OA
ATOM     20  H   UNL     1       5.640   0.373   2.364  0.00  0.00    +0.292 HD
ENDBRANCH  11  19
ENDBRANCH   9  14
ENDBRANCH   1   9
BRANCH   5  21
ATOM     21  C   UNL     1       2.845  10.213   2.462  0.00  0.00    +0.155 C 
BRANCH  21  22
ATOM     22  C   UNL     1       4.067  11.046   2.148  0.00  0.00    +0.309 C 
ATOM     23  O   UNL     1       4.285  12.102   2.714  0.00  0.00    -0.251 OA
BRANCH  22  24
ATOM     24  O   UNL     1       4.884  10.604   1.172  0.00  0.00    -0.480 OA
ATOM     25  H   UNL     1       4.608   9.763   0.769  0.00  0.00    +0.295 HD
ENDBRANCH  22  24
ENDBRANCH  21  22
ENDBRANCH   5  21
TORSDOF 7
