REMARK  Name = 
REMARK  4 active torsions:
REMARK  status: ('A' for Active; 'I' for Inactive)
REMARK    1  A    between atoms: C_2  and  C_6
REMARK    2  A    between atoms: C_11  and  C_15
REMARK    3  A    between atoms: C_17  and  O_18
REMARK    4  A    between atoms: O_18  and  C_19
REMARK                            x       y       z     vdW  Elec       q    Type
REMARK                         _______ _______ _______ _____ _____    ______ ____
ROOT
ATOM      1  C   UNL     1       3.150  -0.821   1.200  0.00  0.00    +0.063 A 
ATOM      2  C   UNL     1       3.932  -0.212   2.200  0.00  0.00    +0.045 A 
ATOM      3  C   UNL     1       4.532  -1.011   3.181  0.00  0.00    +0.090 A 
ATOM      4  C   UNL     1       4.341  -2.383   3.147  0.00  0.00    +0.067 A 
ATOM      5  N   UNL     1       5.045  -2.829   4.226  0.00  0.00    -0.338 N 
ATOM      6  H   UNL     1       5.200  -3.780   4.571  0.00  0.00    +0.167 HD
ATOM      7  C   UNL     1       5.645  -1.760   4.850  0.00  0.00    +0.139 A 
ATOM      8  C   UNL     1       3.582  -3.035   2.182  0.00  0.00    +0.028 A 
ATOM      9  N   UNL     1       5.327  -0.633   4.228  0.00  0.00    -0.228 NA
ATOM     10  C   UNL     1       2.994  -2.222   1.205  0.00  0.00    +0.018 A 
ENDROOT
BRANCH   1  14
ATOM     11  N   UNL     1       3.098   1.082  -0.288  0.00  0.00    -0.250 N 
ATOM     12  H   UNL     1       4.031   1.318   0.038  0.00  0.00    +0.288 HD
ATOM     13  H   UNL     1       2.676   1.696  -0.970  0.00  0.00    +0.288 HD
ATOM     14  C   UNL     1       2.495   0.007   0.175  0.00  0.00    +0.266 C 
ATOM     15  N   UNL     1       1.300  -0.327  -0.266  0.00  0.00    -0.288 N 
ATOM     16  H   UNL     1       0.809   0.207  -0.968  0.00  0.00    +0.301 HD
ATOM     17  H   UNL     1       0.827  -1.135   0.126  0.00  0.00    +0.301 HD
ENDBRANCH   1  14
BRANCH   7  18
ATOM     18  C   UNL     1       6.529  -1.955   6.016  0.00  0.00    +0.013 A 
ATOM     19  C   UNL     1       6.807  -3.266   6.530  0.00  0.00    -0.097 A 
ATOM     20  O   UNL     1       6.309  -4.356   6.072  0.00  0.00    -0.873 OA
ATOM     21  C   UNL     1       7.697  -3.290   7.621  0.00  0.00    -0.004 A 
ATOM     22  C   UNL     1       8.295  -2.142   8.157  0.00  0.00    +0.045 A 
ATOM     23  C   UNL     1       8.023  -0.890   7.621  0.00  0.00    +0.131 A 
ATOM     24  C   UNL     1       7.107  -0.797   6.583  0.00  0.00    +0.057 A 
BRANCH  23  25
ATOM     25  O   UNL     1       8.648   0.155   8.226  0.00  0.00    -0.406 OA
BRANCH  25  26
ATOM     26  C   UNL     1       9.037   1.273   7.444  0.00  0.00    +0.575 C 
ATOM     27  F   UNL     1      10.376   1.440   7.563  0.00  0.00    -0.133 F 
ATOM     28  F   UNL     1       8.445   2.386   7.939  0.00  0.00    -0.133 F 
ATOM     29  F   UNL     1       8.753   1.192   6.128  0.00  0.00    -0.133 F 
ENDBRANCH  25  26
ENDBRANCH  23  25
ENDBRANCH   7  18
TORSDOF 4
