REMARK  Name = 
REMARK  6 active torsions:
REMARK  status: ('A' for Active; 'I' for Inactive)
REMARK    1  A    between atoms: C_1  and  O_2
REMARK    2  A    between atoms: O_2  and  C_3
REMARK    3  A    between atoms: C_5  and  O_7
REMARK    4  A    between atoms: C_9  and  C_11
REMARK    5  A    between atoms: C_12  and  O_14
REMARK    6  A    between atoms: C_15  and  O_17
REMARK                            x       y       z     vdW  Elec       q    Type
REMARK                         _______ _______ _______ _____ _____    ______ ____
ROOT
ATOM      1  C   UNL     1       2.809  -1.124  -0.582  0.00  0.00    +0.204 C 
ATOM      2  C   UNL     1       1.962  -2.399  -0.667  0.00  0.00    +0.179 C 
ATOM      3  C   UNL     1       1.641  -2.928   0.734  0.00  0.00    +0.174 C 
ATOM      4  C   UNL     1       2.942  -3.111   1.542  0.00  0.00    +0.149 C 
ATOM      5  C   UNL     1       2.633  -3.411   3.007  0.00  0.00    +0.041 C 
ATOM      6  O   UNL     1       3.767  -1.944   1.520  0.00  0.00    -0.343 OA
ATOM      7  C   UNL     1       4.085  -1.499   0.202  0.00  0.00    +0.279 C 
ENDROOT
BRANCH   1   9
ATOM      8  C   UNL     1       1.023   0.491  -0.461  0.00  0.00    +0.194 C 
ATOM      9  O   UNL     1       2.191  -0.038   0.150  0.00  0.00    -0.372 OA
ENDBRANCH   1   9
BRANCH   2  10
ATOM     10  O   UNL     1       0.757  -2.208  -1.413  0.00  0.00    -0.386 OA
ATOM     11  H   UNL     1       0.214  -3.000  -1.229  0.00  0.00    +0.210 HD
ENDBRANCH   2  10
BRANCH   3  12
ATOM     12  O   UNL     1       0.936  -4.169   0.570  0.00  0.00    -0.387 OA
ATOM     13  H   UNL     1       0.643  -4.461   1.452  0.00  0.00    +0.210 HD
ENDBRANCH   3  12
BRANCH   7  14
ATOM     14  O   UNL     1       4.933  -0.365   0.315  0.00  0.00    -0.365 OA
ATOM     15  H   UNL     1       4.322   0.352   0.572  0.00  0.00    +0.213 HD
ENDBRANCH   7  14
TORSDOF 4
