REMARK  Name = 
REMARK  9 active torsions:
REMARK  status: ('A' for Active; 'I' for Inactive)
REMARK    1  A    between atoms: C_2  and  C_4
REMARK    2  A    between atoms: N_8  and  C_10
REMARK    3  A    between atoms: C_13  and  C_15
REMARK    4  A    between atoms: C_15  and  O_16
REMARK    5  A    between atoms: O_16  and  P_17
REMARK    6  A    between atoms: P_17  and  O_18
REMARK    7  A    between atoms: P_17  and  O_19
REMARK    8  A    between atoms: C_21  and  O_23
REMARK    9  A    between atoms: C_24  and  O_26
REMARK                            x       y       z     vdW  Elec       q    Type
REMARK                         _______ _______ _______ _____ _____    ______ ____
ROOT
ATOM      1  C   UNL     1       2.315  -5.242  -0.015  0.00  0.00    +0.439 C 
ATOM      2  C   UNL     1       1.343  -5.023   1.145  0.00  0.00    +0.244 C 
ATOM      3  C   UNL     1       1.029  -6.424   1.684  0.00  0.00    +0.183 C 
ATOM      4  C   UNL     1       1.762  -7.362   0.732  0.00  0.00    +0.183 C 
ATOM      5  O   UNL     1       2.812  -6.575   0.134  0.00  0.00    -0.309 OA
ENDROOT
BRANCH   1   8
ATOM      6  C   UNL     1       1.492  -5.787  -3.657  0.00  0.00    +0.100 A 
ATOM      7  C   UNL     1       1.882  -5.992  -2.335  0.00  0.00    +0.324 A 
ATOM      8  N   UNL     1       1.724  -5.037  -1.379  0.00  0.00    -0.173 N 
ATOM      9  C   UNL     1       1.195  -3.834  -1.717  0.00  0.00    +0.311 A 
ATOM     10  C   UNL     1       0.782  -3.586  -3.024  0.00  0.00    +0.071 A 
ATOM     11  C   UNL     1       0.933  -4.562  -4.006  0.00  0.00    +0.025 A 
BRANCH   6  15
ATOM     12  N   UNL     1       1.418  -6.780  -5.899  0.00  0.00    -0.325 N 
ATOM     13  H   UNL     1       0.954  -5.996  -6.333  0.00  0.00    +0.145 HD
ATOM     14  H   UNL     1       1.619  -7.576  -6.496  0.00  0.00    +0.145 HD
ATOM     15  C   UNL     1       1.757  -6.903  -4.587  0.00  0.00    +0.247 C 
ATOM     16  O   UNL     1       2.291  -7.929  -4.164  0.00  0.00    -0.270 OA
ENDBRANCH   6  15
ENDBRANCH   1   8
BRANCH   2  17
ATOM     17  O   UNL     1       1.972  -4.206   2.153  0.00  0.00    -0.380 OA
ATOM     18  H   UNL     1       2.532  -4.751   2.743  0.00  0.00    +0.210 HD
ENDBRANCH   2  17
BRANCH   3  19
ATOM     19  O   UNL     1      -0.374  -6.637   1.624  0.00  0.00    -0.386 OA
ATOM     20  H   UNL     1      -0.572  -7.503   2.034  0.00  0.00    +0.210 HD
ENDBRANCH   3  19
BRANCH   4  21
ATOM     21  C   UNL     1       2.427  -8.550   1.390  0.00  0.00    +0.206 C 
BRANCH  21  22
ATOM     22  O   UNL     1       1.519  -9.469   1.987  0.00  0.00    -0.284 OA
BRANCH  22  23
ATOM     23  P   UNL     1       2.406 -10.822   2.599  0.00  0.00    +0.472 P 
ATOM     24  O   UNL     1       3.200 -12.033   3.147  0.00  0.00    -0.228 OA
BRANCH  23  25
ATOM     25  O   UNL     1       2.474 -11.365   1.060  0.00  0.00    -0.303 OA
ATOM     26  H   UNL     1       2.971 -12.207   1.074  0.00  0.00    +0.222 HD
ENDBRANCH  23  25
BRANCH  23  27
ATOM     27  O   UNL     1       0.955 -11.439   3.016  0.00  0.00    -0.303 OA
ATOM     28  H   UNL     1       0.799 -11.363   3.975  0.00  0.00    +0.222 HD
ENDBRANCH  23  27
ENDBRANCH  22  23
ENDBRANCH  21  22
ENDBRANCH   4  21
TORSDOF 9
