REMARK  Name = 
REMARK  0 active torsions:
REMARK  status: ('A' for Active; 'I' for Inactive)
REMARK                            x       y       z     vdW  Elec       q    Type
REMARK                         _______ _______ _______ _____ _____    ______ ____
ROOT
ATOM      1  N   UNL     1       1.115  -0.080   0.138  0.00  0.00    -0.341 N 
ATOM      2  H   UNL     1       0.636   0.648  -0.370  0.00  0.00    +0.144 HD
ATOM      3  H   UNL     1       0.808  -1.023  -0.076  0.00  0.00    +0.144 HD
ATOM      4  C   UNL     1       2.499  -0.025   0.076  0.00  0.00    +0.144 A 
ATOM      5  C   UNL     1       3.226   1.153   0.046  0.00  0.00    +0.105 A 
ATOM      6  C   UNL     1       4.610   1.115  -0.027  0.00  0.00    +0.094 A 
ATOM      7  C   UNL     1       5.078   2.450  -0.034  0.00  0.00    +0.047 A 
ATOM      8  C   UNL     1       3.974   3.274   0.040  0.00  0.00    +0.085 A 
ATOM      9  N   UNL     1       5.309  -0.038  -0.077  0.00  0.00    -0.234 NA
ATOM     10  C   UNL     1       4.524  -1.125  -0.040  0.00  0.00    +0.224 A 
ATOM     11  N   UNL     1       2.859   2.475   0.098  0.00  0.00    -0.357 N 
ATOM     12  H   UNL     1       1.906   2.802   0.183  0.00  0.00    +0.165 HD
ATOM     13  N   UNL     1       3.179  -1.181   0.029  0.00  0.00    -0.219 NA
ENDROOT
TORSDOF 0
