REMARK  Name = 
REMARK  10 active torsions:
REMARK  status: ('A' for Active; 'I' for Inactive)
REMARK    1  A    between atoms: C_2  and  C_3
REMARK    2  A    between atoms: C_4  and  N_5
REMARK    3  A    between atoms: N_5  and  CA_6
REMARK    4  A    between atoms: CA_6  and  C_8
REMARK    5  A    between atoms: CA_6  and  C_11
REMARK    6  A    between atoms: C_8  and  O_9
REMARK    7  A    between atoms: C_11  and  C_12
REMARK    8  A    between atoms: C_11  and  C_13
REMARK    9  A    between atoms: C_11  and  S_19
REMARK   10  A    between atoms: C_13  and  N_14
REMARK                            x       y       z     vdW  Elec       q    Type
REMARK                         _______ _______ _______ _____ _____    ______ ____
ROOT
ATOM      1  CA  UNL     1       6.811  -2.733   4.033  0.00  0.00    +0.210 C 
ENDROOT
BRANCH   1   2
ATOM      2  N   UNL     1       7.227  -1.384   4.479  0.00  0.00    -0.335 N 
ATOM      3  H   UNL     1       6.876  -0.592   3.953  0.00  0.00    +0.146 HD
BRANCH   2   5
ATOM      4  C   UNL     1       8.870  -1.919   6.208  0.00  0.00    +0.057 C 
ATOM      5  C   UNL     1       8.080  -1.094   5.521  0.00  0.00    +0.071 C 
BRANCH   4   7
ATOM      6  O   UNL     1      10.402  -2.152   8.000  0.00  0.00    -0.296 OA
ATOM      7  C   UNL     1       9.690  -1.415   7.327  0.00  0.00    +0.252 C 
ENDBRANCH   4   7
ENDBRANCH   2   5
ENDBRANCH   1   2
BRANCH   1   8
ATOM      8  C   UNL     1       7.106  -3.013   2.523  0.00  0.00    +0.155 C 
ATOM      9  C   UNL     1       6.721  -1.891   1.534  0.00  0.00    +0.042 C 
BRANCH   8  10
ATOM     10  S   UNL     1       9.020  -3.178   2.327  0.00  0.00    +0.097 S 
ATOM     11  O   UNL     1       9.486  -1.751   2.464  0.00  0.00    -0.152 OA
ATOM     12  O   UNL     1       9.112  -3.729   0.924  0.00  0.00    -0.152 OA
ENDBRANCH   8  10
BRANCH   8  13
ATOM     13  C   UNL     1       6.549  -4.383   2.033  0.00  0.00    +0.178 C 
BRANCH  13  14
ATOM     14  N   UNL     1       6.928  -5.555   2.796  0.00  0.00    -0.249 N 
ATOM     15  N   UNL     1       6.164  -5.979   3.820  0.00  0.00    -0.066 NA
ATOM     16  N   UNL     1       6.721  -7.080   4.306  0.00  0.00    -0.138 NA
ATOM     17  C   UNL     1       7.825  -7.359   3.554  0.00  0.00    +0.156 A 
ATOM     18  C   UNL     1       7.952  -6.424   2.563  0.00  0.00    +0.130 A 
ENDBRANCH  13  14
ENDBRANCH   8  13
ENDBRANCH   1   8
BRANCH   1  19
ATOM     19  C   UNL     1       5.348  -2.914   4.555  0.00  0.00    +0.327 C 
ATOM     20  OXT UNL     1       5.073  -3.062   5.744  0.00  0.00    -0.249 OA
BRANCH  19  21
ATOM     21  O   UNL     1       4.340  -2.759   3.666  0.00  0.00    -0.479 OA
ATOM     22  H   UNL     1       4.603  -2.553   2.760  0.00  0.00    +0.295 HD
ENDBRANCH  19  21
ENDBRANCH   1  19
TORSDOF 9
