REMARK  Name = 
REMARK  32 active torsions:
REMARK  status: ('A' for Active; 'I' for Inactive)
REMARK    1  A    between atoms: C_1  and  C_2
REMARK    2  A    between atoms: C_2  and  C_3
REMARK    3  A    between atoms: C_2  and  C_4
REMARK    4  A    between atoms: C_2  and  C_40
REMARK    5  A    between atoms: C_4  and  O_5
REMARK    6  A    between atoms: O_5  and  P_6
REMARK    7  A    between atoms: P_6  and  O_7
REMARK    8  A    between atoms: P_6  and  O_9
REMARK    9  A    between atoms: O_9  and  P_10
REMARK   10  A    between atoms: P_10  and  O_11
REMARK   11  A    between atoms: P_10  and  O_13
REMARK   12  A    between atoms: O_13  and  C_14
REMARK   13  A    between atoms: C_14  and  C_15
REMARK   14  A    between atoms: C_18  and  N_30
REMARK   15  A    between atoms: C_20  and  O_22
REMARK   16  A    between atoms: C_23  and  O_25
REMARK   17  A    between atoms: O_25  and  P_26
REMARK   18  A    between atoms: P_26  and  O_27
REMARK   19  A    between atoms: P_26  and  O_28
REMARK   20  A    between atoms: C_40  and  O_42
REMARK   21  A    between atoms: C_40  and  C_43
REMARK   22  A    between atoms: N_45  and  C_46
REMARK   23  A    between atoms: C_46  and  C_47
REMARK   24  A    between atoms: C_47  and  C_48
REMARK   25  A    between atoms: N_50  and  C_51
REMARK   26  A    between atoms: C_51  and  C_52
REMARK   27  A    between atoms: C_52  and  S_53
REMARK   28  A    between atoms: S_53  and  C_54
REMARK   29  A    between atoms: C_54  and  C_56
REMARK   30  A    between atoms: C_56  and  C_57
REMARK   31  A    between atoms: C_57  and  C_58
REMARK   32  A    between atoms: C_58  and  O_59
REMARK                            x       y       z     vdW  Elec       q    Type
REMARK                         _______ _______ _______ _____ _____    ______ ____
ROOT
ATOM      1  P   UNL     1       5.523  -0.092 -13.439  0.00  0.00    +0.483 P 
ATOM      2  O   UNL     1       4.528  -1.204 -13.784  0.00  0.00    -0.227 OA
ENDROOT
BRANCH   1   3
ATOM      3  O   UNL     1       4.202   0.798 -12.763  0.00  0.00    -0.302 OA
ATOM      4  H   UNL     1       3.418   0.409 -13.200  0.00  0.00    +0.222 HD
ENDBRANCH   1   3
BRANCH   1   5
ATOM      5  O   UNL     1       6.844  -0.981 -14.115  0.00  0.00    -0.186 OA
BRANCH   5   6
ATOM      6  P   UNL     1       7.061  -0.524 -15.769  0.00  0.00    +0.483 P 
ATOM      7  O   UNL     1       6.123   0.681 -15.649  0.00  0.00    -0.227 OA
BRANCH   6   8
ATOM      8  O   UNL     1       6.146  -1.782 -16.250  0.00  0.00    -0.302 OA
ATOM      9  H   UNL     1       5.196  -1.564 -16.195  0.00  0.00    +0.222 HD
ENDBRANCH   6   8
BRANCH   6  10
ATOM     10  O   UNL     1       7.278  -0.066 -17.423  0.00  0.00    -0.284 OA
BRANCH  10  11
ATOM     11  C   UNL     1       8.326   0.891 -17.527  0.00  0.00    +0.206 C 
BRANCH  11  12
ATOM     12  C   UNL     1       8.461   1.338 -18.977  0.00  0.00    +0.179 C 
ATOM     13  C   UNL     1       9.537   2.409 -19.113  0.00  0.00    +0.194 C 
ATOM     14  C   UNL     1      10.804   1.633 -19.470  0.00  0.00    +0.196 C 
ATOM     15  C   UNL     1      10.331   0.187 -19.680  0.00  0.00    +0.253 C 
ATOM     16  O   UNL     1       8.903   0.234 -19.788  0.00  0.00    -0.346 OA
BRANCH  15  17
ATOM     17  N   UNL     1      10.878  -0.522 -20.816  0.00  0.00    -0.286 N 
ATOM     18  C   UNL     1      12.206  -0.585 -21.145  0.00  0.00    +0.167 A 
ATOM     19  N   UNL     1      13.209   0.176 -20.668  0.00  0.00    -0.216 NA
ATOM     20  C   UNL     1      14.389  -0.211 -21.203  0.00  0.00    +0.225 A 
ATOM     21  N   UNL     1      14.635  -1.240 -22.046  0.00  0.00    -0.219 NA
ATOM     22  C   UNL     1      13.593  -2.003 -22.448  0.00  0.00    +0.147 A 
ATOM     23  N   UNL     1      13.858  -3.113 -23.234  0.00  0.00    -0.341 N 
ATOM     24  H   UNL     1      13.059  -3.474 -23.741  0.00  0.00    +0.144 HD
ATOM     25  H   UNL     1      14.758  -3.084 -23.692  0.00  0.00    +0.144 HD
ATOM     26  C   UNL     1      12.300  -1.647 -22.032  0.00  0.00    +0.147 A 
ATOM     27  N   UNL     1      11.056  -2.175 -22.301  0.00  0.00    -0.231 NA
ATOM     28  C   UNL     1      10.222  -1.484 -21.557  0.00  0.00    +0.203 A 
ENDBRANCH  15  17
BRANCH  14  29
ATOM     29  O   UNL     1      11.735   1.696 -18.380  0.00  0.00    -0.385 OA
ATOM     30  H   UNL     1      12.571   1.311 -18.719  0.00  0.00    +0.210 HD
ENDBRANCH  14  29
BRANCH  13  31
ATOM     31  O   UNL     1       9.222   3.276 -20.204  0.00  0.00    -0.278 OA
BRANCH  31  32
ATOM     32  P   UNL     1       8.209   4.476 -19.900  0.00  0.00    +0.473 P 
ATOM     33  O   UNL     1       6.870   4.125 -19.359  0.00  0.00    -0.228 OA
BRANCH  32  34
ATOM     34  O   UNL     1       8.160   5.250 -21.294  0.00  0.00    -0.303 OA
ATOM     35  H   UNL     1       7.568   4.791 -21.922  0.00  0.00    +0.222 HD
ENDBRANCH  32  34
BRANCH  32  36
ATOM     36  O   UNL     1       9.064   5.494 -19.032  0.00  0.00    -0.303 OA
ATOM     37  H   UNL     1       9.649   6.017 -19.607  0.00  0.00    +0.222 HD
ENDBRANCH  32  36
ENDBRANCH  31  32
ENDBRANCH  13  31
ENDBRANCH  11  12
ENDBRANCH  10  11
ENDBRANCH   6  10
ENDBRANCH   5   6
ENDBRANCH   1   5
BRANCH   1  38
ATOM     38  O   UNL     1       6.133  -0.345 -11.942  0.00  0.00    -0.286 OA
BRANCH  38  39
ATOM     39  C   UNL     1       6.570   0.785 -11.190  0.00  0.00    +0.181 C 
BRANCH  39  41
ATOM     40  C   UNL     1       8.967   0.619 -11.993  0.00  0.00    +0.016 C 
ATOM     41  C   UNL     1       7.771   1.581 -11.788  0.00  0.00    +0.024 C 
ATOM     42  C   UNL     1       7.458   2.199 -13.168  0.00  0.00    +0.016 C 
BRANCH  41  43
ATOM     43  C   UNL     1       8.127   2.774 -10.846  0.00  0.00    +0.208 C 
BRANCH  43  44
ATOM     44  C   UNL     1       8.597   2.311  -9.454  0.00  0.00    +0.242 C 
ATOM     45  N   UNL     1       9.941   2.038  -9.372  0.00  0.00    -0.313 N 
ATOM     46  H   UNL     1      10.561   2.414 -10.083  0.00  0.00    +0.149 HD
ATOM     47  O   UNL     1       7.834   2.158  -8.503  0.00  0.00    -0.273 OA
BRANCH  45  48
ATOM     48  C   UNL     1      10.529   1.603  -8.119  0.00  0.00    +0.113 C 
BRANCH  48  49
ATOM     49  C   UNL     1      11.742   0.716  -8.333  0.00  0.00    +0.114 C 
BRANCH  49  50
ATOM     50  C   UNL     1      12.847   1.504  -8.993  0.00  0.00    +0.215 C 
ATOM     51  N   UNL     1      13.656   2.194  -8.119  0.00  0.00    -0.314 N 
ATOM     52  H   UNL     1      13.636   1.955  -7.135  0.00  0.00    +0.149 HD
ATOM     53  O   UNL     1      12.950   1.576 -10.215  0.00  0.00    -0.276 OA
BRANCH  51  54
ATOM     54  C   UNL     1      14.805   2.933  -8.618  0.00  0.00    +0.115 C 
BRANCH  54  55
ATOM     55  C   UNL     1      15.605   3.630  -7.518  0.00  0.00    +0.096 C 
BRANCH  55  56
ATOM     56  S   UNL     1      16.310   2.404  -6.362  0.00  0.00    -0.087 S 
BRANCH  56  57
ATOM     57  C   UNL     1      17.149   3.490  -5.259  0.00  0.00    +0.190 C 
ATOM     58  O   UNL     1      17.094   4.707  -5.373  0.00  0.00    -0.285 OA
BRANCH  57  59
ATOM     59  C   UNL     1      17.882   2.803  -4.126  0.00  0.00    +0.097 C 
BRANCH  59  60
ATOM     60  C   UNL     1      19.278   2.343  -4.507  0.00  0.00    +0.129 C 
BRANCH  60  61
ATOM     61  C   UNL     1      20.176   3.498  -4.863  0.00  0.00    +0.305 C 
ATOM     62  O   UNL     1      20.292   3.928  -6.000  0.00  0.00    -0.251 OA
BRANCH  61  63
ATOM     63  O   UNL     1      20.839   4.024  -3.813  0.00  0.00    -0.481 OA
ATOM     64  H   UNL     1      20.679   3.592  -2.954  0.00  0.00    +0.295 HD
ENDBRANCH  61  63
ENDBRANCH  60  61
ENDBRANCH  59  60
ENDBRANCH  57  59
ENDBRANCH  56  57
ENDBRANCH  55  56
ENDBRANCH  54  55
ENDBRANCH  51  54
ENDBRANCH  49  50
ENDBRANCH  48  49
ENDBRANCH  45  48
ENDBRANCH  43  44
BRANCH  43  65
ATOM     65  O   UNL     1       7.022   3.668 -10.698  0.00  0.00    -0.382 OA
ATOM     66  H   UNL     1       6.691   3.941 -11.568  0.00  0.00    +0.210 HD
ENDBRANCH  43  65
ENDBRANCH  41  43
ENDBRANCH  39  41
ENDBRANCH  38  39
ENDBRANCH   1  38
TORSDOF 30
