REMARK  Name = 
REMARK  5 active torsions:
REMARK  status: ('A' for Active; 'I' for Inactive)
REMARK    1  A    between atoms: N_1  and  CA_2
REMARK    2  A    between atoms: CA_2  and  C_4
REMARK    3  A    between atoms: CA_2  and  C_7
REMARK    4  A    between atoms: C_4  and  O_5
REMARK    5  A    between atoms: C_11  and  O_12
REMARK                            x       y       z     vdW  Elec       q    Type
REMARK                         _______ _______ _______ _____ _____    ______ ____
ROOT
ATOM      1  C   UNL     1       2.868  -0.328   1.515  0.00  0.00    -0.018 A 
ATOM      2  C   UNL     1       2.882  -1.693   1.861  0.00  0.00    +0.009 A 
ATOM      3  C   UNL     1       3.386  -2.117   3.094  0.00  0.00    +0.047 A 
ATOM      4  C   UNL     1       3.883  -1.183   3.993  0.00  0.00    +0.135 A 
ATOM      5  C   UNL     1       3.843   0.177   3.689  0.00  0.00    +0.083 A 
ATOM      6 CL   UNL     1       4.451   1.340   4.806  0.00  0.00    -0.080 Cl
ATOM      7  C   UNL     1       3.325   0.605   2.464  0.00  0.00    +0.029 A 
ENDROOT
BRANCH   4   8
ATOM      8  O   UNL     1       4.420  -1.653   5.159  0.00  0.00    -0.505 OA
ATOM      9  H   UNL     1       4.814  -0.891   5.624  0.00  0.00    +0.292 HD
ENDBRANCH   4   8
BRANCH   1  10
ATOM     10  CA  UNL     1       2.395   0.085   0.127  0.00  0.00    +0.191 C 
BRANCH  10  11
ATOM     11  N   UNL     1       3.148   1.253  -0.387  0.00  0.00    -0.315 NA
ATOM     12  H1  UNL     1       2.858   1.384  -1.361  0.00  0.00    +0.119 HD
ATOM     13  H2  UNL     1       2.806   2.094   0.078  0.00  0.00    +0.119 HD
ENDBRANCH  10  11
BRANCH  10  14
ATOM     14  C   UNL     1       0.878   0.346  -0.038  0.00  0.00    +0.326 C 
ATOM     15  OXT UNL     1       0.403   0.770  -1.088  0.00  0.00    -0.249 OA
BRANCH  14  16
ATOM     16  O   UNL     1       0.093   0.104   1.032  0.00  0.00    -0.479 OA
ATOM     17  H   UNL     1       0.556  -0.197   1.836  0.00  0.00    +0.295 HD
ENDBRANCH  14  16
ENDBRANCH  10  14
ENDBRANCH   1  10
TORSDOF 5
