REMARK  Name = 
REMARK  4 active torsions:
REMARK  status: ('A' for Active; 'I' for Inactive)
REMARK    1  A    between atoms: O_1  and  C_2
REMARK    2  A    between atoms: C_6  and  C_11
REMARK    3  A    between atoms: C_8  and  O_10
REMARK    4  A    between atoms: C_11  and  O_12
REMARK                            x       y       z     vdW  Elec       q    Type
REMARK                         _______ _______ _______ _____ _____    ______ ____
ROOT
ATOM      1  C   UNL     1       2.274   0.009   0.023  0.00  0.00    +0.184 C 
ATOM      2  C   UNL     1       2.777  -1.335  -0.523  0.00  0.00    +0.173 C 
ATOM      3  C   UNL     1       3.536  -1.245  -1.793  0.00  0.00    +0.059 C 
ATOM      4  C   UNL     1       3.976  -0.092  -2.304  0.00  0.00    +0.203 C 
ATOM      5  O   UNL     1       3.802   1.132  -1.707  0.00  0.00    -0.483 OA
ATOM      6  C   UNL     1       2.767   1.255  -0.731  0.00  0.00    +0.263 C 
ENDROOT
BRANCH   1   7
ATOM      7  O   UNL     1       0.833   0.014  -0.008  0.00  0.00    -0.386 OA
ATOM      8  H   UNL     1       0.521   0.753   0.543  0.00  0.00    +0.210 HD
ENDBRANCH   1   7
BRANCH   2   9
ATOM      9  O   UNL     1       3.625  -1.969   0.439  0.00  0.00    -0.385 OA
ATOM     10  H   UNL     1       4.456  -1.468   0.486  0.00  0.00    +0.210 HD
ENDBRANCH   2   9
BRANCH   4  11
ATOM     11  C   UNL     1       4.753  -0.130  -3.581  0.00  0.00    +0.372 C 
ATOM     12  O   UNL     1       5.058  -1.137  -4.197  0.00  0.00    -0.242 OA
BRANCH  11  13
ATOM     13  O   UNL     1       5.076   1.122  -3.982  0.00  0.00    -0.475 OA
ATOM     14  H   UNL     1       4.728   1.782  -3.345  0.00  0.00    +0.296 HD
ENDBRANCH  11  13
ENDBRANCH   4  11
TORSDOF 4
