REMARK  Name = 
REMARK  12 active torsions:
REMARK  status: ('A' for Active; 'I' for Inactive)
REMARK    1  A    between atoms: C_1  and  C_2
REMARK    2  A    between atoms: N_4  and  C_5
REMARK    3  A    between atoms: C_5  and  C_7
REMARK    4  A    between atoms: C_5  and  C_19
REMARK    5  A    between atoms: C_7  and  C_8
REMARK    6  A    between atoms: C_11  and  C_12
REMARK    7  A    between atoms: C_12  and  O_13
REMARK    8  A    between atoms: C_15  and  C_16
REMARK    9  A    between atoms: N_21  and  C_22
REMARK   10  A    between atoms: N_28  and  C_29
REMARK   11  A    between atoms: C_29  and  C_30
REMARK   12  A    between atoms: C_33  and  C_36
REMARK                            x       y       z     vdW  Elec       q    Type
REMARK                         _______ _______ _______ _____ _____    ______ ____
ROOT
ATOM      1  C   UNL     1       9.291   4.768   3.304  0.00  0.00    +0.234 C 
ATOM      2  N   UNL     1       8.200   4.785   2.499  0.00  0.00    -0.302 N 
ATOM      3  H   UNL     1       7.724   5.675   2.593  0.00  0.00    +0.150 HD
ATOM      4  O   UNL     1       9.417   5.736   4.066  0.00  0.00    -0.274 OA
ENDROOT
BRANCH   2   5
ATOM      5  C   UNL     1       7.590   3.921   1.465  0.00  0.00    +0.159 C 
ATOM      6  C   UNL     1       6.205   4.475   1.091  0.00  0.00    +0.236 C 
ATOM      7  O   UNL     1       5.360   3.801   0.510  0.00  0.00    -0.274 OA
ATOM      8  N   UNL     1       6.185   5.866   1.157  0.00  0.00    -0.296 N 
ATOM      9  C   UNL     1       6.478   6.606  -0.066  0.00  0.00    +0.108 C 
ATOM     10  C   UNL     1       7.609   6.059  -0.978  0.00  0.00    +0.019 C 
ATOM     11  C   UNL     1       8.768   5.239  -0.387  0.00  0.00    +0.004 C 
ATOM     12  C   UNL     1       8.389   3.860   0.165  0.00  0.00    +0.032 C 
BRANCH   8  13
ATOM     13  C   UNL     1       5.401   6.505   2.235  0.00  0.00    +0.143 C 
BRANCH  13  14
ATOM     14  C   UNL     1       3.926   6.705   2.000  0.00  0.00    -0.030 A 
ATOM     15  C   UNL     1       3.336   7.967   2.141  0.00  0.00    +0.006 A 
ATOM     16  C   UNL     1       2.003   8.176   1.763  0.00  0.00    +0.009 A 
ATOM     17  C   UNL     1       1.238   7.142   1.198  0.00  0.00    -0.018 A 
ATOM     18  C   UNL     1       1.775   5.849   1.278  0.00  0.00    +0.009 A 
ATOM     19  C   UNL     1       3.090   5.632   1.692  0.00  0.00    +0.006 A 
BRANCH  17  20
ATOM     20  C   UNL     1       0.027   7.412   0.382  0.00  0.00    -0.018 A 
ATOM     21  C   UNL     1      -0.083   8.612  -0.350  0.00  0.00    +0.008 A 
ATOM     22  C   UNL     1      -1.093   8.810  -1.295  0.00  0.00    +0.001 A 
ATOM     23  C   UNL     1      -2.024   7.807  -1.536  0.00  0.00    +0.000 A 
ATOM     24  C   UNL     1      -1.963   6.623  -0.808  0.00  0.00    +0.001 A 
ATOM     25  C   UNL     1      -0.959   6.436   0.151  0.00  0.00    +0.008 A 
ENDBRANCH  17  20
ENDBRANCH  13  14
ENDBRANCH   8  13
ENDBRANCH   2   5
BRANCH   1  26
ATOM     26  C   UNL     1      10.404   3.707   3.217  0.00  0.00    +0.163 C 
BRANCH  26  29
ATOM     27  C   UNL     1      13.721   3.729   5.132  0.00  0.00    +0.109 C 
ATOM     28  C   UNL     1      12.726   3.412   4.052  0.00  0.00    +0.211 C 
ATOM     29  N   UNL     1      11.491   3.997   4.175  0.00  0.00    -0.304 N 
ATOM     30  H   UNL     1      11.370   4.809   4.775  0.00  0.00    +0.149 HD
ATOM     31  O   UNL     1      13.014   2.651   3.135  0.00  0.00    -0.276 OA
ENDBRANCH  26  29
BRANCH  26  32
ATOM     32  C   UNL     1       9.941   2.251   3.295  0.00  0.00    +0.067 C 
BRANCH  32  33
ATOM     33  C   UNL     1       9.539   1.575   4.588  0.00  0.00    -0.044 A 
ATOM     34  C   UNL     1       9.357   0.185   4.504  0.00  0.00    +0.015 A 
ATOM     35  C   UNL     1       9.019  -0.612   5.608  0.00  0.00    +0.028 A 
ATOM     36  C   UNL     1       8.821  -0.018   6.867  0.00  0.00    +0.069 A 
ATOM     37  C   UNL     1       8.995   1.392   6.939  0.00  0.00    +0.016 A 
ATOM     38  C   UNL     1       9.348   2.177   5.825  0.00  0.00    +0.004 A 
BRANCH  35  39
ATOM     39  C   UNL     1       8.934  -2.046   5.275  0.00  0.00    +0.259 C 
ATOM     40  O   UNL     1       8.847  -2.924   6.121  0.00  0.00    -0.296 OA
ENDBRANCH  35  39
BRANCH  36  41
ATOM     41  C   UNL     1       8.412  -0.658   8.165  0.00  0.00    +0.337 C 
ATOM     42  O   UNL     1       8.134   0.041   9.133  0.00  0.00    -0.245 OA
BRANCH  41  43
ATOM     43  O   UNL     1       8.353  -1.993   8.275  0.00  0.00    -0.477 OA
ATOM     44  H   UNL     1       8.596  -2.537   7.491  0.00  0.00    +0.295 HD
ENDBRANCH  41  43
ENDBRANCH  36  41
ENDBRANCH  32  33
ENDBRANCH  26  32
ENDBRANCH   1  26
TORSDOF 11
