REMARK  Name = 
REMARK  8 active torsions:
REMARK  status: ('A' for Active; 'I' for Inactive)
REMARK    1  A    between atoms: N_6  and  C_9
REMARK    2  A    between atoms: C_12  and  C_14
REMARK    3  A    between atoms: C_14  and  O_15
REMARK    4  A    between atoms: O_15  and  P_16
REMARK    5  A    between atoms: P_16  and  O_17
REMARK    6  A    between atoms: P_16  and  O_18
REMARK    7  A    between atoms: C_20  and  O_22
REMARK    8  A    between atoms: C_23  and  O_25
REMARK                            x       y       z     vdW  Elec       q    Type
REMARK                         _______ _______ _______ _____ _____    ______ ____
ROOT
ATOM      1  C   UNL     1       6.753  -0.101   0.063  0.00  0.00    +0.255 C 
ATOM      2  C   UNL     1       7.163  -1.372   0.836  0.00  0.00    +0.195 C 
ATOM      3  C   UNL     1       8.446  -0.981   1.576  0.00  0.00    +0.178 C 
ATOM      4  C   UNL     1       8.640   0.509   1.274  0.00  0.00    +0.178 C 
ATOM      5  O   UNL     1       7.397   0.992   0.755  0.00  0.00    -0.346 OA
ENDROOT
BRANCH   1  12
ATOM      6  N   UNL     1       7.699   0.289  -5.374  0.00  0.00    -0.343 N 
ATOM      7  H   UNL     1       8.636   0.134  -5.723  0.00  0.00    +0.144 HD
ATOM      8  H   UNL     1       7.242   1.104  -5.776  0.00  0.00    +0.144 HD
ATOM      9  C   UNL     1       7.493   0.179  -4.026  0.00  0.00    +0.123 A 
ATOM     10  C   UNL     1       8.338  -0.734  -3.239  0.00  0.00    +0.061 A 
ATOM     11  C   UNL     1       8.091  -0.775  -1.933  0.00  0.00    +0.096 A 
ATOM     12  N   UNL     1       7.081  -0.030  -1.362  0.00  0.00    -0.270 N 
ATOM     13  C   UNL     1       6.297   0.829  -2.152  0.00  0.00    +0.352 A 
ATOM     14  O   UNL     1       5.396   1.502  -1.661  0.00  0.00    -0.244 OA
ATOM     15  N   UNL     1       6.557   0.900  -3.504  0.00  0.00    -0.178 NA
ENDBRANCH   1  12
BRANCH   2  16
ATOM     16  O   UNL     1       6.157  -1.743   1.799  0.00  0.00    -0.385 OA
ATOM     17  H   UNL     1       5.870  -0.941   2.270  0.00  0.00    +0.210 HD
ENDBRANCH   2  16
BRANCH   3  18
ATOM     18  O   UNL     1       9.555  -1.735   1.081  0.00  0.00    -0.386 OA
ATOM     19  H   UNL     1      10.311  -1.537   1.664  0.00  0.00    +0.210 HD
ENDBRANCH   3  18
BRANCH   4  20
ATOM     20  C   UNL     1       9.082   1.335   2.494  0.00  0.00    +0.206 C 
BRANCH  20  21
ATOM     21  O   UNL     1      10.373   0.911   2.929  0.00  0.00    -0.284 OA
BRANCH  21  22
ATOM     22  P   UNL     1      11.024   1.796   4.265  0.00  0.00    +0.472 P 
ATOM     23  O   UNL     1      11.606   2.589   5.461  0.00  0.00    -0.228 OA
BRANCH  22  24
ATOM     24  O   UNL     1      12.331   0.841   4.065  0.00  0.00    -0.303 OA
ATOM     25  H   UNL     1      12.101   0.122   3.454  0.00  0.00    +0.222 HD
ENDBRANCH  22  24
BRANCH  22  26
ATOM     26  O   UNL     1      10.170   0.796   5.231  0.00  0.00    -0.303 OA
ATOM     27  H   UNL     1      10.471   1.002   6.141  0.00  0.00    +0.222 HD
ENDBRANCH  22  26
ENDBRANCH  21  22
ENDBRANCH  20  21
ENDBRANCH   4  20
TORSDOF 8
