REMARK  Name = 
REMARK  17 active torsions:
REMARK  status: ('A' for Active; 'I' for Inactive)
REMARK    1  A    between atoms: C_1  and  C_2
REMARK    2  A    between atoms: C_2  and  C_3
REMARK    3  A    between atoms: C_3  and  O_4
REMARK    4  A    between atoms: C_6  and  O_8
REMARK    5  A    between atoms: O_8  and  C_9
REMARK    6  A    between atoms: C_12  and  N_21
REMARK    7  A    between atoms: C_14  and  O_16
REMARK    8  A    between atoms: C_17  and  C_19
REMARK    9  A    between atoms: N_21  and  C_22
REMARK   10  A    between atoms: N_21  and  C_23
REMARK   11  A    between atoms: C_25  and  O_26
REMARK   12  A    between atoms: C_29  and  O_30
REMARK   13  A    between atoms: C_32  and  C_34
REMARK   14  A    between atoms: C_34  and  O_36
REMARK   15  A    between atoms: O_36  and  C_37
REMARK   16  A    between atoms: C_44  and  O_45
REMARK   17  A    between atoms: O_45  and  C_46
REMARK                            x       y       z     vdW  Elec       q    Type
REMARK                         _______ _______ _______ _____ _____    ______ ____
ROOT
ATOM      1  C   UNL     1       8.165  -1.101   1.390  0.00  0.00    +0.086 C 
ATOM      2  C   UNL     1       7.674  -0.966   2.860  0.00  0.00    +0.163 C 
ATOM      3  C   UNL     1       7.004   0.383   3.173  0.00  0.00    +0.020 A 
ATOM      4  C   UNL     1       6.746   1.347   2.172  0.00  0.00    +0.031 A 
ATOM      5  C   UNL     1       6.230   2.600   2.561  0.00  0.00    +0.134 A 
ATOM      6  C   UNL     1       5.966   2.913   3.906  0.00  0.00    +0.078 A 
ATOM      7  C   UNL     1       5.702   4.305   4.347  0.00  0.00    +0.202 C 
ATOM      8  O   UNL     1       6.140   5.213   3.654  0.00  0.00    -0.286 OA
ATOM      9  C   UNL     1       5.122   4.586   5.687  0.00  0.00    +0.075 A 
ATOM     10  C   UNL     1       5.242   3.549   6.636  0.00  0.00    +0.037 A 
ATOM     11  C   UNL     1       4.888   3.737   7.982  0.00  0.00    +0.012 A 
ATOM     12  C   UNL     1       4.394   4.959   8.402  0.00  0.00    +0.004 A 
ATOM     13  C   UNL     1       4.233   5.976   7.469  0.00  0.00    +0.046 A 
ATOM     14  C   UNL     1       5.767   2.219   6.264  0.00  0.00    +0.198 C 
ATOM     15  O   UNL     1       5.901   1.336   7.110  0.00  0.00    -0.286 OA
ATOM     16  C   UNL     1       4.582   5.819   6.110  0.00  0.00    +0.132 A 
ATOM     17  C   UNL     1       6.105   1.922   4.865  0.00  0.00    +0.078 A 
ATOM     18  C   UNL     1       7.035   1.067   0.705  0.00  0.00    +0.158 C 
ATOM     19  C   UNL     1       6.595   0.658   4.493  0.00  0.00    +0.133 A 
ATOM     20  C   UNL     1       7.135  -0.438   0.457  0.00  0.00    +0.072 C 
ENDROOT
BRANCH   1  22
ATOM     21  C   UNL     1       7.203  -3.485   0.975  0.00  0.00    +0.007 C 
ATOM     22  C   UNL     1       8.410  -2.562   0.941  0.00  0.00    +0.032 C 
ENDBRANCH   1  22
BRANCH   1  23
ATOM     23  O   UNL     1       9.439  -0.458   1.198  0.00  0.00    -0.387 OA
ATOM     24  H   UNL     1       9.371   0.471   1.502  0.00  0.00    +0.210 HD
ENDBRANCH   1  23
BRANCH   2  25
ATOM     25  C   UNL     1       8.834  -1.266   3.813  0.00  0.00    +0.317 C 
ATOM     26  O   UNL     1       9.585  -0.427   4.299  0.00  0.00    -0.250 OA
BRANCH  25  27
ATOM     27  O   UNL     1       8.923  -2.612   4.032  0.00  0.00    -0.467 OA
ATOM     28  C   UNL     1       9.976  -3.010   4.911  0.00  0.00    +0.280 C 
ENDBRANCH  25  27
ENDBRANCH   2  25
BRANCH  16  29
ATOM     29  O   UNL     1       4.298   6.984   5.459  0.00  0.00    -0.494 OA
ATOM     30  C   UNL     1       4.405   7.147   4.059  0.00  0.00    +0.277 C 
ENDBRANCH  16  29
BRANCH   5  31
ATOM     31  O   UNL     1       5.948   3.523   1.588  0.00  0.00    -0.506 OA
ATOM     32  H   UNL     1       6.724   3.580   0.998  0.00  0.00    +0.292 HD
ENDBRANCH   5  31
BRANCH  19  33
ATOM     33  O   UNL     1       6.696  -0.369   5.401  0.00  0.00    -0.506 OA
ATOM     34  H   UNL     1       6.469  -0.022   6.294  0.00  0.00    +0.292 HD
ENDBRANCH  19  33
BRANCH  18  35
ATOM     35  O   UNL     1       8.236   1.789   0.403  0.00  0.00    -0.343 OA
BRANCH  35  36
ATOM     36  C   UNL     1       8.659   1.719  -0.965  0.00  0.00    +0.253 C 
ATOM     37  O   UNL     1       7.651   2.229  -1.821  0.00  0.00    -0.346 OA
ATOM     38  C   UNL     1       8.031   2.169  -3.196  0.00  0.00    +0.148 C 
ATOM     39  C   UNL     1       6.835   2.648  -4.016  0.00  0.00    +0.041 C 
ATOM     40  C   UNL     1       9.292   3.013  -3.483  0.00  0.00    +0.160 C 
ATOM     41  C   UNL     1      10.471   2.578  -2.546  0.00  0.00    +0.092 C 
ATOM     42  C   UNL     1       9.936   2.547  -1.095  0.00  0.00    +0.083 C 
BRANCH  41  43
ATOM     43  N   UNL     1      11.697   3.433  -2.635  0.00  0.00    -0.303 NA
ATOM     44  C   UNL     1      12.204   3.596  -4.002  0.00  0.00    +0.105 C 
ATOM     45  C   UNL     1      12.791   2.937  -1.789  0.00  0.00    +0.105 C 
ENDBRANCH  41  43
BRANCH  40  46
ATOM     46  O   UNL     1       9.610   2.868  -4.872  0.00  0.00    -0.388 OA
ATOM     47  H   UNL     1      10.025   1.997  -4.999  0.00  0.00    +0.210 HD
ENDBRANCH  40  46
ENDBRANCH  35  36
ENDBRANCH  18  35
TORSDOF 11
