REMARK  Name = 
REMARK  12 active torsions:
REMARK  status: ('A' for Active; 'I' for Inactive)
REMARK    1  A    between atoms: C_2  and  C_3
REMARK    2  A    between atoms: C_2  and  N_12
REMARK    3  A    between atoms: C_2  and  C_30
REMARK    4  A    between atoms: C_3  and  O_4
REMARK    5  A    between atoms: O_4  and  C_5
REMARK    6  A    between atoms: C_5  and  C_6
REMARK    7  A    between atoms: C_13  and  C_15
REMARK    8  A    between atoms: C_15  and  C_17
REMARK    9  A    between atoms: C_15  and  N_21
REMARK   10  A    between atoms: C_17  and  C_18
REMARK   11  A    between atoms: C_18  and  C_19
REMARK   12  A    between atoms: C_18  and  C_20
REMARK                            x       y       z     vdW  Elec       q    Type
REMARK                         _______ _______ _______ _____ _____    ______ ____
ROOT
ATOM      1  N   UNL     1       2.411   3.654   2.071  0.00  0.00    -0.296 N 
ATOM      2  H   UNL     1       2.746   2.718   1.909  0.00  0.00    +0.150 HD
ATOM      3  C   UNL     1       2.261   4.493   0.994  0.00  0.00    +0.234 C 
ATOM      4  O   UNL     1       1.691   5.578   1.084  0.00  0.00    -0.274 OA
ENDROOT
BRANCH   1   5
ATOM      5  C   UNL     1       1.828   3.882   3.391  0.00  0.00    +0.202 C 
BRANCH   5   6
ATOM      6  C   UNL     1       2.746   3.353   4.428  0.00  0.00    +0.087 C 
ATOM      7  N   UNL     1       3.501   2.901   5.183  0.00  0.00    -0.195 NA
ENDBRANCH   5   6
BRANCH   5   8
ATOM      8  C   UNL     1       0.487   3.136   3.439  0.00  0.00    +0.197 C 
BRANCH   8   9
ATOM      9  O   UNL     1      -0.169   3.310   4.693  0.00  0.00    -0.372 OA
BRANCH   9  10
ATOM     10  C   UNL     1      -1.375   2.550   4.745  0.00  0.00    +0.195 C 
BRANCH  10  11
ATOM     11  C   UNL     1      -1.999   2.749   6.094  0.00  0.00    -0.022 A 
ATOM     12  C   UNL     1      -1.328   2.334   7.253  0.00  0.00    +0.006 A 
ATOM     13  C   UNL     1      -1.897   2.539   8.509  0.00  0.00    +0.000 A 
ATOM     14  C   UNL     1      -3.141   3.158   8.617  0.00  0.00    +0.000 A 
ATOM     15  C   UNL     1      -3.820   3.565   7.470  0.00  0.00    +0.000 A 
ATOM     16  C   UNL     1      -3.253   3.361   6.213  0.00  0.00    +0.006 A 
ENDBRANCH  10  11
ENDBRANCH   9  10
ENDBRANCH   8   9
ENDBRANCH   5   8
ENDBRANCH   1   5
BRANCH   3  17
ATOM     17  C   UNL     1       2.850   3.932  -0.329  0.00  0.00    +0.161 C 
BRANCH  17  18
ATOM     18  N   UNL     1       2.410   4.803  -1.418  0.00  0.00    -0.288 N 
ATOM     19  H   UNL     1       2.651   5.779  -1.327  0.00  0.00    +0.151 HD
ATOM     20  C   UNL     1       2.156   4.339  -2.676  0.00  0.00    +0.303 C 
ATOM     21  N   UNL     1       1.799   5.310  -3.591  0.00  0.00    -0.281 N 
ATOM     22  C   UNL     1       1.118   6.566  -3.251  0.00  0.00    +0.137 C 
ATOM     23  C   UNL     1      -0.348   6.506  -3.706  0.00  0.00    +0.179 C 
ATOM     24  O   UNL     1      -0.442   6.210  -5.109  0.00  0.00    -0.377 OA
ATOM     25  C   UNL     1       0.167   4.940  -5.403  0.00  0.00    +0.179 C 
ATOM     26  C   UNL     1       1.646   4.939  -5.000  0.00  0.00    +0.137 C 
ATOM     27  O   UNL     1       2.258   3.149  -2.962  0.00  0.00    -0.253 OA
ENDBRANCH  17  18
BRANCH  17  28
ATOM     28  C   UNL     1       4.391   3.823  -0.336  0.00  0.00    +0.034 C 
BRANCH  28  29
ATOM     29  C   UNL     1       5.048   2.934   0.742  0.00  0.00    -0.015 C 
ATOM     30  C   UNL     1       6.574   3.002   0.637  0.00  0.00    +0.007 C 
ATOM     31  C   UNL     1       4.603   1.471   0.669  0.00  0.00    +0.007 C 
ENDBRANCH  28  29
ENDBRANCH  17  28
ENDBRANCH   3  17
TORSDOF 10
