REMARK  Name = 
REMARK  13 active torsions:
REMARK  status: ('A' for Active; 'I' for Inactive)
REMARK    1  A    between atoms: C_2  and  N_3
REMARK    2  A    between atoms: C_2  and  C_26
REMARK    3  A    between atoms: C_2  and  C_29
REMARK    4  A    between atoms: C_4  and  C_6
REMARK    5  A    between atoms: C_6  and  N_7
REMARK    6  A    between atoms: C_10  and  N_11
REMARK    7  A    between atoms: N_11  and  S_12
REMARK    8  A    between atoms: S_12  and  C_13
REMARK    9  A    between atoms: C_18  and  C_19
REMARK   10  A    between atoms: C_22  and  N_23
REMARK   11  A    between atoms: C_26  and  C_27
REMARK   12  A    between atoms: C_26  and  C_28
REMARK   13  A    between atoms: C_29  and  C_31
REMARK                            x       y       z     vdW  Elec       q    Type
REMARK                         _______ _______ _______ _____ _____    ______ ____
ROOT
ATOM      1  N   UNL     1      -2.215  -0.783  -2.564  0.00  0.00    -0.282 N 
ATOM      2  C   UNL     1      -3.400  -1.542  -2.612  0.00  0.00    +0.144 A 
ATOM      3  N   UNL     1      -3.877  -1.943  -3.760  0.00  0.00    -0.235 NA
ATOM      4  C   UNL     1      -3.189  -1.693  -4.919  0.00  0.00    +0.143 A 
ATOM      5  C   UNL     1      -2.097  -0.934  -4.986  0.00  0.00    +0.130 A 
ATOM      6  C   UNL     1      -1.590  -0.360  -3.733  0.00  0.00    +0.277 A 
ATOM      7  O   UNL     1      -0.655   0.438  -3.784  0.00  0.00    -0.266 OA
ENDROOT
BRANCH   2   8
ATOM      8  C   UNL     1      -4.236  -1.904  -1.371  0.00  0.00    +0.018 A 
ATOM      9  C   UNL     1      -3.948  -1.608  -0.035  0.00  0.00    +0.013 A 
ATOM     10  C   UNL     1      -4.829  -1.913   1.014  0.00  0.00    +0.023 A 
ATOM     11  C   UNL     1      -6.049  -2.520   0.769  0.00  0.00    +0.025 A 
ATOM     12  C   UNL     1      -6.319  -2.921  -0.535  0.00  0.00    +0.023 A 
ATOM     13  C   UNL     1      -5.442  -2.598  -1.588  0.00  0.00    +0.013 A 
BRANCH  11  14
ATOM     14  N   UNL     1      -6.853  -2.921   1.837  0.00  0.00    -0.358 N 
ATOM     15  H   UNL     1      -6.748  -2.349   2.671  0.00  0.00    +0.142 HD
ATOM     16  H   UNL     1      -7.827  -3.059   1.591  0.00  0.00    +0.142 HD
ENDBRANCH  11  14
ENDBRANCH   2   8
BRANCH   5  17
ATOM     17  N   UNL     1      -1.290  -0.971  -6.156  0.00  0.00    -0.214 N 
ATOM     18  H   UNL     1      -0.287  -1.002  -5.946  0.00  0.00    +0.174 HD
BRANCH  17  19
ATOM     19  S   UNL     1      -1.540   0.257  -7.282  0.00  0.00    +0.040 S 
ATOM     20  O   UNL     1      -2.925   0.229  -7.689  0.00  0.00    -0.155 OA
ATOM     21  O   UNL     1      -0.466   0.114  -8.244  0.00  0.00    -0.155 OA
ATOM     22  C   UNL     1      -1.239   1.776  -6.392  0.00  0.00    +0.218 C 
ENDBRANCH  17  19
ENDBRANCH   5  17
BRANCH   1  23
ATOM     23  C   UNL     1      -1.496  -0.377  -1.361  0.00  0.00    +0.222 C 
BRANCH  23  26
ATOM     24  N   UNL     1      -3.180   1.438  -1.276  0.00  0.00    -0.304 N 
ATOM     25  H   UNL     1      -3.511   1.086  -2.173  0.00  0.00    +0.149 HD
ATOM     26  C   UNL     1      -2.108   0.840  -0.657  0.00  0.00    +0.234 C 
ATOM     27  O   UNL     1      -1.677   1.225   0.428  0.00  0.00    -0.274 OA
BRANCH  24  28
ATOM     28  C   UNL     1      -3.910   2.580  -0.707  0.00  0.00    +0.151 C 
BRANCH  28  29
ATOM     29  C   UNL     1      -3.320   3.909  -1.233  0.00  0.00    +0.011 C 
ATOM     30  C   UNL     1      -1.831   4.056  -0.892  0.00  0.00    +0.009 C 
ATOM     31  C   UNL     1      -4.052   5.135  -0.682  0.00  0.00    +0.009 C 
ENDBRANCH  28  29
BRANCH  28  32
ATOM     32  C   UNL     1      -5.372   2.386  -1.136  0.00  0.00    +0.256 C 
ATOM     33  O   UNL     1      -5.640   1.813  -2.201  0.00  0.00    -0.286 OA
BRANCH  32  34
ATOM     34  C   UNL     1      -6.434   2.959  -0.209  0.00  0.00    +0.453 C 
ATOM     35  F   UNL     1      -7.331   2.022   0.201  0.00  0.00    -0.163 F 
ATOM     36  F   UNL     1      -7.155   3.948  -0.805  0.00  0.00    -0.163 F 
ATOM     37  F   UNL     1      -5.915   3.502   0.926  0.00  0.00    -0.163 F 
ENDBRANCH  32  34
ENDBRANCH  28  32
ENDBRANCH  24  28
ENDBRANCH  23  26
ENDBRANCH   1  23
TORSDOF 10
