REMARK  Name = 
REMARK  9 active torsions:
REMARK  status: ('A' for Active; 'I' for Inactive)
REMARK    1  A    between atoms: N_1  and  C_2
REMARK    2  A    between atoms: C_2  and  C_3
REMARK    3  A    between atoms: C_3  and  C_4
REMARK    4  A    between atoms: N_6  and  C_7
REMARK    5  A    between atoms: C_7  and  C_8
REMARK    6  A    between atoms: C_8  and  CA_9
REMARK    7  A    between atoms: CA_9  and  N_11
REMARK    8  A    between atoms: CA_9  and  C_12
REMARK    9  A    between atoms: C_12  and  O_13
REMARK                            x       y       z     vdW  Elec       q    Type
REMARK                         _______ _______ _______ _____ _____    ______ ____
ROOT
ATOM      1  C   UNL     1       9.936  -0.054  -2.182  0.00  0.00    +0.106 C 
ENDROOT
BRANCH   1   3
ATOM      2  C   UNL     1      11.687   1.617  -1.692  0.00  0.00    +0.214 C 
ATOM      3  N   UNL     1      10.374   1.310  -1.983  0.00  0.00    -0.315 N 
ATOM      4  H   UNL     1       9.726   2.071  -2.174  0.00  0.00    +0.149 HD
ATOM      5  O   UNL     1      12.551   0.760  -1.533  0.00  0.00    -0.276 OA
BRANCH   2   6
ATOM      6  C   UNL     1      11.967   3.102  -1.575  0.00  0.00    +0.110 C 
BRANCH   6   7
ATOM      7  C   UNL     1      13.432   3.386  -1.903  0.00  0.00    +0.087 C 
BRANCH   7   8
ATOM      8  N   UNL     1      13.738   4.809  -1.762  0.00  0.00    -0.330 NA
ATOM      9  H   UNL     1      13.672   5.075  -0.782  0.00  0.00    +0.118 HD
ATOM     10  H   UNL     1      14.713   4.959  -2.027  0.00  0.00    +0.118 HD
ENDBRANCH   7   8
ENDBRANCH   6   7
ENDBRANCH   2   6
ENDBRANCH   1   3
BRANCH   1  11
ATOM     11  C   UNL     1       9.404  -0.329  -3.591  0.00  0.00    +0.048 C 
BRANCH  11  12
ATOM     12  CA  UNL     1      10.364  -0.076  -4.761  0.00  0.00    +0.162 C 
BRANCH  12  13
ATOM     13  N   UNL     1      11.619  -0.873  -4.692  0.00  0.00    -0.318 NA
ATOM     14  H1  UNL     1      11.380  -1.843  -4.473  0.00  0.00    +0.119 HD
ATOM     15  H2  UNL     1      12.024  -0.918  -5.633  0.00  0.00    +0.119 HD
ENDBRANCH  12  13
BRANCH  12  16
ATOM     16  C   UNL     1      10.714   1.416  -4.874  0.00  0.00    +0.322 C 
ATOM     17  OXT UNL     1       9.902   2.314  -5.033  0.00  0.00    -0.249 OA
BRANCH  16  18
ATOM     18  O   UNL     1      12.048   1.631  -4.734  0.00  0.00    -0.480 OA
ATOM     19  H   UNL     1      12.440   0.760  -4.469  0.00  0.00    +0.295 HD
ENDBRANCH  16  18
ENDBRANCH  12  16
ENDBRANCH  11  12
ENDBRANCH   1  11
TORSDOF 9
