REMARK  Name = 
REMARK  0 active torsions:
REMARK  status: ('A' for Active; 'I' for Inactive)
REMARK                            x       y       z     vdW  Elec       q    Type
REMARK                         _______ _______ _______ _____ _____    ______ ____
ROOT
ATOM      1  I   UNL     1       1.096   0.130   0.139  0.00  0.00    -0.037 I 
ATOM      2  C   UNL     1       3.130   0.145  -0.034  0.00  0.00    +0.094 A 
ATOM      3  C   UNL     1       3.887  -1.143  -0.110  0.00  0.00    +0.267 A 
ATOM      4  O   UNL     1       3.345  -2.244  -0.088  0.00  0.00    -0.267 OA
ATOM      5  N   UNL     1       5.251  -1.032  -0.211  0.00  0.00    -0.274 N 
ATOM      6  H   UNL     1       5.779  -1.890  -0.264  0.00  0.00    +0.173 HD
ATOM      7  C   UNL     1       5.954   0.136  -0.270  0.00  0.00    +0.327 A 
ATOM      8  O   UNL     1       7.174   0.168  -0.378  0.00  0.00    -0.247 OA
ATOM      9  N   UNL     1       5.202   1.277  -0.202  0.00  0.00    -0.313 N 
ATOM     10  H   UNL     1       5.721   2.148  -0.245  0.00  0.00    +0.170 HD
ATOM     11  C   UNL     1       3.838   1.282  -0.086  0.00  0.00    +0.107 A 
ENDROOT
TORSDOF 0
