REMARK  Name = 
REMARK  19 active torsions:
REMARK  status: ('A' for Active; 'I' for Inactive)
REMARK    1  A    between atoms: N_8  and  C_9
REMARK    2  A    between atoms: C_12  and  C_14
REMARK    3  A    between atoms: C_14  and  O_15
REMARK    4  A    between atoms: O_15  and  P_16
REMARK    5  A    between atoms: P_16  and  O_17
REMARK    6  A    between atoms: P_16  and  O_19
REMARK    7  A    between atoms: O_19  and  P_20
REMARK    8  A    between atoms: P_20  and  O_21
REMARK    9  A    between atoms: P_20  and  O_23
REMARK   10  A    between atoms: O_23  and  P_24
REMARK   11  A    between atoms: P_24  and  O_25
REMARK   12  A    between atoms: P_24  and  O_27
REMARK   13  A    between atoms: O_27  and  C_28
REMARK   14  A    between atoms: C_28  and  C_29
REMARK   15  A    between atoms: C_32  and  N_40
REMARK   16  A    between atoms: C_34  and  O_36
REMARK   17  A    between atoms: C_37  and  O_39
REMARK   18  A    between atoms: C_51  and  O_53
REMARK   19  A    between atoms: C_54  and  O_56
REMARK                            x       y       z     vdW  Elec       q    Type
REMARK                         _______ _______ _______ _____ _____    ______ ____
ROOT
ATOM      1  P   UNL     1      16.077 -12.187  -3.595  0.00  0.00    +0.492 P 
ATOM      2  O   UNL     1      17.484 -11.930  -4.124  0.00  0.00    -0.226 OA
ENDROOT
BRANCH   1   3
ATOM      3  O   UNL     1      15.418 -13.239  -4.657  0.00  0.00    -0.302 OA
ATOM      4  H   UNL     1      16.060 -13.362  -5.385  0.00  0.00    +0.222 HD
ENDBRANCH   1   3
BRANCH   1   5
ATOM      5  O   UNL     1      16.681 -13.499  -2.643  0.00  0.00    -0.186 OA
BRANCH   5   6
ATOM      6  P   UNL     1      16.978 -13.819  -1.115  0.00  0.00    +0.483 P 
ATOM      7  O   UNL     1      18.328 -14.406  -0.854  0.00  0.00    -0.227 OA
BRANCH   6   8
ATOM      8  O   UNL     1      15.885 -14.993  -0.964  0.00  0.00    -0.302 OA
ATOM      9  H   UNL     1      16.344 -15.853  -1.009  0.00  0.00    +0.222 HD
ENDBRANCH   6   8
BRANCH   6  10
ATOM     10  O   UNL     1      16.458 -12.864   0.124  0.00  0.00    -0.284 OA
BRANCH  10  11
ATOM     11  C   UNL     1      16.331 -13.674   1.345  0.00  0.00    +0.206 C 
BRANCH  11  12
ATOM     12  C   UNL     1      16.388 -13.175   2.816  0.00  0.00    +0.178 C 
ATOM     13  C   UNL     1      17.689 -12.564   3.332  0.00  0.00    +0.178 C 
ATOM     14  C   UNL     1      17.415 -11.070   3.390  0.00  0.00    +0.195 C 
ATOM     15  C   UNL     1      15.953 -10.935   2.938  0.00  0.00    +0.253 C 
ATOM     16  O   UNL     1      15.352 -12.228   3.099  0.00  0.00    -0.346 OA
BRANCH  15  17
ATOM     17  N   UNL     1      15.173  -9.949   3.660  0.00  0.00    -0.285 N 
ATOM     18  C   UNL     1      15.589  -8.697   4.023  0.00  0.00    +0.171 A 
ATOM     19  N   UNL     1      16.835  -8.183   3.870  0.00  0.00    -0.196 NA
ATOM     20  C   UNL     1      16.945  -6.964   4.329  0.00  0.00    +0.195 A 
ATOM     21  N   UNL     1      15.904  -6.254   4.893  0.00  0.00    -0.293 N 
ATOM     22  H   UNL     1      16.038  -5.303   5.188  0.00  0.00    +0.172 HD
ATOM     23  C   UNL     1      14.611  -6.738   5.050  0.00  0.00    +0.280 A 
ATOM     24  O   UNL     1      13.718  -6.049   5.535  0.00  0.00    -0.265 OA
ATOM     25  N   UNL     1      18.141  -6.328   4.279  0.00  0.00    -0.329 N 
ATOM     26  H   UNL     1      18.334  -5.641   4.997  0.00  0.00    +0.145 HD
ATOM     27  H   UNL     1      18.926  -6.949   4.110  0.00  0.00    +0.145 HD
ATOM     28  C   UNL     1      14.478  -8.096   4.571  0.00  0.00    +0.172 A 
ATOM     29  N   UNL     1      13.393  -8.933   4.546  0.00  0.00    -0.229 NA
ATOM     30  C   UNL     1      13.841 -10.037   3.981  0.00  0.00    +0.203 A 
ENDBRANCH  15  17
BRANCH  14  31
ATOM     31  O   UNL     1      18.293 -10.367   2.508  0.00  0.00    -0.385 OA
ATOM     32  H   UNL     1      18.123  -9.417   2.681  0.00  0.00    +0.210 HD
ENDBRANCH  14  31
BRANCH  13  33
ATOM     33  O   UNL     1      17.952 -13.040   4.673  0.00  0.00    -0.386 OA
ATOM     34  H   UNL     1      17.212 -12.795   5.259  0.00  0.00    +0.210 HD
ENDBRANCH  13  33
ENDBRANCH  11  12
ENDBRANCH  10  11
ENDBRANCH   6  10
ENDBRANCH   5   6
ENDBRANCH   1   5
BRANCH   1  35
ATOM     35  O   UNL     1      15.473 -10.875  -4.547  0.00  0.00    -0.186 OA
BRANCH  35  36
ATOM     36  P   UNL     1      14.455  -9.874  -3.570  0.00  0.00    +0.483 P 
ATOM     37  O   UNL     1      14.794  -8.627  -4.381  0.00  0.00    -0.227 OA
BRANCH  36  38
ATOM     38  O   UNL     1      13.438  -8.873  -2.593  0.00  0.00    -0.302 OA
ATOM     39  H   UNL     1      13.251  -8.110  -3.182  0.00  0.00    +0.222 HD
ENDBRANCH  36  38
BRANCH  36  40
ATOM     40  O   UNL     1      13.115 -10.531  -4.247  0.00  0.00    -0.284 OA
BRANCH  40  41
ATOM     41  C   UNL     1      12.560 -11.654  -3.589  0.00  0.00    +0.206 C 
BRANCH  41  45
ATOM     42  C   UNL     1       9.687 -13.670  -4.556  0.00  0.00    +0.253 C 
ATOM     43  C   UNL     1      10.200 -13.305  -5.964  0.00  0.00    +0.195 C 
ATOM     44  C   UNL     1      11.251 -12.209  -5.722  0.00  0.00    +0.178 C 
ATOM     45  C   UNL     1      11.222 -12.017  -4.206  0.00  0.00    +0.178 C 
ATOM     46  O   UNL     1      10.765 -13.269  -3.670  0.00  0.00    -0.346 OA
BRANCH  42  58
ATOM     47  N   UNL     1       7.325  -9.511  -6.925  0.00  0.00    -0.329 N 
ATOM     48  H   UNL     1       6.495  -9.065  -7.294  0.00  0.00    +0.145 HD
ATOM     49  H   UNL     1       7.916  -9.934  -7.639  0.00  0.00    +0.145 HD
ATOM     50  C   UNL     1       7.185 -10.296  -5.829  0.00  0.00    +0.195 A 
ATOM     51  N   UNL     1       6.197  -9.939  -4.935  0.00  0.00    -0.293 N 
ATOM     52  H   UNL     1       5.656  -9.106  -5.088  0.00  0.00    +0.172 HD
ATOM     53  C   UNL     1       5.934 -10.596  -3.747  0.00  0.00    +0.280 A 
ATOM     54  O   UNL     1       5.070 -10.218  -2.965  0.00  0.00    -0.265 OA
ATOM     55  C   UNL     1       6.807 -11.743  -3.567  0.00  0.00    +0.172 A 
ATOM     56  N   UNL     1       6.918 -12.600  -2.499  0.00  0.00    -0.229 NA
ATOM     57  C   UNL     1       7.935 -13.381  -2.813  0.00  0.00    +0.203 A 
ATOM     58  N   UNL     1       8.471 -13.063  -4.043  0.00  0.00    -0.285 N 
ATOM     59  C   UNL     1       7.745 -12.008  -4.528  0.00  0.00    +0.171 A 
ATOM     60  N   UNL     1       7.967 -11.331  -5.666  0.00  0.00    -0.196 NA
ENDBRANCH  42  58
BRANCH  44  61
ATOM     61  O   UNL     1      10.952 -11.007  -6.422  0.00  0.00    -0.386 OA
ATOM     62  H   UNL     1      11.584 -10.328  -6.119  0.00  0.00    +0.210 HD
ENDBRANCH  44  61
BRANCH  43  63
ATOM     63  O   UNL     1      10.851 -14.458  -6.553  0.00  0.00    -0.385 OA
ATOM     64  H   UNL     1      11.622 -14.691  -6.005  0.00  0.00    +0.210 HD
ENDBRANCH  43  63
ENDBRANCH  41  45
ENDBRANCH  40  41
ENDBRANCH  36  40
ENDBRANCH  35  36
ENDBRANCH   1  35
TORSDOF 19
