REMARK  Name = 
REMARK  4 active torsions:
REMARK  status: ('A' for Active; 'I' for Inactive)
REMARK    1  A    between atoms: O_1  and  C_2
REMARK    2  A    between atoms: C_6  and  O_7
REMARK    3  A    between atoms: C_8  and  O_10
REMARK    4  A    between atoms: C_11  and  O_13
REMARK                            x       y       z     vdW  Elec       q    Type
REMARK                         _______ _______ _______ _____ _____    ______ ____
ROOT
ATOM      1  C   UNL     1       2.525   0.042   0.068  0.00  0.00    +0.171 C 
ATOM      2  C   UNL     1       2.996   1.084  -0.960  0.00  0.00    +0.178 C 
ATOM      3  C   UNL     1       2.593   0.656  -2.382  0.00  0.00    +0.201 C 
ATOM      4  C   UNL     1       3.061  -0.795  -2.645  0.00  0.00    +0.279 C 
ATOM      5  O   UNL     1       2.578  -1.699  -1.649  0.00  0.00    -0.346 OA
ATOM      6  C   UNL     1       3.002  -1.360  -0.327  0.00  0.00    +0.197 C 
ENDROOT
BRANCH   1   7
ATOM      7  O   UNL     1       1.089   0.066   0.120  0.00  0.00    -0.387 OA
ATOM      8  H   UNL     1       0.808  -0.645   0.725  0.00  0.00    +0.210 HD
ENDBRANCH   1   7
BRANCH   2   9
ATOM      9  O   UNL     1       4.421   1.231  -0.885  0.00  0.00    -0.386 OA
ATOM     10  H   UNL     1       4.633   2.100  -1.278  0.00  0.00    +0.210 HD
ENDBRANCH   2   9
BRANCH   3  11
ATOM     11  O   UNL     1       1.178   0.786  -2.556  0.00  0.00    -0.384 OA
ATOM     12  H   UNL     1       0.760   0.331  -1.792  0.00  0.00    +0.210 HD
ENDBRANCH   3  11
BRANCH   4  13
ATOM     13  O   UNL     1       4.476  -0.894  -2.760  0.00  0.00    -0.365 OA
ATOM     14  H   UNL     1       4.859  -0.275  -2.111  0.00  0.00    +0.213 HD
ENDBRANCH   4  13
TORSDOF 4
