REMARK  Name = 
REMARK  9 active torsions:
REMARK  status: ('A' for Active; 'I' for Inactive)
REMARK    1  A    between atoms: N_1  and  CA_2
REMARK    2  A    between atoms: CA_2  and  C_4
REMARK    3  A    between atoms: CA_2  and  C_12
REMARK    4  A    between atoms: C_4  and  C_5
REMARK    5  A    between atoms: C_5  and  C_6
REMARK    6  A    between atoms: C_5  and  C_9
REMARK    7  A    between atoms: C_6  and  O_7
REMARK    8  A    between atoms: C_9  and  O_10
REMARK    9  A    between atoms: C_12  and  O_13
REMARK                            x       y       z     vdW  Elec       q    Type
REMARK                         _______ _______ _______ _____ _____    ______ ____
ROOT
ATOM      1  C   UNL     1       2.868   1.078   0.878  0.00  0.00    +0.056 C 
ENDROOT
BRANCH   1   2
ATOM      2  CA  UNL     1       2.462  -0.059  -0.080  0.00  0.00    +0.162 C 
BRANCH   2   3
ATOM      3  N   UNL     1       2.865  -1.374   0.523  0.00  0.00    -0.318 NA
ATOM      4  H1  UNL     1       3.708  -1.250   1.091  0.00  0.00    +0.119 HD
ATOM      5  H2  UNL     1       2.138  -1.643   1.195  0.00  0.00    +0.119 HD
ENDBRANCH   2   3
BRANCH   2   6
ATOM      6  C   UNL     1       3.154   0.054  -1.454  0.00  0.00    +0.322 C 
ATOM      7  OXT UNL     1       3.180   1.055  -2.151  0.00  0.00    -0.249 OA
BRANCH   6   8
ATOM      8  O   UNL     1       3.757  -1.112  -1.800  0.00  0.00    -0.480 OA
ATOM      9  H   UNL     1       3.552  -1.746  -1.066  0.00  0.00    +0.295 HD
ENDBRANCH   6   8
ENDBRANCH   2   6
ENDBRANCH   1   2
BRANCH   1  10
ATOM     10  C   UNL     1       2.465   2.517   0.483  0.00  0.00    +0.207 C 
BRANCH  10  11
ATOM     11  C   UNL     1       3.079   3.599   1.353  0.00  0.00    +0.319 C 
ATOM     12  O   UNL     1       2.802   4.781   1.157  0.00  0.00    -0.250 OA
BRANCH  11  13
ATOM     13  O   UNL     1       3.912   3.249   2.345  0.00  0.00    -0.480 OA
ATOM     14  H   UNL     1       4.096   2.309   2.511  0.00  0.00    +0.295 HD
ENDBRANCH  11  13
ENDBRANCH  10  11
BRANCH  10  15
ATOM     15  C   UNL     1       0.954   2.692   0.413  0.00  0.00    +0.319 C 
ATOM     16  O   UNL     1       0.171   1.752   0.377  0.00  0.00    -0.250 OA
BRANCH  15  17
ATOM     17  O   UNL     1       0.507   3.965   0.353  0.00  0.00    -0.480 OA
ATOM     18  H   UNL     1       1.202   4.664   0.444  0.00  0.00    +0.295 HD
ENDBRANCH  15  17
ENDBRANCH  10  15
ENDBRANCH   1  10
TORSDOF 9
