REMARK  Name = 
REMARK  8 active torsions:
REMARK  status: ('A' for Active; 'I' for Inactive)
REMARK    1  A    between atoms: O_1  and  C_2
REMARK    2  A    between atoms: C_4  and  C_6
REMARK    3  A    between atoms: C_6  and  O_7
REMARK    4  A    between atoms: O_7  and  P_8
REMARK    5  A    between atoms: P_8  and  O_9
REMARK    6  A    between atoms: P_8  and  O_10
REMARK    7  A    between atoms: C_13  and  N_18
REMARK    8  A    between atoms: C_15  and  O_17
REMARK                            x       y       z     vdW  Elec       q    Type
REMARK                         _______ _______ _______ _____ _____    ______ ____
ROOT
ATOM      1  C   UNL     1       2.272  -0.015   0.008  0.00  0.00    +0.178 C 
ATOM      2  C   UNL     1       2.825  -1.266   0.679  0.00  0.00    +0.195 C 
ATOM      3  C   UNL     1       3.989  -0.735   1.520  0.00  0.00    +0.253 C 
ATOM      4  O   UNL     1       3.937   0.704   1.547  0.00  0.00    -0.346 OA
ATOM      5  C   UNL     1       2.701   1.110   0.943  0.00  0.00    +0.178 C 
ENDROOT
BRANCH   3   6
ATOM      6  N   UNL     1       3.995  -1.213   2.896  0.00  0.00    -0.285 N 
ATOM      7  C   UNL     1       3.097  -0.920   3.894  0.00  0.00    +0.176 A 
ATOM      8  N   UNL     1       1.955  -0.214   3.800  0.00  0.00    -0.173 NA
ATOM      9  C   UNL     1       1.368  -0.068   5.004  0.00  0.00    +0.430 A 
ATOM     10  N   UNL     1       1.824  -0.563   6.153  0.00  0.00    -0.183 N 
ATOM     11  C   UNL     1       2.936  -1.289   6.238  0.00  0.00    +0.306 A 
ATOM     12 CL   UNL     1       3.533  -1.915   7.690  0.00  0.00    -0.009 Cl
ATOM     13  H   UNL     1       1.313  -0.386   7.013  0.00  0.00    +0.455 HD
ATOM     14  C   UNL     1       3.621  -1.493   5.047  0.00  0.00    +0.192 A 
ATOM     15  N   UNL     1       4.779  -2.170   4.744  0.00  0.00    -0.227 NA
ATOM     16  C   UNL     1       4.980  -1.984   3.455  0.00  0.00    +0.204 A 
ENDBRANCH   3   6
BRANCH   1  17
ATOM     17  O   UNL     1       0.853  -0.094  -0.102  0.00  0.00    -0.386 OA
ATOM     18  H   UNL     1       0.565   0.663  -0.646  0.00  0.00    +0.210 HD
ENDBRANCH   1  17
BRANCH   2  19
ATOM     19  O   UNL     1       3.300  -2.175  -0.321  0.00  0.00    -0.385 OA
ATOM     20  H   UNL     1       3.176  -3.088  -0.005  0.00  0.00    +0.210 HD
ENDBRANCH   2  19
BRANCH   5  21
ATOM     21  C   UNL     1       2.874   2.451   0.237  0.00  0.00    +0.206 C 
BRANCH  21  22
ATOM     22  O   UNL     1       1.632   2.863  -0.320  0.00  0.00    -0.284 OA
BRANCH  22  23
ATOM     23  P   UNL     1       1.726   4.370  -1.164  0.00  0.00    +0.472 P 
ATOM     24  O   UNL     1       1.810   5.719  -1.919  0.00  0.00    -0.228 OA
BRANCH  23  25
ATOM     25  O   UNL     1       1.603   5.114   0.284  0.00  0.00    -0.303 OA
ATOM     26  H   UNL     1       1.387   6.045   0.062  0.00  0.00    +0.222 HD
ENDBRANCH  23  25
BRANCH  23  27
ATOM     27  O   UNL     1       0.126   4.143  -1.387  0.00  0.00    -0.303 OA
ATOM     28  H   UNL     1      -0.231   3.670  -0.615  0.00  0.00    +0.222 HD
ENDBRANCH  23  27
ENDBRANCH  22  23
ENDBRANCH  21  22
ENDBRANCH   5  21
TORSDOF 8
