REMARK  Name = 
REMARK  10 active torsions:
REMARK  status: ('A' for Active; 'I' for Inactive)
REMARK    1  A    between atoms: C_1  and  C_2
REMARK    2  A    between atoms: C_2  and  C_3
REMARK    3  A    between atoms: C_4  and  C_5
REMARK    4  A    between atoms: C_5  and  C_7
REMARK    5  A    between atoms: C_11  and  O_12
REMARK    6  A    between atoms: C_20  and  S_23
REMARK    7  A    between atoms: S_23  and  N_26
REMARK    8  A    between atoms: N_26  and  C_27
REMARK    9  A    between atoms: C_30  and  S_33
REMARK   10  A    between atoms: S_33  and  N_36
REMARK                            x       y       z     vdW  Elec       q    Type
REMARK                         _______ _______ _______ _____ _____    ______ ____
ROOT
ATOM      1  C   UNL     1       2.933  -1.282  -0.834  0.00  0.00    +0.117 A 
ATOM      2  O   UNL     1       3.610  -1.175  -2.014  0.00  0.00    -0.459 OA
ATOM      3  C   UNL     1       3.700  -2.418  -2.551  0.00  0.00    +0.138 A 
ATOM      4  C   UNL     1       4.342  -2.731  -3.748  0.00  0.00    +0.075 A 
ATOM      5  C   UNL     1       4.253  -4.068  -4.159  0.00  0.00    +0.112 A 
ATOM      6  C   UNL     1       3.568  -5.026  -3.401  0.00  0.00    +0.029 A 
ATOM      7  C   UNL     1       2.952  -4.671  -2.193  0.00  0.00    +0.014 A 
ATOM      8  C   UNL     1       3.047  -3.339  -1.740  0.00  0.00    +0.031 A 
ATOM      9  C   UNL     1       2.642  -2.614  -0.569  0.00  0.00    +0.071 A 
ENDROOT
BRANCH   5  10
ATOM     10  S   UNL     1       5.090  -4.584  -5.648  0.00  0.00    +0.072 S 
ATOM     11  O   UNL     1       5.391  -5.993  -5.498  0.00  0.00    -0.150 OA
ATOM     12  O   UNL     1       6.130  -3.621  -5.934  0.00  0.00    -0.150 OA
BRANCH  10  13
ATOM     13  N   UNL     1       3.895  -4.487  -6.831  0.00  0.00    -0.216 N 
ATOM     14  H   UNL     1       3.352  -5.340  -6.944  0.00  0.00    +0.174 HD
BRANCH  13  15
ATOM     15  C   UNL     1       3.285  -3.241  -7.113  0.00  0.00    +0.048 A 
ATOM     16  C   UNL     1       2.101  -2.878  -6.468  0.00  0.00    +0.026 A 
ATOM     17  C   UNL     1       1.535  -1.624  -6.706  0.00  0.00    +0.030 A 
ATOM     18  C   UNL     1       2.145  -0.755  -7.616  0.00  0.00    +0.109 A 
ATOM     19  C   UNL     1       3.327  -1.121  -8.269  0.00  0.00    +0.030 A 
ATOM     20  C   UNL     1       3.899  -2.367  -8.010  0.00  0.00    +0.026 A 
BRANCH  18  21
ATOM     21  S   UNL     1       1.517   0.888  -7.834  0.00  0.00    +0.074 S 
ATOM     22  O   UNL     1       2.617   1.750  -8.219  0.00  0.00    -0.150 OA
ATOM     23  O   UNL     1       0.715   1.206  -6.668  0.00  0.00    -0.150 OA
BRANCH  21  24
ATOM     24  N   UNL     1       0.409   0.739  -9.097  0.00  0.00    -0.194 N 
ATOM     25  H   UNL     1      -0.350   1.386  -8.889  0.00  0.00    +0.176 HD
ATOM     26  C   UNL     1       1.009   0.963 -10.354  0.00  0.00    +0.177 A 
ATOM     27  S   UNL     1       0.979   2.477 -11.146  0.00  0.00    -0.059 S 
ATOM     28  C   UNL     1       1.787   1.766 -12.483  0.00  0.00    +0.068 A 
ATOM     29  C   UNL     1       1.935   0.413 -12.263  0.00  0.00    +0.120 A 
ATOM     30  N   UNL     1       1.512  -0.041 -11.028  0.00  0.00    -0.232 NA
ENDBRANCH  21  24
ENDBRANCH  18  21
ENDBRANCH  13  15
ENDBRANCH  10  13
ENDBRANCH   5  10
BRANCH   1  32
ATOM     31  C   UNL     1       3.687   1.073  -0.311  0.00  0.00    +0.012 C 
ATOM     32  C   UNL     1       2.638  -0.010  -0.110  0.00  0.00    +0.072 C 
ENDBRANCH   1  32
BRANCH   9  33
ATOM     33  C   UNL     1       2.017  -3.092   0.656  0.00  0.00    +0.197 C 
ATOM     34  O   UNL     1       1.170  -2.436   1.255  0.00  0.00    -0.287 OA
BRANCH  33  35
ATOM     35  C   UNL     1       2.441  -4.400   1.242  0.00  0.00    +0.025 A 
ATOM     36  C   UNL     1       3.721  -4.932   1.030  0.00  0.00    +0.030 A 
ATOM     37  C   UNL     1       4.081  -6.152   1.610  0.00  0.00    +0.061 A 
ATOM     38 BR   UNL     1       5.804  -6.848   1.228  0.00  0.00    -0.046 Br
ATOM     39  C   UNL     1       3.188  -6.826   2.445  0.00  0.00    +0.145 A 
ATOM     40  C   UNL     1       1.923  -6.280   2.682  0.00  0.00    +0.061 A 
ATOM     41 BR   UNL     1       0.696  -7.152   3.836  0.00  0.00    -0.046 Br
ATOM     42  C   UNL     1       1.545  -5.078   2.081  0.00  0.00    +0.030 A 
BRANCH  39  43
ATOM     43  O   UNL     1       3.571  -8.004   3.028  0.00  0.00    -0.505 OA
ATOM     44  H   UNL     1       2.857  -8.297   3.622  0.00  0.00    +0.292 HD
ENDBRANCH  39  43
ENDBRANCH  33  35
ENDBRANCH   9  33
TORSDOF 9
