REMARK  Name = 
REMARK  15 active torsions:
REMARK  status: ('A' for Active; 'I' for Inactive)
REMARK    1  A    between atoms: O_1  and  C_2
REMARK    2  A    between atoms: C_4  and  O_6
REMARK    3  A    between atoms: C_7  and  O_9
REMARK    4  A    between atoms: O_9  and  P_10
REMARK    5  A    between atoms: P_10  and  O_11
REMARK    6  A    between atoms: P_10  and  O_12
REMARK    7  A    between atoms: C_14  and  O_16
REMARK    8  A    between atoms: O_16  and  P_17
REMARK    9  A    between atoms: P_17  and  O_18
REMARK   10  A    between atoms: P_17  and  O_19
REMARK   11  A    between atoms: C_21  and  O_23
REMARK   12  A    between atoms: C_24  and  O_26
REMARK   13  A    between atoms: O_26  and  P_27
REMARK   14  A    between atoms: P_27  and  O_28
REMARK   15  A    between atoms: P_27  and  O_29
REMARK                            x       y       z     vdW  Elec       q    Type
REMARK                         _______ _______ _______ _____ _____    ______ ____
ROOT
ATOM      1  C   UNL     1       2.790   0.016   0.101  0.00  0.00    +0.177 C 
ATOM      2  C   UNL     1       3.035   1.093  -0.997  0.00  0.00    +0.192 C 
ATOM      3  C   UNL     1       2.451   0.668  -2.327  0.00  0.00    +0.178 C 
ATOM      4  C   UNL     1       3.015  -0.720  -2.687  0.00  0.00    +0.193 C 
ATOM      5  C   UNL     1       2.550  -1.765  -1.668  0.00  0.00    +0.193 C 
ATOM      6  C   UNL     1       3.153  -1.415  -0.312  0.00  0.00    +0.177 C 
ENDROOT
BRANCH   1   7
ATOM      7  O   UNL     1       3.570   0.309   1.275  0.00  0.00    -0.386 OA
ATOM      8  H   UNL     1       4.474  -0.050   1.194  0.00  0.00    +0.210 HD
ENDBRANCH   1   7
BRANCH   3   9
ATOM      9  O   UNL     1       2.853   1.647  -3.282  0.00  0.00    -0.386 OA
ATOM     10  H   UNL     1       2.349   1.509  -4.112  0.00  0.00    +0.210 HD
ENDBRANCH   3   9
BRANCH   6  11
ATOM     11  O   UNL     1       2.685  -2.319   0.697  0.00  0.00    -0.386 OA
ATOM     12  H   UNL     1       2.932  -1.942   1.563  0.00  0.00    +0.210 HD
ENDBRANCH   6  11
BRANCH   2  13
ATOM     13  O   UNL     1       2.483   2.391  -0.667  0.00  0.00    -0.278 OA
BRANCH  13  14
ATOM     14  P   UNL     1       3.193   2.774   0.863  0.00  0.00    +0.473 P 
ATOM     15  O   UNL     1       3.828   3.117   2.233  0.00  0.00    -0.228 OA
BRANCH  14  16
ATOM     16  O   UNL     1       1.688   3.293   1.241  0.00  0.00    -0.303 OA
ATOM     17  H   UNL     1       1.649   4.221   0.947  0.00  0.00    +0.222 HD
ENDBRANCH  14  16
BRANCH  14  18
ATOM     18  O   UNL     1       3.608   4.193   0.155  0.00  0.00    -0.303 OA
ATOM     19  H   UNL     1       4.422   4.121  -0.371  0.00  0.00    +0.222 HD
ENDBRANCH  14  18
ENDBRANCH  13  14
ENDBRANCH   2  13
BRANCH   4  20
ATOM     20  O   UNL     1       4.480  -0.694  -2.709  0.00  0.00    -0.278 OA
BRANCH  20  21
ATOM     21  P   UNL     1       5.075   0.451  -3.862  0.00  0.00    +0.473 P 
ATOM     22  O   UNL     1       5.607   1.476  -4.894  0.00  0.00    -0.228 OA
BRANCH  21  23
ATOM     23  O   UNL     1       4.209  -0.363  -4.995  0.00  0.00    -0.303 OA
ATOM     24  H   UNL     1       4.833  -0.987  -5.410  0.00  0.00    +0.222 HD
ENDBRANCH  21  23
BRANCH  21  25
ATOM     25  O   UNL     1       6.348  -0.569  -4.013  0.00  0.00    -0.303 OA
ATOM     26  H   UNL     1       7.116  -0.287  -3.490  0.00  0.00    +0.222 HD
ENDBRANCH  21  25
ENDBRANCH  20  21
ENDBRANCH   4  20
BRANCH   5  27
ATOM     27  O   UNL     1       2.976  -3.086  -1.993  0.00  0.00    -0.278 OA
BRANCH  27  28
ATOM     28  P   UNL     1       2.662  -3.677  -3.444  0.00  0.00    +0.473 P 
ATOM     29  O   UNL     1       1.439  -3.184  -4.129  0.00  0.00    -0.228 OA
BRANCH  28  30
ATOM     30  O   UNL     1       2.689  -5.231  -3.085  0.00  0.00    -0.303 OA
ATOM     31  H   UNL     1       2.976  -5.338  -2.159  0.00  0.00    +0.222 HD
ENDBRANCH  28  30
BRANCH  28  32
ATOM     32  O   UNL     1       4.061  -3.535  -4.188  0.00  0.00    -0.303 OA
ATOM     33  H   UNL     1       4.175  -4.247  -4.841  0.00  0.00    +0.222 HD
ENDBRANCH  28  32
ENDBRANCH  27  28
ENDBRANCH   5  27
TORSDOF 15
