REMARK  Name = 
REMARK  10 active torsions:
REMARK  status: ('A' for Active; 'I' for Inactive)
REMARK    1  A    between atoms: N_1  and  CA_2
REMARK    2  A    between atoms: CA_2  and  C_4
REMARK    3  A    between atoms: CA_2  and  C_6
REMARK    4  A    between atoms: C_4  and  O_5
REMARK    5  A    between atoms: C_9  and  C_11
REMARK    6  A    between atoms: C_11  and  C_12
REMARK    7  A    between atoms: C_15  and  O_16
REMARK    8  A    between atoms: N_21  and  C_22
REMARK    9  A    between atoms: C_22  and  C_23
REMARK   10  A    between atoms: C_23  and  O_24
REMARK                            x       y       z     vdW  Elec       q    Type
REMARK                         _______ _______ _______ _____ _____    ______ ____
ROOT
ATOM      1  C   UNL     1       3.087  -0.825  -0.916  0.00  0.00    +0.164 C 
ATOM      2  N   UNL     1       2.570  -2.175  -0.791  0.00  0.00    -0.272 N 
ATOM      3  C   UNL     1       3.393  -3.085  -1.452  0.00  0.00    +0.235 C 
ATOM      4  O   UNL     1       3.152  -4.261  -1.658  0.00  0.00    -0.274 OA
ATOM      5  C   UNL     1       4.622  -2.306  -1.886  0.00  0.00    +0.146 C 
ATOM      6  N   UNL     1       4.524  -1.062  -1.080  0.00  0.00    -0.286 NA
ATOM      7  H   UNL     1       4.932  -1.247  -0.164  0.00  0.00    +0.124 HD
ENDROOT
BRANCH   1   8
ATOM      8  CA  UNL     1       2.756   0.139   0.274  0.00  0.00    +0.112 C 
BRANCH   8   9
ATOM      9  N   UNL     1       1.299   0.348   0.431  0.00  0.00    -0.323 NA
ATOM     10  H1  UNL     1       1.109   0.759   1.347  0.00  0.00    +0.119 HD
ATOM     11  H2  UNL     1       0.948   0.999  -0.271  0.00  0.00    +0.119 HD
ENDBRANCH   8   9
BRANCH   8  12
ATOM     12  C   UNL     1       3.474   1.497   0.122  0.00  0.00    +0.177 C 
BRANCH  12  13
ATOM     13  O   UNL     1       3.188   2.340   1.240  0.00  0.00    -0.393 OA
ATOM     14  H   UNL     1       2.236   2.535   1.221  0.00  0.00    +0.209 HD
ENDBRANCH  12  13
ENDBRANCH   8  12
ENDBRANCH   1   8
BRANCH   2  15
ATOM     15  C   UNL     1       1.134  -2.456  -0.640  0.00  0.00    +0.229 C 
BRANCH  15  16
ATOM     16  C   UNL     1       0.714  -2.742   0.800  0.00  0.00    +0.322 C 
ATOM     17  O   UNL     1      -0.443  -2.920   1.154  0.00  0.00    -0.249 OA
BRANCH  16  18
ATOM     18  O   UNL     1       1.758  -2.832   1.660  0.00  0.00    -0.480 OA
ATOM     19  H   UNL     1       2.586  -2.706   1.157  0.00  0.00    +0.295 HD
ENDBRANCH  16  18
ENDBRANCH  15  16
ENDBRANCH   2  15
BRANCH   5  20
ATOM     20  C   UNL     1       5.902  -3.130  -1.684  0.00  0.00    +0.063 C 
BRANCH  20  21
ATOM     21  C   UNL     1       7.146  -2.391  -2.121  0.00  0.00    -0.045 A 
ATOM     22  C   UNL     1       7.567  -2.432  -3.458  0.00  0.00    +0.007 A 
ATOM     23  C   UNL     1       8.677  -1.693  -3.870  0.00  0.00    +0.045 A 
ATOM     24  C   UNL     1       9.362  -0.907  -2.951  0.00  0.00    +0.117 A 
ATOM     25  C   UNL     1       8.976  -0.873  -1.616  0.00  0.00    +0.045 A 
ATOM     26  C   UNL     1       7.870  -1.618  -1.202  0.00  0.00    +0.007 A 
BRANCH  24  27
ATOM     27  O   UNL     1      10.413  -0.166  -3.404  0.00  0.00    -0.507 OA
ATOM     28  H   UNL     1      10.706   0.421  -2.688  0.00  0.00    +0.292 HD
ENDBRANCH  24  27
ENDBRANCH  20  21
ENDBRANCH   5  20
TORSDOF 10
