REMARK  Name = 
REMARK  25 active torsions:
REMARK  status: ('A' for Active; 'I' for Inactive)
REMARK    1  A    between atoms: C_1  and  C_2
REMARK    2  A    between atoms: N_4  and  C_5
REMARK    3  A    between atoms: C_8  and  O_10
REMARK    4  A    between atoms: C_11  and  C_13
REMARK    5  A    between atoms: C_13  and  O_14
REMARK    6  A    between atoms: O_14  and  P_15
REMARK    7  A    between atoms: P_15  and  O_16
REMARK    8  A    between atoms: P_15  and  O_18
REMARK    9  A    between atoms: O_18  and  P_19
REMARK   10  A    between atoms: P_19  and  O_20
REMARK   11  A    between atoms: P_19  and  O_22
REMARK   12  A    between atoms: O_22  and  P_23
REMARK   13  A    between atoms: P_23  and  O_24
REMARK   14  A    between atoms: P_23  and  O_26
REMARK   15  A    between atoms: O_26  and  P_27
REMARK   16  A    between atoms: P_27  and  O_28
REMARK   17  A    between atoms: P_27  and  O_30
REMARK   18  A    between atoms: O_30  and  P_31
REMARK   19  A    between atoms: P_31  and  O_32
REMARK   20  A    between atoms: P_31  and  O_34
REMARK   21  A    between atoms: O_34  and  C_35
REMARK   22  A    between atoms: C_35  and  C_36
REMARK   23  A    between atoms: C_39  and  N_47
REMARK   24  A    between atoms: C_41  and  O_43
REMARK   25  A    between atoms: C_44  and  O_46
REMARK                            x       y       z     vdW  Elec       q    Type
REMARK                         _______ _______ _______ _____ _____    ______ ____
ROOT
ATOM      1  P   UNL     1      13.861   8.657 -12.926  0.00  0.00    +0.492 P 
ATOM      2  O   UNL     1      15.024   9.537 -13.221  0.00  0.00    -0.226 OA
ENDROOT
BRANCH   1   3
ATOM      3  O   UNL     1      13.570   8.535 -11.359  0.00  0.00    -0.302 OA
ATOM      4  H   UNL     1      14.335   8.900 -10.863  0.00  0.00    +0.222 HD
ENDBRANCH   1   3
BRANCH   1   5
ATOM      5  O   UNL     1      12.493   9.224 -13.490  0.00  0.00    -0.186 OA
BRANCH   5   6
ATOM      6  P   UNL     1      12.296   9.488 -15.047  0.00  0.00    +0.492 P 
ATOM      7  O   UNL     1      11.616   8.354 -15.742  0.00  0.00    -0.226 OA
BRANCH   6   8
ATOM      8  O   UNL     1      11.401  10.810 -15.017  0.00  0.00    -0.302 OA
ATOM      9  H   UNL     1      10.465  10.572 -15.172  0.00  0.00    +0.222 HD
ENDBRANCH   6   8
BRANCH   6  10
ATOM     10  O   UNL     1      13.734   9.847 -15.599  0.00  0.00    -0.186 OA
BRANCH  10  11
ATOM     11  P   UNL     1      14.357  11.271 -16.359  0.00  0.00    +0.483 P 
ATOM     12  O   UNL     1      13.078  11.422 -17.184  0.00  0.00    -0.227 OA
BRANCH  11  13
ATOM     13  O   UNL     1      15.288  10.338 -17.329  0.00  0.00    -0.302 OA
ATOM     14  H   UNL     1      14.745  10.141 -18.119  0.00  0.00    +0.222 HD
ENDBRANCH  11  13
BRANCH  11  15
ATOM     15  O   UNL     1      14.979  12.696 -17.119  0.00  0.00    -0.284 OA
BRANCH  15  16
ATOM     16  C   UNL     1      16.305  13.022 -16.865  0.00  0.00    +0.206 C 
BRANCH  16  17
ATOM     17  C   UNL     1      16.756  14.242 -17.667  0.00  0.00    +0.178 C 
ATOM     18  C   UNL     1      16.747  14.118 -19.180  0.00  0.00    +0.178 C 
ATOM     19  C   UNL     1      15.500  14.850 -19.645  0.00  0.00    +0.195 C 
ATOM     20  C   UNL     1      14.842  15.333 -18.348  0.00  0.00    +0.253 C 
ATOM     21  O   UNL     1      15.889  15.365 -17.358  0.00  0.00    -0.346 OA
BRANCH  20  22
ATOM     22  N   UNL     1      14.223  16.647 -18.394  0.00  0.00    -0.286 N 
ATOM     23  C   UNL     1      13.532  17.159 -19.451  0.00  0.00    +0.167 A 
ATOM     24  N   UNL     1      13.393  16.641 -20.682  0.00  0.00    -0.216 NA
ATOM     25  C   UNL     1      12.687  17.461 -21.480  0.00  0.00    +0.225 A 
ATOM     26  N   UNL     1      12.113  18.644 -21.157  0.00  0.00    -0.219 NA
ATOM     27  C   UNL     1      12.229  19.101 -19.894  0.00  0.00    +0.147 A 
ATOM     28  N   UNL     1      11.593  20.295 -19.566  0.00  0.00    -0.341 N 
ATOM     29  H   UNL     1      11.996  20.746 -18.750  0.00  0.00    +0.144 HD
ATOM     30  H   UNL     1      11.435  20.865 -20.383  0.00  0.00    +0.144 HD
ATOM     31  C   UNL     1      13.001  18.358 -18.982  0.00  0.00    +0.147 A 
ATOM     32  N   UNL     1      13.360  18.568 -17.667  0.00  0.00    -0.231 NA
ATOM     33  C   UNL     1      14.084  17.512 -17.346  0.00  0.00    +0.203 A 
ENDBRANCH  20  22
BRANCH  19  34
ATOM     34  O   UNL     1      14.652  13.977 -20.394  0.00  0.00    -0.385 OA
ATOM     35  H   UNL     1      13.935  14.543 -20.748  0.00  0.00    +0.210 HD
ENDBRANCH  19  34
BRANCH  18  36
ATOM     36  O   UNL     1      17.909  14.823 -19.695  0.00  0.00    -0.386 OA
ATOM     37  H   UNL     1      17.971  15.680 -19.231  0.00  0.00    +0.210 HD
ENDBRANCH  18  36
ENDBRANCH  16  17
ENDBRANCH  15  16
ENDBRANCH  11  15
ENDBRANCH  10  11
ENDBRANCH   6  10
ENDBRANCH   5   6
ENDBRANCH   1   5
BRANCH   1  38
ATOM     38  O   UNL     1      14.000   7.172 -13.445  0.00  0.00    -0.186 OA
BRANCH  38  39
ATOM     39  P   UNL     1      14.839   5.969 -12.854  0.00  0.00    +0.492 P 
ATOM     40  O   UNL     1      14.135   5.179 -11.804  0.00  0.00    -0.226 OA
BRANCH  39  41
ATOM     41  O   UNL     1      15.124   5.119 -14.185  0.00  0.00    -0.302 OA
ATOM     42  H   UNL     1      15.315   5.676 -14.962  0.00  0.00    +0.222 HD
ENDBRANCH  39  41
BRANCH  39  43
ATOM     43  O   UNL     1      16.298   6.513 -12.410  0.00  0.00    -0.186 OA
BRANCH  43  44
ATOM     44  P   UNL     1      16.201   6.603 -10.685  0.00  0.00    +0.483 P 
ATOM     45  O   UNL     1      17.692   6.303 -10.521  0.00  0.00    -0.227 OA
BRANCH  44  46
ATOM     46  O   UNL     1      16.103   6.693  -8.960  0.00  0.00    -0.302 OA
ATOM     47  H   UNL     1      17.026   6.515  -8.679  0.00  0.00    +0.222 HD
ENDBRANCH  44  46
BRANCH  44  48
ATOM     48  O   UNL     1      16.027   8.248 -10.748  0.00  0.00    -0.284 OA
BRANCH  48  49
ATOM     49  C   UNL     1      17.006   9.067 -10.107  0.00  0.00    +0.206 C 
BRANCH  49  52
ATOM     50  C   UNL     1      17.608  12.040 -11.561  0.00  0.00    +0.226 C 
ATOM     51  O   UNL     1      16.558  11.077 -11.471  0.00  0.00    -0.348 OA
ATOM     52  C   UNL     1      16.586  10.541 -10.132  0.00  0.00    +0.175 C 
ATOM     53  C   UNL     1      17.585  11.391  -9.339  0.00  0.00    +0.150 C 
ATOM     54  C   UNL     1      17.697  12.637 -10.174  0.00  0.00    +0.088 C 
BRANCH  50  63
ATOM     55  C   UNL     1      16.442  16.569 -13.377  0.00  0.00    +0.051 C 
ATOM     56  C   UNL     1      17.005  15.186 -13.437  0.00  0.00    +0.030 A 
ATOM     57  C   UNL     1      17.841  14.860 -14.609  0.00  0.00    +0.257 A 
ATOM     58  O   UNL     1      18.126  15.703 -15.451  0.00  0.00    -0.267 OA
ATOM     59  N   UNL     1      18.242  13.560 -14.721  0.00  0.00    -0.275 N 
ATOM     60  H   UNL     1      18.680  13.274 -15.582  0.00  0.00    +0.173 HD
ATOM     61  C   UNL     1      17.896  12.549 -13.872  0.00  0.00    +0.331 A 
ATOM     62  O   UNL     1      18.064  11.384 -14.217  0.00  0.00    -0.246 OA
ATOM     63  N   UNL     1      17.403  12.969 -12.648  0.00  0.00    -0.274 N 
ATOM     64  C   UNL     1      16.904  14.251 -12.483  0.00  0.00    +0.101 A 
ENDBRANCH  50  63
BRANCH  53  65
ATOM     65  O   UNL     1      17.134  11.684  -8.029  0.00  0.00    -0.389 OA
ATOM     66  H   UNL     1      16.293  12.172  -8.090  0.00  0.00    +0.210 HD
ENDBRANCH  53  65
ENDBRANCH  49  52
ENDBRANCH  48  49
ENDBRANCH  44  48
ENDBRANCH  43  44
ENDBRANCH  39  43
ENDBRANCH  38  39
ENDBRANCH   1  38
TORSDOF 24
