REMARK  Name = 
REMARK  2 active torsions:
REMARK  status: ('A' for Active; 'I' for Inactive)
REMARK    1  A    between atoms: O_1  and  C_2
REMARK    2  A    between atoms: C_2  and  C_4
REMARK                            x       y       z     vdW  Elec       q    Type
REMARK                         _______ _______ _______ _____ _____    ______ ____
ROOT
ATOM      1  C   UNL     1       3.056   0.084   1.287  0.00  0.00    +0.226 C 
ATOM      2  O   UNL     1       2.660  -1.027   2.124  0.00  0.00    -0.365 OA
ATOM      3  C   UNL     1       2.663  -0.572   3.490  0.00  0.00    +0.161 C 
ATOM      4  C   UNL     1       3.036   0.897   3.484  0.00  0.00    +0.031 C 
ATOM      5  C   UNL     1       2.708   1.326   2.077  0.00  0.00    +0.045 C 
ENDROOT
BRANCH   1   6
ATOM      6  C   UNL     1       2.329   0.026  -0.050  0.00  0.00    +0.334 C 
ATOM      7  O   UNL     1       2.402   0.877  -0.922  0.00  0.00    -0.248 OA
BRANCH   6   8
ATOM      8  O   UNL     1       1.573  -1.097  -0.165  0.00  0.00    -0.479 OA
ATOM      9  H   UNL     1       1.676  -1.614   0.668  0.00  0.00    +0.295 HD
ENDBRANCH   6   8
ENDBRANCH   1   6
TORSDOF 2
