REMARK  Name = 
REMARK  5 active torsions:
REMARK  status: ('A' for Active; 'I' for Inactive)
REMARK    1  A    between atoms: N_1  and  CA_2
REMARK    2  A    between atoms: CA_2  and  C_4
REMARK    3  A    between atoms: CA_2  and  C_10
REMARK    4  A    between atoms: C_4  and  C_5
REMARK    5  A    between atoms: C_10  and  O_11
REMARK                            x       y       z     vdW  Elec       q    Type
REMARK                         _______ _______ _______ _____ _____    ______ ____
ROOT
ATOM      1  CA  UNL     1       2.370  -0.070  -0.004  0.00  0.00    +0.165 C 
ENDROOT
BRANCH   1   2
ATOM      2  N   UNL     1       0.868  -0.072  -0.047  0.00  0.00    -0.318 NA
ATOM      3  H1  UNL     1       0.532  -0.520   0.815  0.00  0.00    +0.119 HD
ATOM      4  H2  UNL     1       0.571   0.903   0.083  0.00  0.00    +0.119 HD
ENDBRANCH   1   2
BRANCH   1   5
ATOM      5  C   UNL     1       2.867  -1.351  -0.692  0.00  0.00    +0.322 C 
ATOM      6  OXT UNL     1       4.027  -1.727  -0.730  0.00  0.00    -0.249 OA
BRANCH   5   7
ATOM      7  O   UNL     1       1.842  -2.026  -1.275  0.00  0.00    -0.480 OA
ATOM      8  H   UNL     1       1.033  -1.478  -1.102  0.00  0.00    +0.295 HD
ENDBRANCH   5   7
ENDBRANCH   1   5
BRANCH   1   9
ATOM      9  C   UNL     1       2.947  -0.014   1.420  0.00  0.00    +0.072 C 
BRANCH   9  10
ATOM     10  C   UNL     1       2.549   1.231   2.161  0.00  0.00    -0.008 A 
ATOM     11  S   UNL     1       1.130   1.252   3.124  0.00  0.00    -0.102 S 
ATOM     12  C   UNL     1       1.379   2.881   3.571  0.00  0.00    +0.045 A 
ATOM     13  C   UNL     1       2.530   3.397   3.019  0.00  0.00    +0.008 A 
ATOM     14  C   UNL     1       3.208   2.444   2.207  0.00  0.00    +0.011 A 
ENDBRANCH   9  10
ENDBRANCH   1   9
TORSDOF 5
