REMARK  Name = 
REMARK  2 active torsions:
REMARK  status: ('A' for Active; 'I' for Inactive)
REMARK    1  A    between atoms: C_2  and  C_6
REMARK    2  A    between atoms: C_11  and  C_15
REMARK                            x       y       z     vdW  Elec       q    Type
REMARK                         _______ _______ _______ _____ _____    ______ ____
ROOT
ATOM      1  C   UNL     1       3.137  -1.007   0.773  0.00  0.00    +0.063 A 
ATOM      2  C   UNL     1       4.106  -0.694   1.748  0.00  0.00    +0.045 A 
ATOM      3  C   UNL     1       4.713  -1.730   2.472  0.00  0.00    +0.090 A 
ATOM      4  C   UNL     1       4.331  -3.038   2.219  0.00  0.00    +0.067 A 
ATOM      5  N   UNL     1       5.088  -3.765   3.088  0.00  0.00    -0.338 N 
ATOM      6  H   UNL     1       5.129  -4.772   3.245  0.00  0.00    +0.167 HD
ATOM      7  C   UNL     1       5.894  -2.918   3.811  0.00  0.00    +0.139 A 
ATOM      8  C   UNL     1       3.383  -3.402   1.268  0.00  0.00    +0.028 A 
ATOM      9  N   UNL     1       5.673  -1.660   3.448  0.00  0.00    -0.228 NA
ATOM     10  C   UNL     1       2.800  -2.356   0.543  0.00  0.00    +0.018 A 
ENDROOT
BRANCH   1  14
ATOM     11  N   UNL     1       3.157   1.149  -0.319  0.00  0.00    -0.250 N 
ATOM     12  H   UNL     1       4.141   1.220  -0.081  0.00  0.00    +0.288 HD
ATOM     13  H   UNL     1       2.741   1.923  -0.815  0.00  0.00    +0.288 HD
ATOM     14  C   UNL     1       2.480   0.070   0.014  0.00  0.00    +0.266 C 
ATOM     15  N   UNL     1       1.212  -0.049  -0.322  0.00  0.00    -0.288 N 
ATOM     16  H   UNL     1       0.718   0.658  -0.847  0.00  0.00    +0.301 HD
ATOM     17  H   UNL     1       0.687  -0.867  -0.028  0.00  0.00    +0.301 HD
ENDBRANCH   1  14
BRANCH   7  18
ATOM     18  C   UNL     1       6.836  -3.458   4.815  0.00  0.00    +0.010 A 
ATOM     19  C   UNL     1       6.924  -4.872   5.066  0.00  0.00    -0.098 A 
ATOM     20  O   UNL     1       6.219  -5.769   4.478  0.00  0.00    -0.873 OA
ATOM     21  C   UNL     1       7.875  -5.239   6.042  0.00  0.00    -0.008 A 
ATOM     22  C   UNL     1       8.683  -4.322   6.725  0.00  0.00    -0.001 A 
ATOM     23  C   UNL     1       8.568  -2.966   6.460  0.00  0.00    +0.001 A 
ATOM     24  C   UNL     1       7.648  -2.536   5.510  0.00  0.00    +0.011 A 
ENDBRANCH   7  18
TORSDOF 2
