REMARK  Name = 
REMARK  18 active torsions:
REMARK  status: ('A' for Active; 'I' for Inactive)
REMARK    1  A    between atoms: C_1  and  C_2
REMARK    2  A    between atoms: C_2  and  C_3
REMARK    3  A    between atoms: C_3  and  C_5
REMARK    4  A    between atoms: C_3  and  C_6
REMARK    5  A    between atoms: C_6  and  O_8
REMARK    6  A    between atoms: O_8  and  C_9
REMARK    7  A    between atoms: C_12  and  C_14
REMARK    8  A    between atoms: C_19  and  C_21
REMARK    9  A    between atoms: C_22  and  C_24
REMARK   10  A    between atoms: C_24  and  C_25
REMARK   11  A    between atoms: C_25  and  C_26
REMARK   12  A    between atoms: C_29  and  O_31
REMARK   13  A    between atoms: N_35  and  C_36
REMARK   14  A    between atoms: C_36  and  C_37
REMARK   15  A    between atoms: C_44  and  O_45
REMARK   16  A    between atoms: O_45  and  C_46
REMARK   17  A    between atoms: C_47  and  C_48
REMARK   18  A    between atoms: C_48  and  O_49
REMARK                            x       y       z     vdW  Elec       q    Type
REMARK                         _______ _______ _______ _____ _____    ______ ____
ROOT
ATOM      1  C   UNL     1       3.038   2.667   2.953  0.00  0.00    +0.079 C 
ATOM      2  N   UNL     1       3.206   3.151   4.349  0.00  0.00    -0.294 N 
ATOM      3  C   UNL     1       3.185   4.547   4.307  0.00  0.00    +0.219 C 
ATOM      4  O   UNL     1       2.202   5.178   4.678  0.00  0.00    -0.275 OA
ATOM      5  C   UNL     1       4.294   5.196   3.497  0.00  0.00    +0.127 C 
ATOM      6  C   UNL     1       4.391   4.605   2.092  0.00  0.00    +0.125 C 
ATOM      7  C   UNL     1       4.295   3.072   2.122  0.00  0.00    +0.054 C 
ENDROOT
BRANCH   6   8
ATOM      8  O   UNL     1       5.634   4.992   1.503  0.00  0.00    -0.391 OA
ATOM      9  H   UNL     1       5.445   5.455   0.666  0.00  0.00    +0.210 HD
ENDBRANCH   6   8
BRANCH   1  10
ATOM     10  C   UNL     1       2.603   1.209   2.727  0.00  0.00    +0.023 C 
BRANCH  10  11
ATOM     11  C   UNL     1       1.373   0.601   3.463  0.00  0.00    +0.006 C 
BRANCH  11  22
ATOM     12  C   UNL     1      -0.298   2.468   5.655  0.00  0.00    +0.185 C 
ATOM     13  C   UNL     1      -0.966   1.909   4.360  0.00  0.00    +0.063 C 
ATOM     14  C   UNL     1      -2.356   1.275   4.699  0.00  0.00    -0.044 C 
ATOM     15  C   UNL     1      -3.086   0.655   3.603  0.00  0.00    -0.000 C 
ATOM     16  C   UNL     1      -2.472   0.330   2.431  0.00  0.00    -0.023 C 
ATOM     17  C   UNL     1      -1.023   0.637   2.116  0.00  0.00    +0.012 C 
ATOM     18  C   UNL     1      -1.106   1.800   1.120  0.00  0.00    +0.012 C 
ATOM     19  C   UNL     1      -2.861   1.167   5.944  0.00  0.00    -0.020 C 
ATOM     20  C   UNL     1      -2.101   1.562   7.181  0.00  0.00    +0.012 C 
ATOM     21  C   UNL     1      -2.390   0.645   8.374  0.00  0.00    +0.012 C 
ATOM     22  C   UNL     1      -0.197   0.849   3.456  0.00  0.00    +0.007 C 
ATOM     23  C   UNL     1      -0.597   1.558   6.864  0.00  0.00    +0.052 C 
BRANCH  12  24
ATOM     24  O   UNL     1      -0.842   3.821   5.932  0.00  0.00    -0.461 OA
BRANCH  24  25
ATOM     25  C   UNL     1      -0.214   4.506   6.930  0.00  0.00    +0.310 C 
ATOM     26  O   UNL     1       0.756   4.063   7.538  0.00  0.00    -0.251 OA
BRANCH  25  27
ATOM     27  C   UNL     1      -0.836   5.839   7.355  0.00  0.00    +0.094 C 
ATOM     28  C   UNL     1      -2.086   6.357   6.654  0.00  0.00    +0.019 C 
BRANCH  27  30
ATOM     29  C   UNL     1       0.677   7.405   6.007  0.00  0.00    +0.004 C 
ATOM     30  C   UNL     1       0.282   6.900   7.386  0.00  0.00    +0.011 C 
ENDBRANCH  27  30
ENDBRANCH  25  27
ENDBRANCH  24  25
ENDBRANCH  12  24
ENDBRANCH  11  22
ENDBRANCH  10  11
ENDBRANCH   1  10
BRANCH   2  31
ATOM     31  C   UNL     1       4.216   2.507   5.240  0.00  0.00    +0.143 C 
BRANCH  31  32
ATOM     32  C   UNL     1       4.332   2.879   6.740  0.00  0.00    -0.030 A 
ATOM     33  C   UNL     1       3.807   2.018   7.721  0.00  0.00    +0.013 A 
ATOM     34  C   UNL     1       4.052   2.161   9.117  0.00  0.00    -0.017 A 
ATOM     35  C   UNL     1       3.537   1.181   9.976  0.00  0.00    +0.012 A 
ATOM     36  C   UNL     1       3.598   1.318  11.350  0.00  0.00    +0.046 A 
ATOM     37  C   UNL     1       4.130   2.483  11.879  0.00  0.00    +0.126 A 
ATOM     38  C   UNL     1       4.875   3.393  11.098  0.00  0.00    +0.027 A 
ATOM     39  C   UNL     1       4.802   3.250   9.648  0.00  0.00    -0.009 A 
ATOM     40  C   UNL     1       5.362   4.092   8.647  0.00  0.00    +0.009 A 
ATOM     41  C   UNL     1       5.127   3.914   7.241  0.00  0.00    +0.006 A 
BRANCH  37  42
ATOM     42  O   UNL     1       3.799   2.788  13.184  0.00  0.00    -0.495 OA
ATOM     43  C   UNL     1       2.403   3.146  13.218  0.00  0.00    +0.277 C 
ENDBRANCH  37  42
BRANCH  38  44
ATOM     44  C   UNL     1       5.570   4.479  11.904  0.00  0.00    +0.195 C 
BRANCH  44  45
ATOM     45  O   UNL     1       6.710   5.111  11.330  0.00  0.00    -0.390 OA
ATOM     46  H   UNL     1       7.124   5.626  12.046  0.00  0.00    +0.210 HD
ENDBRANCH  44  45
ENDBRANCH  38  44
ENDBRANCH  31  32
ENDBRANCH   2  31
TORSDOF 13
