REMARK  Name = 
REMARK  4 active torsions:
REMARK  status: ('A' for Active; 'I' for Inactive)
REMARK    1  A    between atoms: N_1  and  C_2
REMARK    2  A    between atoms: C_3  and  O_4
REMARK    3  A    between atoms: C_8  and  C_9
REMARK    4  A    between atoms: C_9  and  O_10
REMARK                            x       y       z     vdW  Elec       q    Type
REMARK                         _______ _______ _______ _____ _____    ______ ____
ROOT
ATOM      1  C   UNL     1       2.424   0.051   0.019  0.00  0.00    +0.081 A 
ATOM      2  C   UNL     1       3.113  -1.176   0.023  0.00  0.00    +0.083 A 
ATOM      3  C   UNL     1       4.512  -1.195   0.185  0.00  0.00    +0.017 A 
ATOM      4  C   UNL     1       5.232   0.000   0.276  0.00  0.00    +0.004 A 
ATOM      5  C   UNL     1       4.563   1.220   0.231  0.00  0.00    +0.047 A 
ATOM      6  C   UNL     1       3.178   1.230   0.128  0.00  0.00    +0.138 A 
ENDROOT
BRANCH   1   7
ATOM      7  N   UNL     1       1.014   0.171  -0.037  0.00  0.00    -0.355 N 
ATOM      8  H   UNL     1       0.556  -0.750  -0.069  0.00  0.00    +0.142 HD
ATOM      9  H   UNL     1       0.698   0.756  -0.807  0.00  0.00    +0.142 HD
ENDBRANCH   1   7
BRANCH   2  10
ATOM     10  C   UNL     1       2.364  -2.451  -0.144  0.00  0.00    +0.339 C 
ATOM     11  O   UNL     1       1.197  -2.590   0.188  0.00  0.00    -0.245 OA
BRANCH  10  12
ATOM     12  O   UNL     1       3.055  -3.427  -0.773  0.00  0.00    -0.477 OA
ATOM     13  H   UNL     1       3.892  -3.149  -1.186  0.00  0.00    +0.295 HD
ENDBRANCH  10  12
ENDBRANCH   2  10
BRANCH   6  14
ATOM     14  O   UNL     1       2.533   2.436   0.196  0.00  0.00    -0.505 OA
ATOM     15  H   UNL     1       1.616   2.203   0.440  0.00  0.00    +0.292 HD
ENDBRANCH   6  14
TORSDOF 4
