REMARK  Name = 
REMARK  1 active torsions:
REMARK  status: ('A' for Active; 'I' for Inactive)
REMARK    1  A    between atoms: O_1  and  N_2
REMARK                            x       y       z     vdW  Elec       q    Type
REMARK                         _______ _______ _______ _____ _____    ______ ____
ROOT
ATOM      1  N   UNL     1       2.747   0.172  -0.046  0.00  0.00    -0.085 NA
ATOM      2  C   UNL     1       3.316   1.242  -0.499  0.00  0.00    +0.133 C 
ATOM      3  C   UNL     1       2.692   2.485  -1.042  0.00  0.00    +0.026 A 
ATOM      4  C   UNL     1       1.373   2.868  -1.224  0.00  0.00    +0.012 A 
ATOM      5  C   UNL     1       1.122   4.127  -1.778  0.00  0.00    +0.001 A 
ATOM      6  C   UNL     1       2.181   4.976  -2.137  0.00  0.00    +0.002 A 
ATOM      7  C   UNL     1       3.507   4.578  -1.948  0.00  0.00    +0.024 A 
ATOM      8  C   UNL     1       3.747   3.334  -1.397  0.00  0.00    +0.041 A 
ATOM      9  N   UNL     1       4.973   2.750  -1.141  0.00  0.00    -0.312 N 
ATOM     10  H   UNL     1       5.887   3.167  -1.279  0.00  0.00    +0.152 HD
ATOM     11  C   UNL     1       4.828   1.488  -0.586  0.00  0.00    +0.074 C 
ATOM     12  C   UNL     1       5.833   0.674  -0.210  0.00  0.00    +0.069 C 
ATOM     13  C   UNL     1       5.957  -0.672   0.379  0.00  0.00    +0.010 A 
ATOM     14  C   UNL     1       5.076  -1.654   0.795  0.00  0.00    +0.011 A 
ATOM     15  C   UNL     1       5.584  -2.853   1.320  0.00  0.00    +0.016 A 
ATOM     16  C   UNL     1       6.966  -3.061   1.426  0.00  0.00    +0.020 A 
ATOM     17  C   UNL     1       7.868  -2.085   1.014  0.00  0.00    +0.039 A 
ATOM     18 BR   UNL     1       7.612  -4.690   2.136  0.00  0.00    -0.050 Br
ATOM     19  C   UNL     1       7.336  -0.915   0.501  0.00  0.00    +0.043 A 
ATOM     20  N   UNL     1       8.073   0.168   0.041  0.00  0.00    -0.281 N 
ATOM     21  H   UNL     1       9.079   0.237   0.026  0.00  0.00    +0.155 HD
ATOM     22  C   UNL     1       7.249   1.180  -0.408  0.00  0.00    +0.251 C 
ATOM     23  O   UNL     1       7.606   2.253  -0.863  0.00  0.00    -0.270 OA
ENDROOT
BRANCH   1  24
ATOM     24  O   UNL     1       1.355   0.219  -0.085  0.00  0.00    -0.409 OA
ATOM     25  H   UNL     1       1.102  -0.649   0.280  0.00  0.00    +0.328 HD
ENDBRANCH   1  24
TORSDOF 1
