REMARK  Name = 
REMARK  4 active torsions:
REMARK  status: ('A' for Active; 'I' for Inactive)
REMARK    1  A    between atoms: N_1  and  C_2
REMARK    2  A    between atoms: C_5  and  C_13
REMARK    3  A    between atoms: C_7  and  O_9
REMARK    4  A    between atoms: C_10  and  O_12
REMARK                            x       y       z     vdW  Elec       q    Type
REMARK                         _______ _______ _______ _____ _____    ______ ____
ROOT
ATOM      1  C   UNL     1       2.291   0.054  -0.143  0.00  0.00    +0.106 C 
ATOM      2  C   UNL     1       2.906  -1.305   0.311  0.00  0.00    +0.164 C 
ATOM      3  C   UNL     1       3.452  -1.349   1.753  0.00  0.00    +0.149 C 
ATOM      4  C   UNL     1       4.169  -0.073   2.230  0.00  0.00    +0.070 C 
ATOM      5  C   UNL     1       3.644   1.205   1.643  0.00  0.00    -0.025 C 
ATOM      6  C   UNL     1       2.820   1.247   0.583  0.00  0.00    -0.001 C 
ENDROOT
BRANCH   1   7
ATOM      7  N   UNL     1       0.824   0.087  -0.034  0.00  0.00    -0.322 NA
ATOM      8  H   UNL     1       0.581   0.092   0.955  0.00  0.00    +0.119 HD
ATOM      9  H   UNL     1       0.508   0.990  -0.391  0.00  0.00    +0.119 HD
ENDBRANCH   1   7
BRANCH   5  10
ATOM     10  C   UNL     1       4.105   2.529   2.314  0.00  0.00    +0.068 C 
ATOM     11  O   UNL     1       3.385   3.540   2.073  0.00  0.00    -0.545 OA
ATOM     12  O   UNL     1       5.143   2.426   3.024  0.00  0.00    -0.545 OA
ENDBRANCH   5  10
BRANCH   2  13
ATOM     13  O   UNL     1       3.956  -1.688  -0.606  0.00  0.00    -0.387 OA
ATOM     14  H   UNL     1       4.606  -0.969  -0.577  0.00  0.00    +0.210 HD
ENDBRANCH   2  13
BRANCH   3  15
ATOM     15  O   UNL     1       2.398  -1.697   2.666  0.00  0.00    -0.389 OA
ATOM     16  H   UNL     1       1.965  -0.862   2.905  0.00  0.00    +0.210 HD
ENDBRANCH   3  15
TORSDOF 4
