REMARK  Name = 
REMARK  26 active torsions:
REMARK  status: ('A' for Active; 'I' for Inactive)
REMARK    1  A    between atoms: C_1  and  C_2
REMARK    2  A    between atoms: C_2  and  O_3
REMARK    3  A    between atoms: O_3  and  C_4
REMARK    4  A    between atoms: C_4  and  C_5
REMARK    5  A    between atoms: C_5  and  O_6
REMARK    6  A    between atoms: O_6  and  C_7
REMARK    7  A    between atoms: C_7  and  C_8
REMARK    8  A    between atoms: C_8  and  O_9
REMARK    9  A    between atoms: O_9  and  C_10
REMARK   10  A    between atoms: C_10  and  C_11
REMARK   11  A    between atoms: C_11  and  O_12
REMARK   12  A    between atoms: O_12  and  C_13
REMARK   13  A    between atoms: C_13  and  C_14
REMARK   14  A    between atoms: C_14  and  O_15
REMARK   15  A    between atoms: O_15  and  C_16
REMARK   16  A    between atoms: C_16  and  C_17
REMARK   17  A    between atoms: C_17  and  O_18
REMARK   18  A    between atoms: O_18  and  C_19
REMARK   19  A    between atoms: C_19  and  C_20
REMARK   20  A    between atoms: C_20  and  O_21
REMARK   21  A    between atoms: O_21  and  C_22
REMARK   22  A    between atoms: C_22  and  C_23
REMARK   23  A    between atoms: C_23  and  O_24
REMARK   24  A    between atoms: O_24  and  C_25
REMARK   25  A    between atoms: C_25  and  C_26
REMARK   26  A    between atoms: C_26  and  O_27
REMARK                            x       y       z     vdW  Elec       q    Type
REMARK                         _______ _______ _______ _____ _____    ______ ____
ROOT
ATOM      1  C   UNL     1      14.107  -2.364   7.888  0.00  0.00    +0.188 C 
ENDROOT
BRANCH   1   2
ATOM      2  O   UNL     1      14.611  -2.844   9.138  0.00  0.00    -0.375 OA
BRANCH   2   3
ATOM      3  C   UNL     1      16.032  -2.778   9.191  0.00  0.00    +0.188 C 
BRANCH   3   4
ATOM      4  C   UNL     1      16.500  -3.192  10.580  0.00  0.00    +0.188 C 
BRANCH   4   5
ATOM      5  O   UNL     1      17.926  -3.183  10.613  0.00  0.00    -0.375 OA
BRANCH   5   6
ATOM      6  C   UNL     1      18.420  -3.574  11.892  0.00  0.00    +0.188 C 
BRANCH   6   7
ATOM      7  C   UNL     1      19.943  -3.562  11.859  0.00  0.00    +0.188 C 
BRANCH   7   8
ATOM      8  O   UNL     1      20.446  -3.957  13.134  0.00  0.00    -0.375 OA
BRANCH   8   9
ATOM      9  C   UNL     1      21.873  -3.961  13.151  0.00  0.00    +0.188 C 
BRANCH   9  10
ATOM     10  C   UNL     1      22.350  -4.387  14.534  0.00  0.00    +0.188 C 
BRANCH  10  11
ATOM     11  O   UNL     1      23.778  -4.410  14.567  0.00  0.00    -0.375 OA
BRANCH  11  12
ATOM     12  C   UNL     1      24.254  -4.786  15.866  0.00  0.00    +0.187 C 
BRANCH  12  13
ATOM     13  C   UNL     1      25.778  -4.812  15.833  0.00  0.00    +0.184 C 
BRANCH  13  14
ATOM     14  O   UNL     1      26.281  -3.518  15.506  0.00  0.00    -0.393 OA
ATOM     15  H   UNL     1      25.795  -3.250  14.702  0.00  0.00    +0.209 HD
ENDBRANCH  13  14
ENDBRANCH  12  13
ENDBRANCH  11  12
ENDBRANCH  10  11
ENDBRANCH   9  10
ENDBRANCH   8   9
ENDBRANCH   7   8
ENDBRANCH   6   7
ENDBRANCH   5   6
ENDBRANCH   4   5
ENDBRANCH   3   4
ENDBRANCH   2   3
ENDBRANCH   1   2
BRANCH   1  16
ATOM     16  C   UNL     1      12.582  -2.380   7.927  0.00  0.00    +0.188 C 
BRANCH  16  17
ATOM     17  O   UNL     1      12.128  -1.396   8.862  0.00  0.00    -0.375 OA
BRANCH  17  18
ATOM     18  C   UNL     1      10.711  -1.417   8.999  0.00  0.00    +0.188 C 
BRANCH  18  19
ATOM     19  C   UNL     1      10.300  -0.434  10.086  0.00  0.00    +0.188 C 
BRANCH  19  20
ATOM     20  O   UNL     1       8.876  -0.411  10.178  0.00  0.00    -0.375 OA
BRANCH  20  21
ATOM     21  C   UNL     1       8.436   0.506  11.177  0.00  0.00    +0.188 C 
BRANCH  21  22
ATOM     22  C   UNL     1       6.915   0.500  11.223  0.00  0.00    +0.188 C 
BRANCH  22  23
ATOM     23  O   UNL     1       6.471   1.418  12.219  0.00  0.00    -0.375 OA
BRANCH  23  24
ATOM     24  C   UNL     1       5.047   1.448  12.301  0.00  0.00    +0.188 C 
BRANCH  24  25
ATOM     25  C   UNL     1       4.632   2.442  13.377  0.00  0.00    +0.188 C 
BRANCH  25  26
ATOM     26  O   UNL     1       3.209   2.479  13.464  0.00  0.00    -0.378 OA
BRANCH  26  28
ATOM     27  C   UNL     1       1.258   3.383  14.495  0.00  0.00    +0.034 C 
ATOM     28  C   UNL     1       2.772   3.398  14.463  0.00  0.00    +0.156 C 
ENDBRANCH  26  28
ENDBRANCH  25  26
ENDBRANCH  24  25
ENDBRANCH  23  24
ENDBRANCH  22  23
ENDBRANCH  21  22
ENDBRANCH  20  21
ENDBRANCH  19  20
ENDBRANCH  18  19
ENDBRANCH  17  18
ENDBRANCH  16  17
ENDBRANCH   1  16
TORSDOF 25
