REMARK  Name = 
REMARK  6 active torsions:
REMARK  status: ('A' for Active; 'I' for Inactive)
REMARK    1  A    between atoms: O_1  and  C_2
REMARK    2  A    between atoms: C_2  and  C_3
REMARK    3  A    between atoms: C_6  and  S_8
REMARK    4  A    between atoms: C_9  and  O_11
REMARK    5  A    between atoms: C_12  and  O_14
REMARK    6  A    between atoms: C_15  and  O_17
REMARK                            x       y       z     vdW  Elec       q    Type
REMARK                         _______ _______ _______ _____ _____    ______ ____
ROOT
ATOM      1  C   UNL     1       2.857  -0.662   1.122  0.00  0.00    +0.176 C 
ATOM      2  C   UNL     1       4.389  -0.809   1.006  0.00  0.00    +0.176 C 
ATOM      3  C   UNL     1       4.776  -1.733  -0.161  0.00  0.00    +0.177 C 
ATOM      4  C   UNL     1       4.044  -3.083  -0.030  0.00  0.00    +0.184 C 
ATOM      5  C   UNL     1       2.526  -2.892   0.109  0.00  0.00    +0.204 C 
ATOM      6  O   UNL     1       2.136  -1.907   1.060  0.00  0.00    -0.356 OA
ENDROOT
BRANCH   2   7
ATOM      7  O   UNL     1       4.933  -1.278   2.247  0.00  0.00    -0.386 OA
ATOM      8  H   UNL     1       5.282  -2.185   2.113  0.00  0.00    +0.210 HD
ENDBRANCH   2   7
BRANCH   3   9
ATOM      9  O   UNL     1       4.498  -1.079  -1.403  0.00  0.00    -0.386 OA
ATOM     10  H   UNL     1       4.474  -1.752  -2.108  0.00  0.00    +0.210 HD
ENDBRANCH   3   9
BRANCH   4  11
ATOM     11  O   UNL     1       4.600  -3.775   1.113  0.00  0.00    -0.386 OA
ATOM     12  H   UNL     1       3.991  -4.501   1.358  0.00  0.00    +0.210 HD
ENDBRANCH   4  11
BRANCH   5  13
ATOM     13  S   UNL     1       1.678  -2.752  -1.496  0.00  0.00    -0.145 S 
ATOM     14  H   UNL     1       1.261  -1.490  -1.339  0.00  0.00    +0.104 HD
ENDBRANCH   5  13
BRANCH   1  15
ATOM     15  C   UNL     1       2.312   0.395   0.141  0.00  0.00    +0.190 C 
BRANCH  15  16
ATOM     16  O   UNL     1       0.907   0.574   0.319  0.00  0.00    -0.392 OA
ATOM     17  H   UNL     1       0.626   1.274  -0.296  0.00  0.00    +0.210 HD
ENDBRANCH  15  16
ENDBRANCH   1  15
TORSDOF 6
