REMARK  Name = 
REMARK  7 active torsions:
REMARK  status: ('A' for Active; 'I' for Inactive)
REMARK    1  A    between atoms: C_5  and  N_16
REMARK    2  A    between atoms: C_8  and  C_10
REMARK    3  A    between atoms: C_10  and  O_11
REMARK    4  A    between atoms: O_11  and  P_12
REMARK    5  A    between atoms: P_12  and  O_13
REMARK    6  A    between atoms: P_12  and  O_14
REMARK    7  A    between atoms: C_18  and  C_19
REMARK                            x       y       z     vdW  Elec       q    Type
REMARK                         _______ _______ _______ _____ _____    ______ ____
ROOT
ATOM      1  C   UNL     1       2.071   0.115   0.007  0.00  0.00    +0.201 C 
ATOM      2  F   UNL     1       0.720   0.124   0.093  0.00  0.00    -0.243 F 
ATOM      3  C   UNL     1       2.638  -1.150   0.614  0.00  0.00    +0.181 C 
ATOM      4  O   UNL     1       3.831  -0.774   1.348  0.00  0.00    -0.348 OA
ATOM      5  C   UNL     1       4.054   0.638   1.165  0.00  0.00    +0.227 C 
ATOM      6  C   UNL     1       2.664   1.190   0.877  0.00  0.00    +0.094 C 
ENDROOT
BRANCH   5   7
ATOM      7  N   UNL     1       5.063   0.853   0.111  0.00  0.00    -0.274 N 
ATOM      8  C   UNL     1       5.391   2.162  -0.219  0.00  0.00    +0.331 A 
ATOM      9  O   UNL     1       4.880   3.150   0.302  0.00  0.00    -0.246 OA
ATOM     10  N   UNL     1       6.348   2.304  -1.188  0.00  0.00    -0.275 N 
ATOM     11  H   UNL     1       6.588   3.248  -1.440  0.00  0.00    +0.173 HD
ATOM     12  C   UNL     1       7.077   1.305  -1.771  0.00  0.00    +0.257 A 
ATOM     13  O   UNL     1       7.978   1.527  -2.570  0.00  0.00    -0.267 OA
ATOM     14  C   UNL     1       6.730  -0.064  -1.344  0.00  0.00    +0.030 A 
ATOM     15  C   UNL     1       7.449  -1.216  -1.962  0.00  0.00    +0.051 C 
ATOM     16  C   UNL     1       5.775  -0.206  -0.418  0.00  0.00    +0.101 A 
ENDBRANCH   5   7
BRANCH   3  17
ATOM     17  C   UNL     1       2.955  -2.210  -0.439  0.00  0.00    +0.207 C 
BRANCH  17  18
ATOM     18  O   UNL     1       3.674  -3.238   0.217  0.00  0.00    -0.284 OA
BRANCH  18  19
ATOM     19  P   UNL     1       3.940  -4.606  -0.551  0.00  0.00    +0.472 P 
ATOM     20  O   UNL     1       4.263  -4.477  -1.996  0.00  0.00    -0.228 OA
BRANCH  19  21
ATOM     21  O   UNL     1       2.628  -5.415  -0.150  0.00  0.00    -0.303 OA
ATOM     22  H   UNL     1       2.401  -5.257   0.784  0.00  0.00    +0.222 HD
ENDBRANCH  19  21
BRANCH  19  23
ATOM     23  O   UNL     1       5.070  -5.251   0.368  0.00  0.00    -0.303 OA
ATOM     24  H   UNL     1       5.876  -4.702   0.359  0.00  0.00    +0.222 HD
ENDBRANCH  19  23
ENDBRANCH  18  19
ENDBRANCH  17  18
ENDBRANCH   3  17
TORSDOF 6
