REMARK  Name = 
REMARK  3 active torsions:
REMARK  status: ('A' for Active; 'I' for Inactive)
REMARK    1  A    between atoms: O_1  and  C_2
REMARK    2  A    between atoms: C_5  and  N_9
REMARK    3  A    between atoms: C_7  and  O_8
REMARK                            x       y       z     vdW  Elec       q    Type
REMARK                         _______ _______ _______ _____ _____    ______ ____
ROOT
ATOM      1  C   UNL     1       2.475  -0.034   0.052  0.00  0.00    +0.159 A 
ATOM      2  C   UNL     1       3.201  -1.225  -0.044  0.00  0.00    +0.165 A 
ATOM      3  C   UNL     1       4.584  -1.199  -0.207  0.00  0.00    +0.133 A 
ATOM      4  C   UNL     1       5.234   0.042  -0.273  0.00  0.00    +0.277 A 
ATOM      5  C   UNL     1       4.511   1.240  -0.173  0.00  0.00    +0.088 A 
ATOM      6  C   UNL     1       3.124   1.198  -0.009  0.00  0.00    +0.056 A 
ENDROOT
BRANCH   4   7
ATOM      7  N   UNL     1       6.691   0.087  -0.453  0.00  0.00    +0.080 N 
ATOM      8  O   UNL     1       7.294  -0.993  -0.533  0.00  0.00    +0.041 OA
ATOM      9  O   UNL     1       7.229   1.200  -0.517  0.00  0.00    -0.576 OA
ENDBRANCH   4   7
BRANCH   1  10
ATOM     10  O   UNL     1       1.119  -0.092   0.204  0.00  0.00    -0.503 OA
ATOM     11  H   UNL     1       0.754   0.806   0.211  0.00  0.00    +0.292 HD
ENDBRANCH   1  10
BRANCH   2  12
ATOM     12  O   UNL     1       2.536  -2.417   0.020  0.00  0.00    -0.503 OA
ATOM     13  H   UNL     1       3.163  -3.152  -0.076  0.00  0.00    +0.292 HD
ENDBRANCH   2  12
TORSDOF 3
