REMARK  Name = 
REMARK  7 active torsions:
REMARK  status: ('A' for Active; 'I' for Inactive)
REMARK    1  A    between atoms: O_1  and  P_2
REMARK    2  A    between atoms: P_2  and  O_4
REMARK    3  A    between atoms: P_2  and  O_12
REMARK    4  A    between atoms: O_4  and  C_5
REMARK    5  A    between atoms: C_5  and  C_6
REMARK    6  A    between atoms: O_12  and  C_13
REMARK    7  A    between atoms: C_14  and  C_15
REMARK                            x       y       z     vdW  Elec       q    Type
REMARK                         _______ _______ _______ _____ _____    ______ ____
ROOT
ATOM      1  P   UNL     1       3.698  -1.522  -2.171  0.00  0.00    +0.531 P 
ATOM      2  O   UNL     1       4.412  -0.170  -2.211  0.00  0.00    -0.215 OA
ENDROOT
BRANCH   1   3
ATOM      3  O   UNL     1       2.420  -0.794  -3.081  0.00  0.00    -0.293 OA
ATOM      4  H   UNL     1       2.484   0.145  -2.805  0.00  0.00    +0.223 HD
ENDBRANCH   1   3
BRANCH   1   5
ATOM      5  O   UNL     1       4.977  -2.251  -1.261  0.00  0.00    -0.403 OA
BRANCH   5   6
ATOM      6  C   UNL     1       5.687  -3.230  -1.933  0.00  0.00    +0.142 A 
ATOM      7  C   UNL     1       5.824  -3.183  -3.330  0.00  0.00    +0.047 A 
ATOM      8  C   UNL     1       6.480  -4.206  -4.020  0.00  0.00    +0.004 A 
ATOM      9  C   UNL     1       7.034  -5.274  -3.323  0.00  0.00    +0.001 A 
ATOM     10  C   UNL     1       6.931  -5.318  -1.933  0.00  0.00    +0.015 A 
ATOM     11  C   UNL     1       6.259  -4.301  -1.235  0.00  0.00    +0.056 A 
BRANCH  11  12
ATOM     12  C   UNL     1       6.152  -4.420   0.238  0.00  0.00    +0.262 C 
ATOM     13  O   UNL     1       6.614  -5.378   0.844  0.00  0.00    -0.296 OA
ENDBRANCH  11  12
ENDBRANCH   5   6
ENDBRANCH   1   5
BRANCH   1  14
ATOM     14  O   UNL     1       2.733  -1.538  -0.841  0.00  0.00    -0.277 OA
BRANCH  14  15
ATOM     15  C   UNL     1       1.467  -2.184  -0.868  0.00  0.00    +0.177 C 
BRANCH  15  16
ATOM     16  C   UNL     1       1.537  -3.699  -1.123  0.00  0.00    +0.015 C 
ATOM     17  C   UNL     1       0.125  -4.303  -1.232  0.00  0.00    +0.006 C 
ATOM     18  C   UNL     1      -0.605  -4.358   0.111  0.00  0.00    +0.000 C 
ATOM     19  C   UNL     1       0.221  -5.066   1.181  0.00  0.00    +0.000 C 
ATOM     20  C   UNL     1       1.627  -4.488   1.302  0.00  0.00    +0.000 C 
ATOM     21  C   UNL     1       2.338  -4.446  -0.048  0.00  0.00    +0.006 C 
ENDBRANCH  15  16
ENDBRANCH  14  15
ENDBRANCH   1  14
TORSDOF 7
