REMARK  Name = 
REMARK  6 active torsions:
REMARK  status: ('A' for Active; 'I' for Inactive)
REMARK    1  A    between atoms: N_1  and  CA_5
REMARK    2  A    between atoms: CA_5  and  C_7
REMARK    3  A    between atoms: CA_5  and  C_11
REMARK    4  A    between atoms: C_7  and  C_8
REMARK    5  A    between atoms: C_8  and  C_9
REMARK    6  A    between atoms: C_11  and  O_12
REMARK                            x       y       z     vdW  Elec       q    Type
REMARK                         _______ _______ _______ _____ _____    ______ ____
ROOT
ATOM      1  CA  UNL     1       2.423  -0.085  -0.006  0.00  0.00    +0.171 C 
ENDROOT
BRANCH   1   2
ATOM      2  N   UNL     1       0.907  -0.052  -0.057  0.00  0.00    +0.229 N 
ATOM      3  H1  UNL     1       0.594   0.866  -0.408  0.00  0.00    +0.200 HD
ATOM      4  H2  UNL     1       0.513  -0.137   0.890  0.00  0.00    +0.200 HD
ATOM      5  H3  UNL     1       0.515  -0.797  -0.641  0.00  0.00    +0.200 HD
ENDBRANCH   1   2
BRANCH   1   6
ATOM      6  C   UNL     1       2.904   1.040   0.903  0.00  0.00    +0.354 C 
ATOM      7  OXT UNL     1       2.402   2.156   0.844  0.00  0.00    -0.245 OA
BRANCH   6   8
ATOM      8  O   UNL     1       3.865   0.708   1.785  0.00  0.00    -0.477 OA
ATOM      9  H   UNL     1       4.192  -0.219   1.803  0.00  0.00    +0.295 HD
ENDBRANCH   6   8
ENDBRANCH   1   6
BRANCH   1  10
ATOM     10  C   UNL     1       2.941   0.092  -1.438  0.00  0.00    +0.073 C 
BRANCH  10  11
ATOM     11  C   UNL     1       4.462   0.190  -1.599  0.00  0.00    +0.077 C 
BRANCH  11  12
ATOM     12  C   UNL     1       5.195  -1.012  -1.062  0.00  0.00    +0.223 C 
ATOM     13  O   UNL     1       4.660  -1.793  -0.280  0.00  0.00    -0.301 OA
ENDBRANCH  11  12
ENDBRANCH  10  11
ENDBRANCH   1  10
TORSDOF 6
