REMARK  Name = 
REMARK  14 active torsions:
REMARK  status: ('A' for Active; 'I' for Inactive)
REMARK    1  A    between atoms: C_1  and  C_2
REMARK    2  A    between atoms: C_7  and  C_8
REMARK    3  A    between atoms: N_9  and  C_10
REMARK    4  A    between atoms: C_10  and  C_11
REMARK    5  A    between atoms: C_11  and  O_13
REMARK    6  A    between atoms: C_11  and  C_14
REMARK    7  A    between atoms: C_14  and  O_16
REMARK    8  A    between atoms: C_14  and  C_17
REMARK    9  A    between atoms: C_17  and  O_19
REMARK   10  A    between atoms: C_17  and  C_20
REMARK   11  A    between atoms: C_20  and  O_21
REMARK   12  A    between atoms: O_21  and  P_22
REMARK   13  A    between atoms: P_22  and  O_23
REMARK   14  A    between atoms: P_22  and  O_24
REMARK                            x       y       z     vdW  Elec       q    Type
REMARK                         _______ _______ _______ _____ _____    ______ ____
ROOT
ATOM      1  C   UNL     1       5.009  13.122  -1.100  0.00  0.00    +0.044 C 
ATOM      2  C   UNL     1       4.542  11.776  -1.569  0.00  0.00    -0.045 A 
ATOM      3  C   UNL     1       4.661  10.645  -0.767  0.00  0.00    -0.045 A 
ATOM      4  C   UNL     1       4.947  10.766   0.711  0.00  0.00    +0.044 C 
ATOM      5  C   UNL     1       4.388   9.372  -1.322  0.00  0.00    +0.031 A 
ATOM      6  C   UNL     1       3.877   9.156  -2.612  0.00  0.00    +0.069 A 
ATOM      7  N   UNL     1       3.545   7.912  -3.192  0.00  0.00    -0.320 N 
ATOM      8  C   UNL     1       2.793   7.942  -4.395  0.00  0.00    +0.170 A 
ATOM      9  C   UNL     1       2.489   9.268  -5.044  0.00  0.00    +0.171 A 
ATOM     10  N   UNL     1       2.936  10.383  -4.560  0.00  0.00    -0.237 NA
ATOM     11  C   UNL     1       1.654   9.292  -6.294  0.00  0.00    +0.282 A 
ATOM     12  O   UNL     1       1.276  10.325  -6.824  0.00  0.00    -0.265 OA
ATOM     13  N   UNL     1       1.337   8.052  -6.749  0.00  0.00    -0.272 N 
ATOM     14  H   UNL     1       0.768   7.994  -7.589  0.00  0.00    +0.174 HD
ATOM     15  C   UNL     1       1.636   6.876  -6.144  0.00  0.00    +0.351 A 
ATOM     16  O   UNL     1       1.246   5.831  -6.667  0.00  0.00    -0.245 OA
ATOM     17  N   UNL     1       2.360   6.866  -4.972  0.00  0.00    -0.173 NA
ATOM     18  C   UNL     1       3.621  10.350  -3.336  0.00  0.00    +0.089 A 
ATOM     19  C   UNL     1       3.996  11.614  -2.841  0.00  0.00    +0.033 A 
ENDROOT
BRANCH   7  20
ATOM     20  C   UNL     1       3.908   6.518  -2.749  0.00  0.00    +0.158 C 
BRANCH  20  21
ATOM     21  C   UNL     1       4.836   6.221  -1.555  0.00  0.00    +0.165 C 
BRANCH  21  22
ATOM     22  O   UNL     1       4.323   6.637  -0.287  0.00  0.00    -0.387 OA
ATOM     23  H   UNL     1       3.359   6.802  -0.395  0.00  0.00    +0.210 HD
ENDBRANCH  21  22
BRANCH  21  24
ATOM     24  C   UNL     1       5.182   4.707  -1.384  0.00  0.00    +0.175 C 
BRANCH  24  25
ATOM     25  O   UNL     1       6.072   4.534  -0.261  0.00  0.00    -0.387 OA
ATOM     26  H   UNL     1       6.719   5.261  -0.282  0.00  0.00    +0.210 HD
ENDBRANCH  24  25
BRANCH  24  27
ATOM     27  C   UNL     1       4.006   3.716  -1.174  0.00  0.00    +0.172 C 
BRANCH  27  28
ATOM     28  O   UNL     1       3.250   3.609  -2.383  0.00  0.00    -0.387 OA
ATOM     29  H   UNL     1       2.535   2.963  -2.239  0.00  0.00    +0.210 HD
ENDBRANCH  27  28
BRANCH  27  30
ATOM     30  C   UNL     1       3.078   4.012   0.020  0.00  0.00    +0.206 C 
BRANCH  30  31
ATOM     31  O   UNL     1       2.321   5.197  -0.211  0.00  0.00    -0.284 OA
BRANCH  31  32
ATOM     32  P   UNL     1       1.215   5.597   1.057  0.00  0.00    +0.472 P 
ATOM     33  O   UNL     1       0.225   5.955   2.193  0.00  0.00    -0.228 OA
BRANCH  32  34
ATOM     34  O   UNL     1       0.337   6.242  -0.160  0.00  0.00    -0.303 OA
ATOM     35  H   UNL     1       0.860   6.230  -0.979  0.00  0.00    +0.222 HD
ENDBRANCH  32  34
BRANCH  32  36
ATOM     36  O   UNL     1       2.201   6.881   1.288  0.00  0.00    -0.303 OA
ATOM     37  H   UNL     1       2.993   6.646   1.810  0.00  0.00    +0.222 HD
ENDBRANCH  32  36
ENDBRANCH  31  32
ENDBRANCH  30  31
ENDBRANCH  27  30
ENDBRANCH  24  27
ENDBRANCH  21  24
ENDBRANCH  20  21
ENDBRANCH   7  20
TORSDOF 12
