REMARK  Name = 
REMARK  13 active torsions:
REMARK  status: ('A' for Active; 'I' for Inactive)
REMARK    1  A    between atoms: C_1  and  C_2
REMARK    2  A    between atoms: N_4  and  C_5
REMARK    3  A    between atoms: C_5  and  C_7
REMARK    4  A    between atoms: C_5  and  B_18
REMARK    5  A    between atoms: C_7  and  C_8
REMARK    6  A    between atoms: B_18  and  O_19
REMARK    7  A    between atoms: B_18  and  O_20
REMARK    8  A    between atoms: B_18  and  O_21
REMARK    9  A    between atoms: O_21  and  C_22
REMARK   10  A    between atoms: C_22  and  C_23
REMARK   11  A    between atoms: C_23  and  N_25
REMARK   12  A    between atoms: C_23  and  C_26
REMARK   13  A    between atoms: C_26  and  O_27
REMARK                            x       y       z     vdW  Elec       q    Type
REMARK                         _______ _______ _______ _____ _____    ______ ____
ROOT
ATOM      1  C   UNK     1      11.963  -0.500   1.970  0.00  0.00    +0.000 C 
ENDROOT
BRANCH   1   4
ATOM      2  C   UNK     1      11.670   1.898  -0.121  0.00  0.00    +0.000 C 
ATOM      3  C   UNK     1      12.387   1.924   1.198  0.00  0.00    +0.000 C 
ATOM      4  N   UNK     1      12.511   0.859   2.049  0.00  0.00    +0.000 N 
ATOM      5  H   UNK     1      13.072   1.039   2.898  0.00  0.00    +0.000 HD
ATOM      6  O   UNK     1      12.912   2.980   1.520  0.00  0.00    +0.000 OA
ENDBRANCH   1   4
BRANCH   1   7
ATOM      7  B   UNK     1      10.555  -0.686   2.786  0.00  0.00    +0.000 B 
BRANCH   7   8
ATOM      8  O   UNK     1       9.463   0.004   2.066  0.00  0.00    +0.000 OA
ATOM      9  H   UNK     1       9.699   0.964   2.026  0.00  0.00    +0.000 HD
ENDBRANCH   7   8
BRANCH   7  10
ATOM     10  O   UNK     1      10.678  -0.120   4.154  0.00  0.00    +0.000 OA
ATOM     11  H   UNK     1      10.761   0.864   4.062  0.00  0.00    +0.000 HD
ENDBRANCH   7  10
BRANCH   7  12
ATOM     12  O   UNK     1      10.176  -2.140   2.887  0.00  0.00    +0.000 OA
BRANCH  12  13
ATOM     13  C   UNK     1      11.113  -2.938   3.599  0.00  0.00    +0.000 C 
BRANCH  13  14
ATOM     14  C   UNK     1      10.624  -4.388   3.675  0.00  0.00    +0.000 C 
BRANCH  14  15
ATOM     15  N   UNK     1      10.377  -4.902   2.327  0.00  0.00    +0.000 NA
ATOM     16  H   UNK     1      11.262  -4.858   1.769  0.00  0.00    +0.000 HD
ATOM     17  H   UNK     1      10.090  -5.905   2.385  0.00  0.00    +0.000 HD
ENDBRANCH  14  15
BRANCH  14  18
ATOM     18  C   UNK     1       9.371  -4.499   4.511  0.00  0.00    +0.000 C 
ATOM     19  O   UNK     1       8.353  -3.919   4.170  0.00  0.00    +0.000 OA
BRANCH  18  20
ATOM     20  O   UNK     1       9.360  -5.244   5.638  0.00  0.00    +0.000 OA
ATOM     21  H   UNK     1      10.144  -5.721   5.945  0.00  0.00    +0.000 HD
ENDBRANCH  18  20
ENDBRANCH  14  18
ENDBRANCH  13  14
ENDBRANCH  12  13
ENDBRANCH   7  12
ENDBRANCH   1   7
BRANCH   1  22
ATOM     22  C   UNK     1      12.000  -1.221   0.596  0.00  0.00    +0.000 C 
BRANCH  22  23
ATOM     23  C   UNK     1      13.228  -1.086  -0.314  0.00  0.00    +0.000 A 
ATOM     24  C   UNK     1      14.593  -0.872   0.077  0.00  0.00    +0.000 A 
ATOM     25  C   UNK     1      15.063  -0.927   1.410  0.00  0.00    +0.000 A 
ATOM     26  C   UNK     1      16.385  -0.649   1.735  0.00  0.00    +0.000 A 
ATOM     27  C   UNK     1      17.293  -0.311   0.742  0.00  0.00    +0.000 A 
ATOM     28  C   UNK     1      16.886  -0.290  -0.589  0.00  0.00    +0.000 A 
ATOM     29  C   UNK     1      15.559  -0.583  -0.934  0.00  0.00    +0.000 A 
ATOM     30  C   UNK     1      15.191  -0.580  -2.284  0.00  0.00    +0.000 A 
ATOM     31  C   UNK     1      13.886  -0.865  -2.660  0.00  0.00    +0.000 A 
ATOM     32  C   UNK     1      12.920  -1.105  -1.694  0.00  0.00    +0.000 A 
ENDBRANCH  22  23
ENDBRANCH   1  22
TORSDOF 12
