REMARK  Name = 
REMARK  16 active torsions:
REMARK  status: ('A' for Active; 'I' for Inactive)
REMARK    1  A    between atoms: C_1  and  O_2
REMARK    2  A    between atoms: O_2  and  C_3
REMARK    3  A    between atoms: C_13  and  C_15
REMARK    4  A    between atoms: C_15  and  O_17
REMARK    5  A    between atoms: O_17  and  C_18
REMARK    6  A    between atoms: C_25  and  N_27
REMARK    7  A    between atoms: C_33  and  O_34
REMARK    8  A    between atoms: C_49  and  O_50
REMARK    9  A    between atoms: O_50  and  C_51
REMARK   10  A    between atoms: C_54  and  C_55
REMARK   11  A    between atoms: C_54  and  C_56
REMARK   12  A    between atoms: C_57  and  N_65
REMARK   13  A    between atoms: C_59  and  O_61
REMARK   14  A    between atoms: C_62  and  O_64
REMARK   15  A    between atoms: N_65  and  C_66
REMARK   16  A    between atoms: N_65  and  C_67
REMARK                            x       y       z     vdW  Elec       q    Type
REMARK                         _______ _______ _______ _____ _____    ______ ____
ROOT
ATOM      1  C   UNL     1      10.838 -13.667  -9.648  0.00  0.00    +0.244 C 
ATOM      2  C   UNL     1       8.871 -14.033  -9.206  0.00  0.00    -0.003 A 
ATOM      3  C   UNL     1       7.604 -14.655  -8.102  0.00  0.00    +0.016 A 
ATOM      4  C   UNL     1       5.798 -15.193  -8.040  0.00  0.00    -0.012 A 
ATOM      5  C   UNL     1       4.330 -16.123  -7.239  0.00  0.00    -0.000 C 
ATOM      6  C   UNL     1       3.856 -17.516  -8.193  0.00  0.00    +0.157 C 
ATOM      7  C   UNL     1       4.637 -16.904  -9.372  0.00  0.00    +0.245 C 
ATOM      8  O   UNL     1       5.128 -17.928 -10.202  0.00  0.00    -0.476 OA
ATOM      9  C   UNL     1       6.456 -18.095  -9.801  0.00  0.00    +0.181 A 
ATOM     10  C   UNL     1       6.982 -18.276  -8.421  0.00  0.00    +0.087 A 
ATOM     11  C   UNL     1       8.285 -18.153  -8.189  0.00  0.00    +0.033 A 
ATOM     12  C   UNL     1       9.040 -17.672  -9.190  0.00  0.00    +0.006 A 
ATOM     13  C   UNL     1       8.524 -17.311 -10.474  0.00  0.00    +0.058 A 
ATOM     14  C   UNL     1      10.433 -17.619  -8.712  0.00  0.00    +0.103 C 
ATOM     15  C   UNL     1      11.089 -17.212  -9.967  0.00  0.00    +0.179 C 
ATOM     16  C   UNL     1      12.458 -16.869  -9.684  0.00  0.00    +0.313 C 
ATOM     17  O   UNL     1      13.090 -17.272  -8.721  0.00  0.00    -0.251 OA
ATOM     18  O   UNL     1      12.531 -15.661 -10.285  0.00  0.00    -0.460 OA
ATOM     19 CL   UNL     1       6.457 -18.174  -6.725  0.00  0.00    -0.080 Cl
ATOM     20  C   UNL     1       7.241 -17.567 -10.805  0.00  0.00    +0.160 A 
ATOM     21  C   UNL     1       2.404 -17.701  -8.331  0.00  0.00    +0.016 C 
ATOM     22  C   UNL     1       1.886 -16.908  -7.402  0.00  0.00    -0.001 C 
ATOM     23  C   UNL     1       2.996 -15.972  -6.779  0.00  0.00    +0.007 C 
ATOM     24  C   UNL     1       5.333 -15.352  -9.334  0.00  0.00    +0.004 A 
ATOM     25  C   UNL     1       6.197 -14.605 -10.279  0.00  0.00    +0.008 A 
ATOM     26  C   UNL     1       7.791 -13.932 -10.212  0.00  0.00    +0.008 A 
ATOM     27  C   UNL     1      12.086 -14.695  -9.323  0.00  0.00    +0.281 C 
ENDROOT
BRANCH  14  28
ATOM     28  N   UNL     1      10.589 -16.691  -7.520  0.00  0.00    +0.224 N 
ATOM     29  H   UNL     1      11.587 -16.592  -7.277  0.00  0.00    +0.200 HD
ATOM     30  H   UNL     1      10.172 -17.071  -6.656  0.00  0.00    +0.200 HD
ATOM     31  H   UNL     1      10.134 -15.775  -7.631  0.00  0.00    +0.200 HD
ENDBRANCH  14  28
BRANCH  20  32
ATOM     32  O   UNL     1       6.717 -17.106 -11.982  0.00  0.00    -0.503 OA
ATOM     33  H   UNL     1       7.108 -16.247 -12.228  0.00  0.00    +0.292 HD
ENDBRANCH  20  32
BRANCH   1  34
ATOM     34  O   UNL     1      12.324 -12.529 -10.053  0.00  0.00    -0.450 OA
BRANCH  34  35
ATOM     35  C   UNL     1      14.017 -11.998 -10.348  0.00  0.00    +0.342 C 
ATOM     36  O   UNL     1      13.762 -10.757 -10.504  0.00  0.00    -0.245 OA
BRANCH  35  39
ATOM     37  C   UNL     1      17.771  -9.677 -11.510  0.00  0.00    +0.124 A 
ATOM     38  C   UNL     1      16.389 -10.372 -11.126  0.00  0.00    +0.063 A 
ATOM     39  C   UNL     1      15.984 -11.850 -10.667  0.00  0.00    +0.089 A 
ATOM     40  C   UNL     1      17.631 -12.442 -10.719  0.00  0.00    +0.099 A 
ATOM     41  N   UNL     1      18.326 -13.702 -10.283  0.00  0.00    -0.316 N 
ATOM     42  H   UNL     1      17.767 -14.421  -9.859  0.00  0.00    +0.169 HD
ATOM     43  C   UNL     1      19.755 -14.049 -10.252  0.00  0.00    +0.291 A 
ATOM     44  C   UNL     1      20.819 -13.107 -10.796  0.00  0.00    +0.185 A 
ATOM     45  O   UNL     1      20.308 -12.006 -11.338  0.00  0.00    -0.449 OA
ATOM     46  C   UNL     1      22.177 -13.331 -10.799  0.00  0.00    +0.064 C 
ATOM     47  O   UNL     1      20.140 -15.122  -9.779  0.00  0.00    -0.264 OA
ATOM     48  C   UNL     1      18.943 -11.625 -11.175  0.00  0.00    +0.156 A 
ATOM     49  C   UNL     1      18.980 -10.313 -11.511  0.00  0.00    +0.094 A 
BRANCH  37  51
ATOM     50  C   UNL     1      17.575  -7.198 -12.050  0.00  0.00    +0.277 C 
ATOM     51  O   UNL     1      18.188  -8.439 -11.912  0.00  0.00    -0.495 OA
ENDBRANCH  37  51
ENDBRANCH  35  39
ENDBRANCH  34  35
ENDBRANCH   1  34
BRANCH   6  52
ATOM     52  O   UNL     1       4.184 -18.667  -7.321  0.00  0.00    -0.329 OA
BRANCH  52  53
ATOM     53  C   UNL     1       3.981 -20.108  -7.367  0.00  0.00    +0.283 C 
ATOM     54  C   UNL     1       4.813 -20.771  -8.454  0.00  0.00    +0.200 C 
ATOM     55  C   UNL     1       4.857 -22.301  -8.388  0.00  0.00    +0.168 C 
ATOM     56  C   UNL     1       5.296 -22.861  -6.990  0.00  0.00    +0.119 C 
ATOM     57  C   UNL     1       4.384 -22.124  -5.909  0.00  0.00    +0.085 C 
ATOM     58  C   UNL     1       4.883 -22.321  -4.452  0.00  0.00    +0.043 C 
ATOM     59  C   UNL     1       2.934 -22.638  -5.962  0.00  0.00    +0.043 C 
ATOM     60  O   UNL     1       4.416 -20.673  -6.093  0.00  0.00    -0.341 OA
BRANCH  56  61
ATOM     61  N   UNL     1       5.292 -24.381  -6.972  0.00  0.00    -0.301 NA
ATOM     62  C   UNL     1       6.130 -24.985  -8.022  0.00  0.00    +0.105 C 
ATOM     63  C   UNL     1       5.744 -24.960  -5.703  0.00  0.00    +0.105 C 
ENDBRANCH  56  61
BRANCH  54  64
ATOM     64  O   UNL     1       4.339 -20.371  -9.742  0.00  0.00    -0.384 OA
ATOM     65  H   UNL     1       3.456 -20.743  -9.882  0.00  0.00    +0.210 HD
ENDBRANCH  54  64
BRANCH  55  66
ATOM     66  O   UNL     1       5.786 -22.687  -9.421  0.00  0.00    -0.387 OA
ATOM     67  H   UNL     1       5.279 -23.220 -10.059  0.00  0.00    +0.210 HD
ENDBRANCH  55  66
ENDBRANCH  52  53
ENDBRANCH   6  52
TORSDOF 11
