REMARK  Name = 
REMARK  6 active torsions:
REMARK  status: ('A' for Active; 'I' for Inactive)
REMARK    1  A    between atoms: O_1  and  C_2
REMARK    2  A    between atoms: C_5  and  C_16
REMARK    3  A    between atoms: C_9  and  O_11
REMARK    4  A    between atoms: O_11  and  S_12
REMARK    5  A    between atoms: S_12  and  O_13
REMARK    6  A    between atoms: C_16  and  O_17
REMARK                            x       y       z     vdW  Elec       q    Type
REMARK                         _______ _______ _______ _____ _____    ______ ____
ROOT
ATOM      1  C   UNL     1       2.427  -0.187   0.008  0.00  0.00    +0.151 C 
ATOM      2  C   UNL     1       2.821   0.914  -0.996  0.00  0.00    +0.206 C 
ATOM      3  C   UNL     1       2.487   0.451  -2.420  0.00  0.00    +0.197 C 
ATOM      4  O   UNL     1       3.035  -0.839  -2.713  0.00  0.00    -0.363 OA
ATOM      5  C   UNL     1       2.492  -1.851  -1.847  0.00  0.00    +0.229 C 
ATOM      6  C   UNL     1       2.929  -1.562  -0.420  0.00  0.00    +0.077 C 
ENDROOT
BRANCH   1   7
ATOM      7  O   UNL     1       2.919   0.118   1.315  0.00  0.00    -0.389 OA
ATOM      8  H   UNL     1       3.892   0.130   1.294  0.00  0.00    +0.210 HD
ENDBRANCH   1   7
BRANCH   5   9
ATOM      9  C   UNL     1       3.004  -3.216  -2.304  0.00  0.00    +0.334 C 
ATOM     10  O   UNL     1       2.764  -4.272  -1.739  0.00  0.00    -0.248 OA
BRANCH   9  11
ATOM     11  O   UNL     1       3.764  -3.130  -3.424  0.00  0.00    -0.479 OA
ATOM     12  H   UNL     1       3.817  -2.183  -3.692  0.00  0.00    +0.295 HD
ENDBRANCH   9  11
ENDBRANCH   5   9
BRANCH   2  13
ATOM     13  O   UNL     1       2.105   2.098  -0.642  0.00  0.00    -0.208 OA
BRANCH  13  14
ATOM     14  S   UNL     1       2.456   3.487  -1.398  0.00  0.00    +0.208 S 
ATOM     15  O   UNL     1       1.925   3.417  -2.739  0.00  0.00    -0.118 OA
ATOM     16  O   UNL     1       3.842   3.797  -1.134  0.00  0.00    -0.118 OA
BRANCH  14  17
ATOM     17  O   UNL     1       1.589   4.561  -0.573  0.00  0.00    -0.231 OA
ATOM     18  H   UNL     1       2.075   4.780   0.246  0.00  0.00    +0.247 HD
ENDBRANCH  14  17
ENDBRANCH  13  14
ENDBRANCH   2  13
TORSDOF 6
