REMARK  Name = 
REMARK  1 active torsions:
REMARK  status: ('A' for Active; 'I' for Inactive)
REMARK    1  A    between atoms: C_5  and  C_6
REMARK                            x       y       z     vdW  Elec       q    Type
REMARK                         _______ _______ _______ _____ _____    ______ ____
ROOT
ATOM      1  O   UNL     1       1.042   0.010   0.309  0.00  0.00    -0.247 OA
ATOM      2  C   UNL     1       2.257  -0.037   0.159  0.00  0.00    +0.327 A 
ATOM      3  N   UNL     1       2.940  -1.216   0.070  0.00  0.00    -0.274 N 
ATOM      4  H   UNL     1       2.402  -2.067   0.131  0.00  0.00    +0.173 HD
ATOM      5  C   UNL     1       4.287  -1.342  -0.147  0.00  0.00    +0.269 A 
ATOM      6  O   UNL     1       4.814  -2.446  -0.259  0.00  0.00    -0.266 OA
ATOM      7  C   UNL     1       5.060  -0.068  -0.247  0.00  0.00    +0.105 A 
ATOM      8  C   UNL     1       4.376   1.079  -0.131  0.00  0.00    +0.109 A 
ATOM      9  N   UNL     1       3.021   1.093   0.062  0.00  0.00    -0.313 N 
ATOM     10  H   UNL     1       2.518   1.971   0.130  0.00  0.00    +0.170 HD
ENDROOT
BRANCH   7  11
ATOM     11  C   UNL     1       6.464  -0.072  -0.476  0.00  0.00    -0.063 C 
ATOM     12  C   UNL     1       7.647  -0.082  -0.682  0.00  0.00    +0.009 C 
ENDBRANCH   7  11
TORSDOF 1
