REMARK  Name = 
REMARK  19 active torsions:
REMARK  status: ('A' for Active; 'I' for Inactive)
REMARK    1  A    between atoms: C_1  and  C_2
REMARK    2  A    between atoms: C_2  and  C_3
REMARK    3  A    between atoms: C_3  and  O_4
REMARK    4  A    between atoms: C_6  and  O_8
REMARK    5  A    between atoms: O_8  and  C_9
REMARK    6  A    between atoms: C_12  and  N_44
REMARK    7  A    between atoms: C_14  and  O_16
REMARK    8  A    between atoms: O_16  and  C_17
REMARK    9  A    between atoms: C_20  and  O_22
REMARK   10  A    between atoms: C_23  and  O_25
REMARK   11  A    between atoms: O_25  and  C_26
REMARK   12  A    between atoms: C_32  and  C_34
REMARK   13  A    between atoms: C_36  and  C_38
REMARK   14  A    between atoms: C_40  and  C_42
REMARK   15  A    between atoms: N_44  and  C_45
REMARK   16  A    between atoms: N_44  and  C_46
REMARK   17  A    between atoms: C_48  and  O_49
REMARK   18  A    between atoms: C_54  and  O_56
REMARK   19  A    between atoms: C_63  and  O_64
REMARK                            x       y       z     vdW  Elec       q    Type
REMARK                         _______ _______ _______ _____ _____    ______ ____
ROOT
ATOM      1  C   UNL     1       5.559   2.145   1.589  0.00  0.00    +0.098 C 
ATOM      2  C   UNL     1       5.977   3.065   0.411  0.00  0.00    +0.177 C 
ATOM      3  C   UNL     1       6.527   2.283  -0.767  0.00  0.00    -0.007 A 
ATOM      4  C   UNL     1       6.216   0.921  -0.972  0.00  0.00    +0.029 A 
ATOM      5  C   UNL     1       6.783   0.269  -2.095  0.00  0.00    +0.134 A 
ATOM      6  C   UNL     1       7.638   0.925  -2.995  0.00  0.00    +0.075 A 
ATOM      7  C   UNL     1       8.375   0.214  -4.079  0.00  0.00    +0.202 C 
ATOM      8  O   UNL     1       8.489  -1.009  -4.031  0.00  0.00    -0.286 OA
ATOM      9  C   UNL     1       9.049   1.003  -5.143  0.00  0.00    +0.075 A 
ATOM     10  C   UNL     1       9.207   2.380  -4.973  0.00  0.00    +0.037 A 
ATOM     11  C   UNL     1       9.875   3.151  -5.938  0.00  0.00    +0.012 A 
ATOM     12  C   UNL     1      10.392   2.543  -7.079  0.00  0.00    +0.004 A 
ATOM     13  C   UNL     1      10.249   1.170  -7.256  0.00  0.00    +0.046 A 
ATOM     14  C   UNL     1       8.677   3.054  -3.776  0.00  0.00    +0.195 C 
ATOM     15  O   UNL     1       8.882   4.249  -3.593  0.00  0.00    -0.287 OA
ATOM     16  C   UNL     1       9.574   0.407  -6.298  0.00  0.00    +0.128 A 
ATOM     17  C   UNL     1       7.865   2.284  -2.818  0.00  0.00    +0.037 A 
ATOM     18  C   UNL     1       5.277   0.143  -0.048  0.00  0.00    +0.158 C 
ATOM     19  C   UNL     1       7.317   2.954  -1.720  0.00  0.00    +0.019 A 
ATOM     20  C   UNL     1       4.661   1.008   1.063  0.00  0.00    +0.074 C 
ENDROOT
BRANCH   1  22
ATOM     21  C   UNL     1       3.519   3.572   2.370  0.00  0.00    +0.007 C 
ATOM     22  C   UNL     1       4.858   2.942   2.721  0.00  0.00    +0.034 C 
ENDBRANCH   1  22
BRANCH   1  23
ATOM     23  O   UNL     1       6.736   1.614   2.222  0.00  0.00    -0.386 OA
ATOM     24  H   UNL     1       7.346   1.291   1.536  0.00  0.00    +0.210 HD
ENDBRANCH   1  23
BRANCH   2  25
ATOM     25  O   UNL     1       6.956   3.993   0.886  0.00  0.00    -0.384 OA
ATOM     26  H   UNL     1       7.006   4.737   0.266  0.00  0.00    +0.210 HD
ENDBRANCH   2  25
BRANCH  16  27
ATOM     27  O   UNL     1       9.416  -0.929  -6.529  0.00  0.00    -0.506 OA
ATOM     28  H   UNL     1       9.925  -1.205  -7.308  0.00  0.00    +0.292 HD
ENDBRANCH  16  27
BRANCH   5  29
ATOM     29  O   UNL     1       6.479  -1.051  -2.293  0.00  0.00    -0.506 OA
ATOM     30  H   UNL     1       6.552  -1.477  -1.415  0.00  0.00    +0.292 HD
ENDBRANCH   5  29
BRANCH  18  31
ATOM     31  O   UNL     1       5.991  -1.012   0.427  0.00  0.00    -0.343 OA
BRANCH  31  32
ATOM     32  C   UNL     1       5.195  -2.153   0.790  0.00  0.00    +0.253 C 
ATOM     33  O   UNL     1       4.561  -2.031   2.058  0.00  0.00    -0.346 OA
ATOM     34  C   UNL     1       5.400  -2.196   3.216  0.00  0.00    +0.149 C 
ATOM     35  C   UNL     1       6.150  -0.918   3.541  0.00  0.00    +0.041 C 
ATOM     36  C   UNL     1       6.313  -3.455   3.172  0.00  0.00    +0.167 C 
ATOM     37  C   UNL     1       7.095  -3.536   1.816  0.00  0.00    +0.092 C 
ATOM     38  C   UNL     1       6.005  -3.463   0.722  0.00  0.00    +0.083 C 
BRANCH  37  39
ATOM     39  N   UNL     1       8.141  -2.505   1.580  0.00  0.00    -0.303 NA
ATOM     40  C   UNL     1       9.087  -2.257   2.664  0.00  0.00    +0.105 C 
ATOM     41  C   UNL     1       8.884  -2.669   0.327  0.00  0.00    +0.105 C 
ENDBRANCH  37  39
BRANCH  36  42
ATOM     42  O   UNL     1       5.411  -4.580   3.406  0.00  0.00    -0.344 OA
BRANCH  42  43
ATOM     43  C   UNL     1       5.955  -5.879   3.634  0.00  0.00    +0.254 C 
ATOM     44  O   UNL     1       4.910  -6.854   3.828  0.00  0.00    -0.346 OA
ATOM     45  C   UNL     1       4.121  -6.755   5.033  0.00  0.00    +0.150 C 
ATOM     46  C   UNL     1       2.976  -5.768   4.826  0.00  0.00    +0.041 C 
ATOM     47  C   UNL     1       4.960  -6.617   6.334  0.00  0.00    +0.178 C 
ATOM     48  C   UNL     1       6.177  -5.686   6.122  0.00  0.00    +0.151 C 
ATOM     49  C   UNL     1       6.907  -5.991   4.817  0.00  0.00    +0.095 C 
BRANCH  48  50
ATOM     50  O   UNL     1       5.807  -4.306   6.153  0.00  0.00    -0.389 OA
ATOM     51  H   UNL     1       5.135  -4.168   5.460  0.00  0.00    +0.210 HD
ENDBRANCH  48  50
BRANCH  47  52
ATOM     52  O   UNL     1       4.275  -6.184   7.525  0.00  0.00    -0.343 OA
BRANCH  52  53
ATOM     53  C   UNL     1       3.166  -6.931   8.012  0.00  0.00    +0.252 C 
ATOM     54  O   UNL     1       2.529  -6.224   9.098  0.00  0.00    -0.341 OA
ATOM     55  C   UNL     1       3.290  -6.178  10.311  0.00  0.00    +0.184 C 
ATOM     56  C   UNL     1       2.454  -5.541  11.417  0.00  0.00    +0.046 C 
ATOM     57  C   UNL     1       3.719  -7.586  10.724  0.00  0.00    +0.162 C 
ATOM     58  O   UNL     1       3.504  -8.089  11.824  0.00  0.00    -0.295 OA
ATOM     59  C   UNL     1       4.445  -8.338   9.645  0.00  0.00    +0.082 C 
ATOM     60  C   UNL     1       3.507  -8.358   8.451  0.00  0.00    +0.069 C 
ENDBRANCH  52  53
ENDBRANCH  47  52
ENDBRANCH  42  43
ENDBRANCH  36  42
ENDBRANCH  31  32
ENDBRANCH  18  31
TORSDOF 13
