REMARK  Name = 
REMARK  10 active torsions:
REMARK  status: ('A' for Active; 'I' for Inactive)
REMARK    1  A    between atoms: O_1  and  C_2
REMARK    2  A    between atoms: C_5  and  N_20
REMARK    3  A    between atoms: C_8  and  C_10
REMARK    4  A    between atoms: C_10  and  O_11
REMARK    5  A    between atoms: O_11  and  P_12
REMARK    6  A    between atoms: P_12  and  O_13
REMARK    7  A    between atoms: P_12  and  N_15
REMARK    8  A    between atoms: N_15  and  P_16
REMARK    9  A    between atoms: P_16  and  O_17
REMARK   10  A    between atoms: P_16  and  O_18
REMARK                            x       y       z     vdW  Elec       q    Type
REMARK                         _______ _______ _______ _____ _____    ______ ____
ROOT
ATOM      1  C   UNL     1       2.352   0.025  -0.159  0.00  0.00    +0.150 C 
ATOM      2  C   UNL     1       2.932  -1.216   0.522  0.00  0.00    +0.175 C 
ATOM      3  O   UNL     1       4.076  -0.792   1.294  0.00  0.00    -0.348 OA
ATOM      4  C   UNL     1       4.332   0.603   1.020  0.00  0.00    +0.226 C 
ATOM      5  C   UNL     1       2.972   1.161   0.618  0.00  0.00    +0.088 C 
ENDROOT
BRANCH   4   6
ATOM      6  N   UNL     1       5.386   0.739   0.016  0.00  0.00    -0.274 N 
ATOM      7  C   UNL     1       5.802   2.028  -0.299  0.00  0.00    +0.331 A 
ATOM      8  O   UNL     1       5.318   3.045   0.198  0.00  0.00    -0.246 OA
ATOM      9  N   UNL     1       6.801   2.122  -1.221  0.00  0.00    -0.275 N 
ATOM     10  H   UNL     1       7.116   3.050  -1.454  0.00  0.00    +0.173 HD
ATOM     11  C   UNL     1       7.543   1.094  -1.729  0.00  0.00    +0.254 A 
ATOM     12  O   UNL     1       8.512   1.254  -2.458  0.00  0.00    -0.268 OA
ATOM     13  C   UNL     1       7.113  -0.242  -1.317  0.00  0.00    +0.088 A 
ATOM     14  C   UNL     1       6.076  -0.354  -0.482  0.00  0.00    +0.098 A 
ENDBRANCH   4   6
BRANCH   1  15
ATOM     15  O   UNL     1       2.747   0.101  -1.529  0.00  0.00    -0.389 OA
ATOM     16  H   UNL     1       3.716   0.033  -1.582  0.00  0.00    +0.210 HD
ENDBRANCH   1  15
BRANCH   2  17
ATOM     17  C   UNL     1       1.940  -1.899   1.455  0.00  0.00    +0.205 C 
BRANCH  17  18
ATOM     18  O   UNL     1       0.831  -2.376   0.701  0.00  0.00    -0.293 OA
BRANCH  18  19
ATOM     19  P   UNL     1      -0.356  -3.171   1.676  0.00  0.00    +0.415 P 
ATOM     20  O   UNL     1       0.467  -4.459   1.655  0.00  0.00    -0.240 OA
BRANCH  19  21
ATOM     21  N   UNL     1      -1.578  -3.990   2.679  0.00  0.00    -0.126 NA
ATOM     22  H   UNL     1      -2.383  -3.371   2.711  0.00  0.00    +0.146 HD
BRANCH  21  23
ATOM     23  P   UNL     1      -2.286  -5.343   1.765  0.00  0.00    +0.412 P 
ATOM     24  O   UNL     1      -2.901  -6.521   0.970  0.00  0.00    -0.240 OA
BRANCH  23  25
ATOM     25  O   UNL     1      -3.597  -4.359   1.707  0.00  0.00    -0.312 OA
ATOM     26  H   UNL     1      -4.159  -4.650   0.964  0.00  0.00    +0.221 HD
ENDBRANCH  23  25
BRANCH  23  27
ATOM     27  O   UNL     1      -2.576  -5.995   3.237  0.00  0.00    -0.312 OA
ATOM     28  H   UNL     1      -2.019  -5.524   3.882  0.00  0.00    +0.221 HD
ENDBRANCH  23  27
ENDBRANCH  21  23
ENDBRANCH  19  21
BRANCH  19  29
ATOM     29  O   UNL     1      -1.276  -3.227   0.334  0.00  0.00    -0.312 OA
ATOM     30  H   UNL     1      -0.719  -3.588  -0.389  0.00  0.00    +0.221 HD
ENDBRANCH  19  29
ENDBRANCH  18  19
ENDBRANCH  17  18
ENDBRANCH   2  17
TORSDOF 10
