REMARK  Name = 
REMARK  22 active torsions:
REMARK  status: ('A' for Active; 'I' for Inactive)
REMARK    1  A    between atoms: C_1  and  C_2
REMARK    2  A    between atoms: C_7  and  C_8
REMARK    3  A    between atoms: N_9  and  C_10
REMARK    4  A    between atoms: C_10  and  C_11
REMARK    5  A    between atoms: C_11  and  O_13
REMARK    6  A    between atoms: C_11  and  C_14
REMARK    7  A    between atoms: C_14  and  O_16
REMARK    8  A    between atoms: C_14  and  C_17
REMARK    9  A    between atoms: C_17  and  O_19
REMARK   10  A    between atoms: C_17  and  C_20
REMARK   11  A    between atoms: C_20  and  O_21
REMARK   12  A    between atoms: O_21  and  P_22
REMARK   13  A    between atoms: P_22  and  O_23
REMARK   14  A    between atoms: P_22  and  O_25
REMARK   15  A    between atoms: O_25  and  P_26
REMARK   16  A    between atoms: P_26  and  O_27
REMARK   17  A    between atoms: P_26  and  O_29
REMARK   18  A    between atoms: O_29  and  C_30
REMARK   19  A    between atoms: C_30  and  C_31
REMARK   20  A    between atoms: C_34  and  N_42
REMARK   21  A    between atoms: C_36  and  O_38
REMARK   22  A    between atoms: C_39  and  O_41
REMARK                            x       y       z     vdW  Elec       q    Type
REMARK                         _______ _______ _______ _____ _____    ______ ____
ROOT
ATOM      1  P   UNL     1       5.903   8.808   0.391  0.00  0.00    +0.483 P 
ATOM      2  O   UNL     1       4.694   9.549   0.973  0.00  0.00    -0.227 OA
ENDROOT
BRANCH   1   3
ATOM      3  O   UNL     1       4.805   7.560  -0.087  0.00  0.00    -0.302 OA
ATOM      4  H   UNL     1       3.971   7.869   0.330  0.00  0.00    +0.222 HD
ENDBRANCH   1   3
BRANCH   1   5
ATOM      5  O   UNL     1       7.001  10.056   0.870  0.00  0.00    -0.186 OA
BRANCH   5   6
ATOM      6  P   UNL     1       8.604   9.410   0.962  0.00  0.00    +0.483 P 
ATOM      7  O   UNL     1       8.016   8.161   1.622  0.00  0.00    -0.227 OA
BRANCH   6   8
ATOM      8  O   UNL     1       8.951  10.499   2.127  0.00  0.00    -0.302 OA
ATOM      9  H   UNL     1       9.135  11.389   1.780  0.00  0.00    +0.222 HD
ENDBRANCH   6   8
BRANCH   6  10
ATOM     10  O   UNL     1      10.206   8.765   1.053  0.00  0.00    -0.284 OA
BRANCH  10  11
ATOM     11  C   UNL     1      10.494   8.003   2.246  0.00  0.00    +0.206 C 
BRANCH  11  12
ATOM     12  C   UNL     1      11.912   7.455   2.296  0.00  0.00    +0.178 C 
ATOM     13  C   UNL     1      13.007   8.510   2.258  0.00  0.00    +0.178 C 
ATOM     14  C   UNL     1      14.152   7.821   1.515  0.00  0.00    +0.195 C 
ATOM     15  C   UNL     1      13.592   6.440   1.146  0.00  0.00    +0.253 C 
ATOM     16  O   UNL     1      12.163   6.569   1.190  0.00  0.00    -0.346 OA
BRANCH  15  17
ATOM     17  N   UNL     1      14.012   5.991  -0.165  0.00  0.00    -0.286 N 
ATOM     18  C   UNL     1      15.314   5.772  -0.524  0.00  0.00    +0.167 A 
ATOM     19  N   UNL     1      16.410   5.937   0.240  0.00  0.00    -0.216 NA
ATOM     20  C   UNL     1      17.521   5.613  -0.459  0.00  0.00    +0.225 A 
ATOM     21  N   UNL     1      17.618   5.197  -1.741  0.00  0.00    -0.219 NA
ATOM     22  C   UNL     1      16.481   5.045  -2.459  0.00  0.00    +0.147 A 
ATOM     23  N   UNL     1      16.584   4.580  -3.758  0.00  0.00    -0.341 N 
ATOM     24  H   UNL     1      15.769   4.718  -4.344  0.00  0.00    +0.144 HD
ATOM     25  H   UNL     1      17.507   4.644  -4.162  0.00  0.00    +0.144 HD
ATOM     26  C   UNL     1      15.256   5.354  -1.843  0.00  0.00    +0.147 A 
ATOM     27  N   UNL     1      13.949   5.332  -2.289  0.00  0.00    -0.231 NA
ATOM     28  C   UNL     1      13.230   5.704  -1.249  0.00  0.00    +0.203 A 
ENDBRANCH  15  17
BRANCH  14  29
ATOM     29  O   UNL     1      15.330   7.757   2.324  0.00  0.00    -0.385 OA
ATOM     30  H   UNL     1      15.981   7.214   1.826  0.00  0.00    +0.210 HD
ENDBRANCH  14  29
BRANCH  13  31
ATOM     31  O   UNL     1      13.370   8.920   3.573  0.00  0.00    -0.386 OA
ATOM     32  H   UNL     1      14.350   8.922   3.593  0.00  0.00    +0.210 HD
ENDBRANCH  13  31
ENDBRANCH  11  12
ENDBRANCH  10  11
ENDBRANCH   6  10
ENDBRANCH   5   6
ENDBRANCH   1   5
BRANCH   1  33
ATOM     33  O   UNL     1       5.951   9.260  -1.303  0.00  0.00    -0.284 OA
BRANCH  33  34
ATOM     34  C   UNL     1       5.560   8.228  -2.282  0.00  0.00    +0.206 C 
BRANCH  34  35
ATOM     35  C   UNL     1       5.432   8.401  -3.854  0.00  0.00    +0.172 C 
BRANCH  35  36
ATOM     36  O   UNL     1       5.316   7.070  -4.411  0.00  0.00    -0.387 OA
ATOM     37  H   UNL     1       5.803   6.424  -3.872  0.00  0.00    +0.210 HD
ENDBRANCH  35  36
BRANCH  35  38
ATOM     38  C   UNL     1       4.175   9.216  -4.367  0.00  0.00    +0.175 C 
BRANCH  38  39
ATOM     39  O   UNL     1       4.297  10.555  -3.881  0.00  0.00    -0.387 OA
ATOM     40  H   UNL     1       3.439  10.802  -3.492  0.00  0.00    +0.210 HD
ENDBRANCH  38  39
BRANCH  38  41
ATOM     41  C   UNL     1       3.925   9.275  -5.944  0.00  0.00    +0.165 C 
BRANCH  41  42
ATOM     42  O   UNL     1       3.669   7.981  -6.498  0.00  0.00    -0.387 OA
ATOM     43  H   UNL     1       3.826   8.045  -7.458  0.00  0.00    +0.210 HD
ENDBRANCH  41  42
BRANCH  41  44
ATOM     44  C   UNL     1       2.704  10.221  -6.317  0.00  0.00    +0.158 C 
BRANCH  44  51
ATOM     45  C   UNL     1       6.970  11.254 -11.047  0.00  0.00    +0.044 C 
ATOM     46  C   UNL     1       5.740  11.347 -10.194  0.00  0.00    -0.045 A 
ATOM     47  C   UNL     1       5.822  11.469  -8.798  0.00  0.00    -0.045 A 
ATOM     48  C   UNL     1       7.099  11.415  -8.015  0.00  0.00    +0.044 C 
ATOM     49  C   UNL     1       4.660  11.498  -8.038  0.00  0.00    +0.031 A 
ATOM     50  C   UNL     1       3.477  11.032  -8.578  0.00  0.00    +0.069 A 
ATOM     51  N   UNL     1       2.456  10.507  -7.773  0.00  0.00    -0.320 N 
ATOM     52  C   UNL     1       1.171  10.513  -8.332  0.00  0.00    +0.170 A 
ATOM     53  C   UNL     1       1.053  10.761  -9.838  0.00  0.00    +0.171 A 
ATOM     54  N   UNL     1       2.087  10.924 -10.606  0.00  0.00    -0.237 NA
ATOM     55  C   UNL     1      -0.331  10.839 -10.431  0.00  0.00    +0.282 A 
ATOM     56  O   UNL     1      -0.541  11.144 -11.599  0.00  0.00    -0.265 OA
ATOM     57  N   UNL     1      -1.321  10.603  -9.532  0.00  0.00    -0.272 N 
ATOM     58  H   UNL     1      -2.274  10.723  -9.840  0.00  0.00    +0.174 HD
ATOM     59  C   UNL     1      -1.161  10.393  -8.196  0.00  0.00    +0.351 A 
ATOM     60  O   UNL     1      -2.173  10.304  -7.498  0.00  0.00    -0.245 OA
ATOM     61  N   UNL     1       0.090  10.323  -7.649  0.00  0.00    -0.173 NA
ATOM     62  C   UNL     1       3.342  11.044  -9.982  0.00  0.00    +0.089 A 
ATOM     63  C   UNL     1       4.474  11.217 -10.782  0.00  0.00    +0.033 A 
ENDBRANCH  44  51
ENDBRANCH  41  44
ENDBRANCH  38  41
ENDBRANCH  35  38
ENDBRANCH  34  35
ENDBRANCH  33  34
ENDBRANCH   1  33
TORSDOF 20
