REMARK  Name = 
REMARK  21 active torsions:
REMARK  status: ('A' for Active; 'I' for Inactive)
REMARK    1  A    between atoms: N_10  and  C_11
REMARK    2  A    between atoms: C_14  and  C_16
REMARK    3  A    between atoms: C_16  and  O_17
REMARK    4  A    between atoms: O_17  and  P_18
REMARK    5  A    between atoms: P_18  and  O_19
REMARK    6  A    between atoms: P_18  and  O_21
REMARK    7  A    between atoms: O_21  and  P_22
REMARK    8  A    between atoms: P_22  and  O_23
REMARK    9  A    between atoms: P_22  and  O_25
REMARK   10  A    between atoms: O_25  and  C_26
REMARK   11  A    between atoms: C_29  and  N_40
REMARK   12  A    between atoms: C_32  and  C_34
REMARK   13  A    between atoms: C_34  and  O_35
REMARK   14  A    between atoms: O_35  and  P_36
REMARK   15  A    between atoms: P_36  and  O_37
REMARK   16  A    between atoms: P_36  and  O_38
REMARK   17  A    between atoms: C_48  and  O_50
REMARK   18  A    between atoms: O_50  and  P_51
REMARK   19  A    between atoms: P_51  and  O_52
REMARK   20  A    between atoms: P_51  and  O_53
REMARK   21  A    between atoms: C_55  and  O_57
REMARK                            x       y       z     vdW  Elec       q    Type
REMARK                         _______ _______ _______ _____ _____    ______ ____
ROOT
ATOM      1  P   UNL     1       9.056   1.551   7.398  0.00  0.00    +0.483 P 
ATOM      2  O   UNL     1       8.917   1.464   8.925  0.00  0.00    -0.227 OA
ENDROOT
BRANCH   1   3
ATOM      3  O   UNL     1      10.724   1.119   7.555  0.00  0.00    -0.302 OA
ATOM      4  H   UNL     1      11.189   1.841   8.018  0.00  0.00    +0.222 HD
ENDBRANCH   1   3
BRANCH   1   5
ATOM      5  O   UNL     1       7.388   1.984   7.241  0.00  0.00    -0.186 OA
BRANCH   5   6
ATOM      6  P   UNL     1       7.722   3.679   7.386  0.00  0.00    +0.484 P 
ATOM      7  O   UNL     1       8.824   4.094   6.453  0.00  0.00    -0.227 OA
BRANCH   6   8
ATOM      8  O   UNL     1       8.197   3.759   8.910  0.00  0.00    -0.302 OA
ATOM      9  H   UNL     1       7.857   3.024   9.473  0.00  0.00    +0.222 HD
ENDBRANCH   6   8
BRANCH   6  10
ATOM     10  O   UNL     1       6.485   4.722   7.446  0.00  0.00    -0.280 OA
BRANCH  10  11
ATOM     11  C   UNL     1       6.614   6.104   7.966  0.00  0.00    +0.165 C 
ATOM     12  C   UNL     1       7.500   6.405   9.203  0.00  0.00    +0.176 C 
ATOM     13  O   UNL     1       7.954   7.776   9.148  0.00  0.00    -0.348 OA
ATOM     14  C   UNL     1       7.719   8.320   7.842  0.00  0.00    +0.226 C 
ATOM     15  C   UNL     1       6.961   7.259   7.007  0.00  0.00    +0.089 C 
BRANCH  14  16
ATOM     16  N   UNL     1       9.010   8.768   7.306  0.00  0.00    -0.274 N 
ATOM     17  C   UNL     1       9.207  10.120   7.041  0.00  0.00    +0.331 A 
ATOM     18  O   UNL     1       8.324  10.978   7.113  0.00  0.00    -0.246 OA
ATOM     19  N   UNL     1      10.486  10.477   6.673  0.00  0.00    -0.275 N 
ATOM     20  H   UNL     1      10.643  11.467   6.491  0.00  0.00    +0.173 HD
ATOM     21  C   UNL     1      11.554   9.645   6.545  0.00  0.00    +0.254 A 
ATOM     22  O   UNL     1      12.669  10.032   6.222  0.00  0.00    -0.268 OA
ATOM     23  C   UNL     1      11.278   8.232   6.822  0.00  0.00    +0.088 A 
ATOM     24  C   UNL     1      10.059   7.864   7.182  0.00  0.00    +0.098 A 
ENDBRANCH  14  16
BRANCH  12  25
ATOM     25  C   UNL     1       6.725   6.255  10.520  0.00  0.00    +0.206 C 
BRANCH  25  26
ATOM     26  O   UNL     1       7.587   6.125  11.641  0.00  0.00    -0.284 OA
BRANCH  26  27
ATOM     27  P   UNL     1       8.325   7.417  12.236  0.00  0.00    +0.472 P 
ATOM     28  O   UNL     1       7.512   8.661  12.355  0.00  0.00    -0.228 OA
BRANCH  27  29
ATOM     29  O   UNL     1       8.876   6.872  13.633  0.00  0.00    -0.303 OA
ATOM     30  H   UNL     1       8.174   6.834  14.306  0.00  0.00    +0.222 HD
ENDBRANCH  27  29
BRANCH  27  31
ATOM     31  O   UNL     1       9.644   7.543  11.356  0.00  0.00    -0.303 OA
ATOM     32  H   UNL     1       9.431   7.956  10.496  0.00  0.00    +0.222 HD
ENDBRANCH  27  31
ENDBRANCH  26  27
ENDBRANCH  25  26
ENDBRANCH  12  25
ENDBRANCH  10  11
ENDBRANCH   6  10
ENDBRANCH   5   6
ENDBRANCH   1   5
BRANCH   1  33
ATOM     33  O   UNL     1       8.727   0.044   6.862  0.00  0.00    -0.284 OA
BRANCH  33  34
ATOM     34  C   UNL     1       8.959  -0.031   5.488  0.00  0.00    +0.206 C 
BRANCH  34  38
ATOM     35  C   UNL     1       9.731  -3.347   4.231  0.00  0.00    +0.253 C 
ATOM     36  C   UNL     1       9.536  -2.484   2.965  0.00  0.00    +0.196 C 
ATOM     37  C   UNL     1       8.838  -1.218   3.446  0.00  0.00    +0.194 C 
ATOM     38  C   UNL     1       8.711  -1.406   4.934  0.00  0.00    +0.179 C 
ATOM     39  O   UNL     1       9.717  -2.362   5.300  0.00  0.00    -0.346 OA
BRANCH  35  47
ATOM     40  N   UNL     1       5.761  -7.925   4.211  0.00  0.00    -0.341 N 
ATOM     41  H   UNL     1       5.525  -7.705   5.173  0.00  0.00    +0.144 HD
ATOM     42  H   UNL     1       5.011  -8.220   3.599  0.00  0.00    +0.144 HD
ATOM     43  C   UNL     1       6.559  -6.959   3.610  0.00  0.00    +0.147 A 
ATOM     44  C   UNL     1       7.343  -6.044   4.329  0.00  0.00    +0.147 A 
ATOM     45  N   UNL     1       7.531  -5.827   5.677  0.00  0.00    -0.231 NA
ATOM     46  C   UNL     1       8.393  -4.834   5.747  0.00  0.00    +0.203 A 
ATOM     47  N   UNL     1       8.751  -4.370   4.499  0.00  0.00    -0.286 N 
ATOM     48  C   UNL     1       8.098  -5.150   3.578  0.00  0.00    +0.167 A 
ATOM     49  N   UNL     1       8.163  -5.080   2.242  0.00  0.00    -0.216 NA
ATOM     50  C   UNL     1       7.344  -5.979   1.664  0.00  0.00    +0.225 A 
ATOM     51  N   UNL     1       6.561  -6.895   2.258  0.00  0.00    -0.219 NA
ENDBRANCH  35  47
BRANCH  36  52
ATOM     52  O   UNL     1      10.826  -2.069   2.450  0.00  0.00    -0.385 OA
ATOM     53  H   UNL     1      11.422  -1.886   3.205  0.00  0.00    +0.210 HD
ENDBRANCH  36  52
BRANCH  37  54
ATOM     54  O   UNL     1       7.572  -0.834   2.926  0.00  0.00    -0.278 OA
BRANCH  54  55
ATOM     55  P   UNL     1       7.708  -0.604   1.217  0.00  0.00    +0.473 P 
ATOM     56  O   UNL     1       7.830  -0.399  -0.313  0.00  0.00    -0.228 OA
BRANCH  55  57
ATOM     57  O   UNL     1       6.352   0.294   1.374  0.00  0.00    -0.303 OA
ATOM     58  H   UNL     1       6.496   1.095   1.900  0.00  0.00    +0.222 HD
ENDBRANCH  55  57
BRANCH  55  59
ATOM     59  O   UNL     1       6.959  -2.054   1.110  0.00  0.00    -0.303 OA
ATOM     60  H   UNL     1       7.431  -2.644   0.498  0.00  0.00    +0.222 HD
ENDBRANCH  55  59
ENDBRANCH  54  55
ENDBRANCH  37  54
ENDBRANCH  34  38
ENDBRANCH  33  34
ENDBRANCH   1  33
TORSDOF 21
