REMARK  Name = 
REMARK  3 active torsions:
REMARK  status: ('A' for Active; 'I' for Inactive)
REMARK    1  A    between atoms: N_1  and  C_2
REMARK    2  A    between atoms: C_2  and  P_5
REMARK    3  A    between atoms: P_5  and  O_6
REMARK                            x       y       z     vdW  Elec       q    Type
REMARK                         _______ _______ _______ _____ _____    ______ ____
ROOT
ATOM      1  C   UNL     1       4.301   0.216   1.902  0.00  0.00    +0.081 C 
ATOM      2  C   UNL     1       5.092   0.786   0.750  0.00  0.00    +0.033 C 
ATOM      3  C   UNL     1       5.121   1.472   2.083  0.00  0.00    +0.033 C 
ENDROOT
BRANCH   1   4
ATOM      4  N   UNL     1       4.794  -1.040   2.564  0.00  0.00    -0.318 NA
ATOM      5  H   UNL     1       4.060  -1.722   2.323  0.00  0.00    +0.119 HD
ATOM      6  H   UNL     1       4.574  -0.904   3.554  0.00  0.00    +0.119 HD
ENDBRANCH   1   4
BRANCH   1   7
ATOM      7  P   UNL     1       2.420   0.404   1.798  0.00  0.00    +0.154 P 
ATOM      8  O   UNL     1       1.961  -0.640   2.776  0.00  0.00    -0.305 OA
ATOM      9  O   UNL     1       2.156   1.876   1.839  0.00  0.00    -0.780 OA
BRANCH   7  10
ATOM     10  O   UNL     1       2.127  -0.135   0.309  0.00  0.00    -0.352 OA
ATOM     11  H   UNL     1       1.163  -0.085   0.194  0.00  0.00    +0.217 HD
ENDBRANCH   7  10
ENDBRANCH   1   7
TORSDOF 3
