REMARK  Name = 
REMARK  7 active torsions:
REMARK  status: ('A' for Active; 'I' for Inactive)
REMARK    1  A    between atoms: O_1  and  C_2
REMARK    2  A    between atoms: C_5  and  N_16
REMARK    3  A    between atoms: C_8  and  C_10
REMARK    4  A    between atoms: C_10  and  O_11
REMARK    5  A    between atoms: O_11  and  P_12
REMARK    6  A    between atoms: P_12  and  O_13
REMARK    7  A    between atoms: P_12  and  O_14
REMARK                            x       y       z     vdW  Elec       q    Type
REMARK                         _______ _______ _______ _____ _____    ______ ____
ROOT
ATOM      1  C   UNL     1       2.460   0.094   0.051  0.00  0.00    +0.150 C 
ATOM      2  C   UNL     1       3.051  -1.134   0.749  0.00  0.00    +0.175 C 
ATOM      3  O   UNL     1       4.197  -0.695   1.511  0.00  0.00    -0.348 OA
ATOM      4  C   UNL     1       4.437   0.695   1.221  0.00  0.00    +0.226 C 
ATOM      5  C   UNL     1       3.081   1.249   0.800  0.00  0.00    +0.088 C 
ENDROOT
BRANCH   4   6
ATOM      6  N   UNL     1       5.507   0.824   0.216  0.00  0.00    -0.271 N 
ATOM      7  C   UNL     1       5.924   2.116  -0.104  0.00  0.00    +0.331 A 
ATOM      8  O   UNL     1       5.445   3.131   0.384  0.00  0.00    -0.246 OA
ATOM      9  N   UNL     1       6.949   2.205  -1.013  0.00  0.00    -0.273 N 
ATOM     10  H   UNL     1       7.268   3.135  -1.242  0.00  0.00    +0.174 HD
ATOM     11  C   UNL     1       7.703   1.166  -1.492  0.00  0.00    +0.289 A 
ATOM     12  O   UNL     1       8.695   1.337  -2.187  0.00  0.00    -0.265 OA
ATOM     13  C   UNL     1       7.239  -0.166  -1.078  0.00  0.00    +0.204 A 
ATOM     14  F   UNL     1       7.917  -1.237  -1.528  0.00  0.00    -0.198 F 
ATOM     15  C   UNL     1       6.195  -0.284  -0.254  0.00  0.00    +0.137 A 
ENDBRANCH   4   6
BRANCH   1  16
ATOM     16  O   UNL     1       2.849   0.153  -1.325  0.00  0.00    -0.389 OA
ATOM     17  H   UNL     1       3.811   0.032  -1.387  0.00  0.00    +0.210 HD
ENDBRANCH   1  16
BRANCH   2  18
ATOM     18  C   UNL     1       2.075  -1.822   1.693  0.00  0.00    +0.206 C 
BRANCH  18  19
ATOM     19  O   UNL     1       0.981  -2.315   0.939  0.00  0.00    -0.284 OA
BRANCH  19  20
ATOM     20  P   UNL     1      -0.205  -3.131   1.899  0.00  0.00    +0.472 P 
ATOM     21  O   UNL     1      -1.266  -3.861   2.758  0.00  0.00    -0.228 OA
BRANCH  20  22
ATOM     22  O   UNL     1      -0.981  -3.429   0.489  0.00  0.00    -0.303 OA
ATOM     23  H   UNL     1      -1.170  -4.383   0.419  0.00  0.00    +0.222 HD
ENDBRANCH  20  22
BRANCH  20  24
ATOM     24  O   UNL     1      -0.881  -1.652   2.083  0.00  0.00    -0.303 OA
ATOM     25  H   UNL     1      -1.470  -1.532   1.314  0.00  0.00    +0.222 HD
ENDBRANCH  20  24
ENDBRANCH  19  20
ENDBRANCH  18  19
ENDBRANCH   2  18
TORSDOF 7
