REMARK  Name = 
REMARK  5 active torsions:
REMARK  status: ('A' for Active; 'I' for Inactive)
REMARK    1  A    between atoms: C_2  and  C_4
REMARK    2  A    between atoms: C_7  and  N_8
REMARK    3  A    between atoms: N_8  and  N_9
REMARK    4  A    between atoms: N_10  and  C_11
REMARK    5  A    between atoms: C_14  and  C_17
REMARK                            x       y       z     vdW  Elec       q    Type
REMARK                         _______ _______ _______ _____ _____    ______ ____
ROOT
ATOM      1  N   UNL     1       4.810   4.416  -2.937  0.00  0.00    -0.219 N 
ATOM      2  H   UNL     1       4.181   5.202  -3.059  0.00  0.00    +0.176 HD
ENDROOT
BRANCH   1   6
ATOM      3  C   UNL     1       3.134   1.124  -0.879  0.00  0.00    +0.065 A 
ATOM      4  C   UNL     1       2.472   2.355  -0.905  0.00  0.00    +0.018 A 
ATOM      5  C   UNL     1       3.038   3.442  -1.581  0.00  0.00    +0.025 A 
ATOM      6  C   UNL     1       4.246   3.303  -2.278  0.00  0.00    +0.050 A 
ATOM      7  C   UNL     1       4.902   2.063  -2.237  0.00  0.00    +0.025 A 
ATOM      8  C   UNL     1       4.350   0.978  -1.549  0.00  0.00    +0.018 A 
BRANCH   3  12
ATOM      9  N   UNL     1       3.363  -0.973   0.415  0.00  0.00    -0.247 N 
ATOM     10  H   UNL     1       4.306  -0.666   0.633  0.00  0.00    +0.288 HD
ATOM     11  H   UNL     1       2.964  -1.506   1.178  0.00  0.00    +0.288 HD
ATOM     12  C   UNL     1       2.548  -0.019  -0.124  0.00  0.00    +0.308 C 
ATOM     13  N   UNL     1       1.268  -0.089   0.036  0.00  0.00    -0.099 NA
ATOM     14  H   UNL     1       1.030  -0.946   0.538  0.00  0.00    +0.363 HD
ENDBRANCH   3  12
ENDBRANCH   1   6
BRANCH   1  15
ATOM     15  N   UNL     1       5.582   4.155  -4.014  0.00  0.00    -0.076 NA
ATOM     16  N   UNL     1       5.569   5.177  -4.727  0.00  0.00    -0.134 NA
BRANCH  16  17
ATOM     17  C   UNL     1       6.274   4.970  -5.933  0.00  0.00    +0.088 A 
ATOM     18  C   UNL     1       7.445   4.201  -6.021  0.00  0.00    +0.030 A 
ATOM     19  C   UNL     1       8.099   4.020  -7.244  0.00  0.00    +0.018 A 
ATOM     20  C   UNL     1       7.596   4.619  -8.404  0.00  0.00    +0.065 A 
ATOM     21  C   UNL     1       6.448   5.414  -8.325  0.00  0.00    +0.018 A 
ATOM     22  C   UNL     1       5.796   5.584  -7.097  0.00  0.00    +0.030 A 
BRANCH  20  23
ATOM     23  C   UNL     1       8.294   4.408  -9.702  0.00  0.00    +0.308 C 
ATOM     24  N   UNL     1       7.684   4.421 -10.843  0.00  0.00    -0.099 NA
ATOM     25  H   UNL     1       6.675   4.540 -10.729  0.00  0.00    +0.363 HD
ATOM     26  N   UNL     1       9.638   4.189  -9.735  0.00  0.00    -0.247 N 
ATOM     27  H   UNL     1       9.990   4.262 -10.686  0.00  0.00    +0.288 HD
ATOM     28  H   UNL     1      10.195   4.717  -9.075  0.00  0.00    +0.288 HD
ENDBRANCH  20  23
ENDBRANCH  16  17
ENDBRANCH   1  15
TORSDOF 5
