REMARK  Name = 
REMARK  15 active torsions:
REMARK  status: ('A' for Active; 'I' for Inactive)
REMARK    1  A    between atoms: O_1  and  C_2
REMARK    2  A    between atoms: C_4  and  O_6
REMARK    3  A    between atoms: C_7  and  O_9
REMARK    4  A    between atoms: O_9  and  P_10
REMARK    5  A    between atoms: P_10  and  O_11
REMARK    6  A    between atoms: P_10  and  O_12
REMARK    7  A    between atoms: C_14  and  O_16
REMARK    8  A    between atoms: O_16  and  P_17
REMARK    9  A    between atoms: P_17  and  O_18
REMARK   10  A    between atoms: P_17  and  O_19
REMARK   11  A    between atoms: C_21  and  O_23
REMARK   12  A    between atoms: C_24  and  O_26
REMARK   13  A    between atoms: O_26  and  P_27
REMARK   14  A    between atoms: P_27  and  O_28
REMARK   15  A    between atoms: P_27  and  O_29
REMARK                            x       y       z     vdW  Elec       q    Type
REMARK                         _______ _______ _______ _____ _____    ______ ____
ROOT
ATOM      1  C   UNL     1       2.413   0.020   0.081  0.00  0.00    +0.177 C 
ATOM      2  C   UNL     1       2.847   1.027  -0.993  0.00  0.00    +0.192 C 
ATOM      3  C   UNL     1       2.295   0.618  -2.365  0.00  0.00    +0.178 C 
ATOM      4  C   UNL     1       2.848  -0.762  -2.732  0.00  0.00    +0.193 C 
ATOM      5  C   UNL     1       2.331  -1.751  -1.704  0.00  0.00    +0.193 C 
ATOM      6  C   UNL     1       2.813  -1.405  -0.289  0.00  0.00    +0.177 C 
ENDROOT
BRANCH   1   7
ATOM      7  O   UNL     1       2.973   0.345   1.360  0.00  0.00    -0.386 OA
ATOM      8  H   UNL     1       3.927   0.125   1.369  0.00  0.00    +0.210 HD
ENDBRANCH   1   7
BRANCH   3   9
ATOM      9  O   UNL     1       2.663   1.573  -3.360  0.00  0.00    -0.386 OA
ATOM     10  H   UNL     1       2.032   1.497  -4.106  0.00  0.00    +0.210 HD
ENDBRANCH   3   9
BRANCH   6  11
ATOM     11  O   UNL     1       2.228  -2.316   0.648  0.00  0.00    -0.386 OA
ATOM     12  H   UNL     1       2.325  -1.925   1.541  0.00  0.00    +0.210 HD
ENDBRANCH   6  11
BRANCH   2  13
ATOM     13  O   UNL     1       2.314   2.310  -0.688  0.00  0.00    -0.278 OA
BRANCH  13  14
ATOM     14  P   UNL     1       2.924   2.958   0.796  0.00  0.00    +0.473 P 
ATOM     15  O   UNL     1       3.469   3.537   2.124  0.00  0.00    -0.228 OA
BRANCH  14  16
ATOM     16  O   UNL     1       2.012   4.270   0.431  0.00  0.00    -0.303 OA
ATOM     17  H   UNL     1       1.112   4.182   0.789  0.00  0.00    +0.222 HD
ENDBRANCH  14  16
BRANCH  14  18
ATOM     18  O   UNL     1       4.196   3.457  -0.108  0.00  0.00    -0.303 OA
ATOM     19  H   UNL     1       3.991   4.382  -0.348  0.00  0.00    +0.222 HD
ENDBRANCH  14  18
ENDBRANCH  13  14
ENDBRANCH   2  13
BRANCH   4  20
ATOM     20  O   UNL     1       4.312  -0.775  -2.730  0.00  0.00    -0.278 OA
BRANCH  20  21
ATOM     21  P   UNL     1       4.909   0.404  -3.846  0.00  0.00    +0.473 P 
ATOM     22  O   UNL     1       5.444   1.460  -4.845  0.00  0.00    -0.228 OA
BRANCH  21  23
ATOM     23  O   UNL     1       4.605  -0.686  -5.031  0.00  0.00    -0.303 OA
ATOM     24  H   UNL     1       5.429  -0.788  -5.540  0.00  0.00    +0.222 HD
ENDBRANCH  21  23
BRANCH  21  25
ATOM     25  O   UNL     1       6.392  -0.174  -3.470  0.00  0.00    -0.303 OA
ATOM     26  H   UNL     1       7.024   0.570  -3.494  0.00  0.00    +0.222 HD
ENDBRANCH  21  25
ENDBRANCH  20  21
ENDBRANCH   4  20
BRANCH   5  27
ATOM     27  O   UNL     1       2.856  -2.988  -2.098  0.00  0.00    -0.278 OA
BRANCH  27  28
ATOM     28  P   UNL     1       2.352  -4.330  -1.128  0.00  0.00    +0.473 P 
ATOM     29  O   UNL     1       1.902  -5.530  -0.260  0.00  0.00    -0.228 OA
BRANCH  28  30
ATOM     30  O   UNL     1       3.752  -5.009  -1.648  0.00  0.00    -0.303 OA
ATOM     31  H   UNL     1       4.513  -4.459  -1.389  0.00  0.00    +0.222 HD
ENDBRANCH  28  30
BRANCH  28  32
ATOM     32  O   UNL     1       1.529  -4.768  -2.474  0.00  0.00    -0.303 OA
ATOM     33  H   UNL     1       2.124  -5.386  -2.942  0.00  0.00    +0.222 HD
ENDBRANCH  28  32
ENDBRANCH  27  28
ENDBRANCH   5  27
TORSDOF 15
