REMARK  Name = 
REMARK  6 active torsions:
REMARK  status: ('A' for Active; 'I' for Inactive)
REMARK    1  A    between atoms: O_1  and  C_2
REMARK    2  A    between atoms: C_2  and  C_3
REMARK    3  A    between atoms: C_5  and  O_7
REMARK    4  A    between atoms: C_8  and  O_10
REMARK    5  A    between atoms: C_11  and  O_13
REMARK    6  A    between atoms: C_14  and  O_16
REMARK                            x       y       z     vdW  Elec       q    Type
REMARK                         _______ _______ _______ _____ _____    ______ ____
ROOT
ATOM      1  C   UNL     1       2.938   0.334  -1.324  0.00  0.00    -0.015 C 
ATOM      2  C   UNL     1       3.393  -0.852  -2.129  0.00  0.00    +0.174 C 
ATOM      3  C   UNL     1       3.634  -0.613  -3.641  0.00  0.00    +0.178 C 
ATOM      4  C   UNL     1       4.001   0.834  -4.039  0.00  0.00    +0.178 C 
ATOM      5  C   UNL     1       3.321   1.948  -3.211  0.00  0.00    +0.169 C 
ATOM      6  C   UNL     1       2.930   1.582  -1.819  0.00  0.00    +0.011 C 
ENDROOT
BRANCH   2   7
ATOM      7  O   UNL     1       4.613  -1.299  -1.527  0.00  0.00    -0.385 OA
ATOM      8  H   UNL     1       4.713  -2.229  -1.801  0.00  0.00    +0.210 HD
ENDBRANCH   2   7
BRANCH   3   9
ATOM      9  O   UNL     1       2.508  -1.081  -4.394  0.00  0.00    -0.386 OA
ATOM     10  H   UNL     1       1.783  -0.443  -4.251  0.00  0.00    +0.210 HD
ENDBRANCH   3   9
BRANCH   4  11
ATOM     11  O   UNL     1       5.428   1.008  -3.987  0.00  0.00    -0.386 OA
ATOM     12  H   UNL     1       5.722   0.747  -3.095  0.00  0.00    +0.210 HD
ENDBRANCH   4  11
BRANCH   5  13
ATOM     13  O   UNL     1       2.117   2.368  -3.851  0.00  0.00    -0.385 OA
ATOM     14  H   UNL     1       1.861   3.213  -3.439  0.00  0.00    +0.210 HD
ENDBRANCH   5  13
BRANCH   1  15
ATOM     15  C   UNL     1       2.470   0.049   0.076  0.00  0.00    +0.189 C 
BRANCH  15  16
ATOM     16  O   UNL     1       1.313  -0.772   0.004  0.00  0.00    -0.391 OA
ATOM     17  H   UNL     1       1.035  -0.941   0.920  0.00  0.00    +0.210 HD
ENDBRANCH  15  16
ENDBRANCH   1  15
TORSDOF 6
