REMARK  Name = 
REMARK  15 active torsions:
REMARK  status: ('A' for Active; 'I' for Inactive)
REMARK    1  A    between atoms: C_1  and  C_2
REMARK    2  A    between atoms: N_4  and  C_5
REMARK    3  A    between atoms: C_8  and  O_10
REMARK    4  A    between atoms: C_11  and  C_13
REMARK    5  A    between atoms: C_13  and  O_14
REMARK    6  A    between atoms: O_14  and  P_15
REMARK    7  A    between atoms: P_15  and  O_16
REMARK    8  A    between atoms: P_15  and  O_18
REMARK    9  A    between atoms: O_18  and  P_19
REMARK   10  A    between atoms: P_19  and  O_20
REMARK   11  A    between atoms: P_19  and  O_22
REMARK   12  A    between atoms: O_22  and  C_23
REMARK   13  A    between atoms: C_27  and  O_29
REMARK   14  A    between atoms: C_30  and  O_32
REMARK   15  A    between atoms: C_33  and  O_35
REMARK                            x       y       z     vdW  Elec       q    Type
REMARK                         _______ _______ _______ _____ _____    ______ ____
ROOT
ATOM      1  P   UNL     1      10.439   3.920   1.331  0.00  0.00    +0.483 P 
ATOM      2  O   UNL     1       9.419   2.857   0.883  0.00  0.00    -0.227 OA
ENDROOT
BRANCH   1   3
ATOM      3  O   UNL     1      11.476   3.345   0.071  0.00  0.00    -0.302 OA
ATOM      4  H   UNL     1      11.080   2.478  -0.151  0.00  0.00    +0.222 HD
ENDBRANCH   1   3
BRANCH   1   5
ATOM      5  O   UNL     1      10.087   5.245   0.411  0.00  0.00    -0.284 OA
BRANCH   5   6
ATOM      6  C   UNL     1      10.891   6.394   0.649  0.00  0.00    +0.206 C 
BRANCH   6   9
ATOM      7  C   UNL     1       8.483   7.679  -1.427  0.00  0.00    +0.226 C 
ATOM      8  O   UNL     1       9.126   7.901  -0.156  0.00  0.00    -0.348 OA
ATOM      9  C   UNL     1      10.518   7.531  -0.308  0.00  0.00    +0.175 C 
ATOM     10  C   UNL     1      10.733   7.173  -1.782  0.00  0.00    +0.150 C 
ATOM     11  C   UNL     1       9.578   7.869  -2.463  0.00  0.00    +0.088 C 
BRANCH   7  20
ATOM     12  C   UNL     1       6.130  11.996  -0.572  0.00  0.00    +0.051 C 
ATOM     13  C   UNL     1       6.248  10.646  -1.192  0.00  0.00    +0.030 A 
ATOM     14  C   UNL     1       5.143  10.209  -2.078  0.00  0.00    +0.257 A 
ATOM     15  O   UNL     1       4.151  10.906  -2.279  0.00  0.00    -0.267 OA
ATOM     16  N   UNL     1       5.289   8.986  -2.656  0.00  0.00    -0.275 N 
ATOM     17  H   UNL     1       4.579   8.669  -3.292  0.00  0.00    +0.173 HD
ATOM     18  C   UNL     1       6.368   8.146  -2.508  0.00  0.00    +0.331 A 
ATOM     19  O   UNL     1       6.421   7.098  -3.151  0.00  0.00    -0.246 OA
ATOM     20  N   UNL     1       7.346   8.569  -1.620  0.00  0.00    -0.274 N 
ATOM     21  C   UNL     1       7.278   9.807  -1.010  0.00  0.00    +0.101 A 
ENDBRANCH   7  20
BRANCH  10  22
ATOM     22  O   UNL     1      11.990   7.620  -2.273  0.00  0.00    -0.389 OA
ATOM     23  H   UNL     1      12.043   8.586  -2.172  0.00  0.00    +0.210 HD
ENDBRANCH  10  22
ENDBRANCH   6   9
ENDBRANCH   5   6
ENDBRANCH   1   5
BRANCH   1  24
ATOM     24  O   UNL     1       9.402   4.496   2.591  0.00  0.00    -0.186 OA
BRANCH  24  25
ATOM     25  P   UNL     1       9.858   3.765   4.091  0.00  0.00    +0.486 P 
ATOM     26  O   UNL     1      11.240   4.416   3.987  0.00  0.00    -0.227 OA
BRANCH  25  27
ATOM     27  O   UNL     1       9.976   2.330   3.343  0.00  0.00    -0.302 OA
ATOM     28  H   UNL     1       9.122   1.845   3.294  0.00  0.00    +0.222 HD
ENDBRANCH  25  27
BRANCH  25  29
ATOM     29  O   UNL     1      10.314   3.035   5.592  0.00  0.00    -0.254 OA
BRANCH  29  30
ATOM     30  C   UNL     1       9.431   1.961   6.013  0.00  0.00    +0.293 C 
ATOM     31  C   UNL     1       9.670   1.450   7.455  0.00  0.00    +0.202 C 
ATOM     32  C   UNL     1      10.920   0.550   7.571  0.00  0.00    +0.178 C 
ATOM     33  C   UNL     1      11.011  -0.514   6.467  0.00  0.00    +0.171 C 
ATOM     34  C   UNL     1      10.598   0.040   5.103  0.00  0.00    +0.197 C 
ATOM     35  O   UNL     1       9.392   0.815   5.138  0.00  0.00    -0.346 OA
BRANCH  31  36
ATOM     36  O   UNL     1       8.501   0.724   7.891  0.00  0.00    -0.384 OA
ATOM     37  H   UNL     1       8.714  -0.232   7.898  0.00  0.00    +0.210 HD
ENDBRANCH  31  36
BRANCH  32  38
ATOM     38  O   UNL     1      12.120   1.321   7.605  0.00  0.00    -0.386 OA
ATOM     39  H   UNL     1      12.107   1.962   6.874  0.00  0.00    +0.210 HD
ENDBRANCH  32  38
BRANCH  33  40
ATOM     40  O   UNL     1      10.160  -1.618   6.812  0.00  0.00    -0.387 OA
ATOM     41  H   UNL     1      10.372  -2.344   6.194  0.00  0.00    +0.210 HD
ENDBRANCH  33  40
ENDBRANCH  29  30
ENDBRANCH  25  29
ENDBRANCH  24  25
ENDBRANCH   1  24
TORSDOF 14
