REMARK  Name = 
REMARK  11 active torsions:
REMARK  status: ('A' for Active; 'I' for Inactive)
REMARK    1  A    between atoms: N_1  and  CA_2
REMARK    2  A    between atoms: CA_2  and  CB_4
REMARK    3  A    between atoms: CA_2  and  C_16
REMARK    4  A    between atoms: CB_4  and  SG_5
REMARK    5  A    between atoms: SG_5  and  C_6
REMARK    6  A    between atoms: C_6  and  O_8
REMARK    7  A    between atoms: C_6  and  C_9
REMARK    8  A    between atoms: C_9  and  CA_10
REMARK    9  A    between atoms: CA_10  and  N_12
REMARK   10  A    between atoms: CA_10  and  C_13
REMARK   11  A    between atoms: C_13  and  O_14
REMARK                            x       y       z     vdW  Elec       q    Type
REMARK                         _______ _______ _______ _____ _____    ______ ____
ROOT
ATOM      1  C   UNL     1       2.924   0.718   4.129  0.00  0.00    +0.174 C 
ENDROOT
BRANCH   1   2
ATOM      2  O   UNL     1       4.342   0.682   4.155  0.00  0.00    -0.381 OA
ATOM      3  H   UNL     1       4.627  -0.032   3.564  0.00  0.00    +0.211 HD
ENDBRANCH   1   2
BRANCH   1   4
ATOM      4  SG  UNL     1       2.320   1.221   2.492  0.00  0.00    -0.128 S 
BRANCH   4   5
ATOM      5  CB  UNL     1       2.874  -0.187   1.468  0.00  0.00    +0.097 C 
BRANCH   5   6
ATOM      6  CA  UNL     1       2.390   0.002   0.018  0.00  0.00    +0.124 C 
BRANCH   6   7
ATOM      7  N   UNL     1       2.841   1.277  -0.579  0.00  0.00    -0.321 NA
ATOM      8  H1  UNL     1       2.526   2.029   0.045  0.00  0.00    +0.119 HD
ATOM      9  H2  UNL     1       3.861   1.331  -0.528  0.00  0.00    +0.119 HD
ENDBRANCH   6   7
BRANCH   6  10
ATOM     10  C   UNL     1       2.879  -1.133  -0.865  0.00  0.00    +0.242 C 
ATOM     11  O   UNL     1       3.522  -2.096  -0.456  0.00  0.00    -0.299 OA
ENDBRANCH   6  10
ENDBRANCH   5   6
ENDBRANCH   4   5
ENDBRANCH   1   4
BRANCH   1  12
ATOM     12  C   UNL     1       2.464   1.725   5.189  0.00  0.00    +0.072 C 
BRANCH  12  13
ATOM     13  CA  UNL     1       0.943   1.862   5.353  0.00  0.00    +0.164 C 
BRANCH  13  14
ATOM     14  N   UNL     1       0.334   0.634   5.944  0.00  0.00    -0.318 NA
ATOM     15  H1  UNL     1      -0.686   0.740   5.876  0.00  0.00    +0.119 HD
ATOM     16  H2  UNL     1       0.530  -0.157   5.326  0.00  0.00    +0.119 HD
ENDBRANCH  13  14
BRANCH  13  17
ATOM     17  C   UNL     1       0.659   3.041   6.297  0.00  0.00    +0.322 C 
ATOM     18  OXT UNL     1       0.663   4.218   5.977  0.00  0.00    -0.249 OA
BRANCH  17  19
ATOM     19  O   UNL     1       0.402   2.609   7.561  0.00  0.00    -0.480 OA
ATOM     20  H   UNL     1       0.444   1.622   7.529  0.00  0.00    +0.295 HD
ENDBRANCH  17  19
ENDBRANCH  13  17
ENDBRANCH  12  13
ENDBRANCH   1  12
TORSDOF 11
