REMARK  Name = 
REMARK  7 active torsions:
REMARK  status: ('A' for Active; 'I' for Inactive)
REMARK    1  A    between atoms: N_4  and  C_5
REMARK    2  A    between atoms: C_5  and  C_7
REMARK    3  A    between atoms: C_5  and  C_13
REMARK    4  A    between atoms: N_15  and  C_16
REMARK    5  A    between atoms: C_16  and  C_17
REMARK    6  A    between atoms: C_22  and  C_25
REMARK    7  A    between atoms: C_27  and  C_30
REMARK                            x       y       z     vdW  Elec       q    Type
REMARK                         _______ _______ _______ _____ _____    ______ ____
ROOT
ATOM      1  C   UNL     1       8.479   2.532  -3.630  0.00  0.00    +0.233 C 
ATOM      2  N   UNL     1       8.964   3.330  -4.664  0.00  0.00    -0.300 N 
ATOM      3  C   UNL     1      10.403   3.333  -4.922  0.00  0.00    +0.108 C 
ATOM      4  C   UNL     1      10.895   4.705  -5.374  0.00  0.00    +0.029 C 
ATOM      5  C   UNL     1      10.075   5.266  -6.542  0.00  0.00    +0.042 C 
ATOM      6  C   UNL     1       8.578   5.206  -6.225  0.00  0.00    +0.029 C 
ATOM      7  C   UNL     1       8.127   3.827  -5.756  0.00  0.00    +0.108 C 
ATOM      8  O   UNL     1       9.218   2.016  -2.789  0.00  0.00    -0.274 OA
ENDROOT
BRANCH   5   9
ATOM      9  C   UNL     1      10.438   4.613  -7.850  0.00  0.00    +0.067 A 
ATOM     10  N   UNL     1       9.761   3.565  -8.320  0.00  0.00    -0.178 NA
ATOM     11  N   UNL     1      10.408   3.227  -9.441  0.00  0.00    -0.277 N 
ATOM     12  H   UNL     1      10.070   2.423  -9.963  0.00  0.00    +0.189 HD
ATOM     13  C   UNL     1      11.484   4.015  -9.734  0.00  0.00    +0.067 A 
ATOM     14  C   UNL     1      11.501   4.956  -8.716  0.00  0.00    +0.053 A 
BRANCH  13  15
ATOM     15  C   UNL     1      12.363   3.841 -10.898  0.00  0.00    +0.020 A 
ATOM     16  C   UNL     1      12.666   2.591 -11.490  0.00  0.00    +0.068 A 
ATOM     17 CL   UNL     1      11.999   1.111 -10.860  0.00  0.00    -0.081 Cl
ATOM     18  C   UNL     1      13.540   2.534 -12.591  0.00  0.00    +0.060 A 
ATOM     19 CL   UNL     1      13.962   1.047 -13.371  0.00  0.00    -0.082 Cl
ATOM     20  C   UNL     1      14.114   3.700 -13.102  0.00  0.00    +0.021 A 
ATOM     21  C   UNL     1      13.820   4.931 -12.529  0.00  0.00    +0.002 A 
ATOM     22  C   UNL     1      12.953   4.999 -11.440  0.00  0.00    +0.011 A 
ENDBRANCH  13  15
ENDBRANCH   5   9
BRANCH   1  23
ATOM     23  C   UNL     1       6.962   2.358  -3.523  0.00  0.00    +0.200 C 
BRANCH  23  25
ATOM     24  C   UNL     1       5.052   3.941  -3.273  0.00  0.00    +0.251 C 
ATOM     25  N   UNL     1       6.364   3.597  -3.076  0.00  0.00    -0.304 N 
ATOM     26  H   UNL     1       6.907   4.192  -2.458  0.00  0.00    +0.149 HD
ATOM     27  O   UNL     1       4.299   3.252  -3.954  0.00  0.00    -0.272 OA
BRANCH  24  28
ATOM     28  C   UNL     1       4.636   5.303  -2.660  0.00  0.00    +0.233 C 
BRANCH  28  33
ATOM     29  N   UNL     1       6.160   4.378  -0.211  0.00  0.00    -0.289 N 
ATOM     30  H   UNL     1       5.291   3.906  -0.406  0.00  0.00    +0.255 HD
ATOM     31  H   UNL     1       6.462   4.237   0.745  0.00  0.00    +0.255 HD
ATOM     32  C   UNL     1       6.354   5.596  -0.736  0.00  0.00    +0.377 C 
ATOM     33  N   UNL     1       5.757   5.908  -1.905  0.00  0.00    -0.265 N 
ATOM     34  H   UNL     1       5.976   6.861  -2.182  0.00  0.00    +0.259 HD
ATOM     35  N   UNL     1       7.185   6.436  -0.229  0.00  0.00    -0.130 NA
ATOM     36  H   UNL     1       7.629   6.023   0.594  0.00  0.00    +0.306 HD
ENDBRANCH  28  33
BRANCH  28  37
ATOM     37  C   UNL     1       3.322   5.314  -1.819  0.00  0.00    +0.035 C 
ATOM     38  C   UNL     1       2.012   4.784  -2.466  0.00  0.00    +0.007 C 
ATOM     39  C   UNL     1       1.109   5.772  -3.227  0.00  0.00    +0.000 C 
ATOM     40  C   UNL     1       1.154   7.226  -2.765  0.00  0.00    +0.000 C 
ATOM     41  C   UNL     1       2.559   7.647  -2.382  0.00  0.00    +0.000 C 
ATOM     42  C   UNL     1       3.050   6.726  -1.270  0.00  0.00    +0.007 C 
ENDBRANCH  28  37
ENDBRANCH  24  28
ENDBRANCH  23  25
ENDBRANCH   1  23
TORSDOF 7
