REMARK  Name = 
REMARK  5 active torsions:
REMARK  status: ('A' for Active; 'I' for Inactive)
REMARK    1  A    between atoms: O_1  and  C_2
REMARK    2  A    between atoms: C_4  and  C_18
REMARK    3  A    between atoms: C_6  and  S_7
REMARK    4  A    between atoms: S_7  and  C_8
REMARK    5  A    between atoms: C_8  and  C_9
REMARK                            x       y       z     vdW  Elec       q    Type
REMARK                         _______ _______ _______ _____ _____    ______ ____
ROOT
ATOM      1  C   UNL     1       5.308  -3.769   4.182  0.00  0.00    +0.217 A 
ATOM      2  N   UNL     1       4.946  -3.561   2.913  0.00  0.00    -0.187 NA
ATOM      3  C   UNL     1       5.847  -2.932   2.148  0.00  0.00    +0.192 A 
ATOM      4  N   UNL     1       7.029  -2.466   2.585  0.00  0.00    -0.218 NA
ATOM      5  C   UNL     1       7.360  -2.701   3.880  0.00  0.00    +0.151 A 
ATOM      6  C   UNL     1       6.500  -3.367   4.731  0.00  0.00    +0.099 A 
ENDROOT
BRANCH   5   7
ATOM      7  C   UNL     1       8.705  -2.212   4.388  0.00  0.00    +0.434 C 
ATOM      8  F   UNL     1       8.869  -0.865   4.264  0.00  0.00    -0.164 F 
ATOM      9  F   UNL     1       9.765  -2.787   3.754  0.00  0.00    -0.164 F 
ATOM     10  F   UNL     1       8.894  -2.476   5.717  0.00  0.00    -0.164 F 
ENDBRANCH   5   7
BRANCH   1  11
ATOM     11  O   UNL     1       4.378  -4.425   4.938  0.00  0.00    -0.492 OA
ATOM     12  H   UNL     1       4.729  -4.553   5.832  0.00  0.00    +0.294 HD
ENDBRANCH   1  11
BRANCH   3  13
ATOM     13  S   UNL     1       5.452  -2.579   0.455  0.00  0.00    -0.077 S 
BRANCH  13  14
ATOM     14  C   UNL     1       4.436  -4.029   0.042  0.00  0.00    +0.173 C 
BRANCH  14  15
ATOM     15  C   UNL     1       5.147  -5.367   0.236  0.00  0.00    +0.226 C 
ATOM     16  N   UNL     1       4.416  -6.519  -0.083  0.00  0.00    -0.301 N 
ATOM     17  C   UNL     1       4.915  -7.801   0.416  0.00  0.00    +0.108 C 
ATOM     18  C   UNL     1       4.687  -8.942  -0.571  0.00  0.00    +0.019 C 
ATOM     19  C   UNL     1       3.243  -8.987  -1.058  0.00  0.00    +0.003 C 
ATOM     20  C   UNL     1       2.830  -7.628  -1.614  0.00  0.00    +0.019 C 
ATOM     21  C   UNL     1       3.038  -6.524  -0.580  0.00  0.00    +0.108 C 
ATOM     22  O   UNL     1       6.306  -5.449   0.648  0.00  0.00    -0.275 OA
ENDBRANCH  14  15
ENDBRANCH  13  14
ENDBRANCH   3  13
TORSDOF 5
