REMARK  Name = 
REMARK  13 active torsions:
REMARK  status: ('A' for Active; 'I' for Inactive)
REMARK    1  A    between atoms: C_1  and  C_2
REMARK    2  A    between atoms: C_2  and  C_3
REMARK    3  A    between atoms: C_2  and  C_4
REMARK    4  A    between atoms: C_2  and  N_5
REMARK    5  A    between atoms: N_16  and  CA_17
REMARK    6  A    between atoms: CA_17  and  C_19
REMARK    7  A    between atoms: CA_17  and  C_30
REMARK    8  A    between atoms: C_19  and  C_21
REMARK    9  A    between atoms: C_19  and  C_28
REMARK   10  A    between atoms: C_21  and  C_22
REMARK   11  A    between atoms: C_22  and  C_23
REMARK   12  A    between atoms: C_23  and  N_24
REMARK   13  A    between atoms: C_30  and  O_31
REMARK                            x       y       z     vdW  Elec       q    Type
REMARK                         _______ _______ _______ _____ _____    ______ ____
ROOT
ATOM      1  CA  UNL     1       7.776  -7.728  -6.688  0.00  0.00    +0.193 C 
ENDROOT
BRANCH   1  10
ATOM      2  N   UNL     1       5.067  -6.420   1.334  0.00  0.00    -0.294 N 
ATOM      3  H   UNL     1       5.763  -5.730   1.098  0.00  0.00    +0.151 HD
ATOM      4  C   UNL     1       4.536  -7.038   0.239  0.00  0.00    +0.303 C 
ATOM      5  N   UNL     1       5.409  -7.183  -0.826  0.00  0.00    -0.283 N 
ATOM      6  C   UNL     1       6.876  -7.094  -0.788  0.00  0.00    +0.128 C 
ATOM      7  C   UNL     1       7.388  -6.222  -1.949  0.00  0.00    +0.128 C 
ATOM      8  N   UNL     1       6.825  -6.654  -3.245  0.00  0.00    -0.283 N 
ATOM      9  C   UNL     1       7.681  -7.039  -4.258  0.00  0.00    +0.303 C 
ATOM     10  N   UNL     1       7.109  -7.191  -5.494  0.00  0.00    -0.285 N 
ATOM     11  H   UNL     1       6.108  -7.221  -5.536  0.00  0.00    +0.151 HD
ATOM     12  O   UNL     1       8.891  -7.150  -4.092  0.00  0.00    -0.253 OA
ATOM     13  C   UNL     1       5.354  -6.738  -3.241  0.00  0.00    +0.128 C 
ATOM     14  C   UNL     1       4.864  -7.642  -2.103  0.00  0.00    +0.128 C 
ATOM     15  O   UNL     1       3.373  -7.410   0.169  0.00  0.00    -0.253 OA
BRANCH   2  17
ATOM     16  C   UNL     1       3.733  -7.396   3.188  0.00  0.00    +0.031 C 
ATOM     17  C   UNL     1       4.280  -6.112   2.543  0.00  0.00    +0.028 C 
ATOM     18  C   UNL     1       5.218  -5.433   3.557  0.00  0.00    +0.031 C 
ATOM     19  C   UNL     1       3.133  -5.140   2.217  0.00  0.00    +0.031 C 
ENDBRANCH   2  17
ENDBRANCH   1  10
BRANCH   1  20
ATOM     20  C   UNL     1       9.281  -7.396  -6.811  0.00  0.00    +0.326 C 
ATOM     21  OXT UNL     1      10.162  -8.241  -6.907  0.00  0.00    -0.249 OA
BRANCH  20  22
ATOM     22  O   UNL     1       9.527  -6.070  -6.927  0.00  0.00    -0.479 OA
ATOM     23  H   UNL     1       8.724  -5.533  -6.786  0.00  0.00    +0.295 HD
ENDBRANCH  20  22
ENDBRANCH   1  20
BRANCH   1  24
ATOM     24  C   UNL     1       7.517  -9.224  -6.971  0.00  0.00    +0.083 C 
BRANCH  24  25
ATOM     25  C   UNL     1       8.010  -9.493  -8.388  0.00  0.00    +0.229 C 
ATOM     26  O   UNL     1       7.567  -8.896  -9.363  0.00  0.00    -0.301 OA
ENDBRANCH  24  25
BRANCH  24  27
ATOM     27  C   UNL     1       6.027  -9.627  -6.899  0.00  0.00    +0.016 C 
BRANCH  27  28
ATOM     28  C   UNL     1       5.738 -11.090  -7.286  0.00  0.00    +0.038 C 
BRANCH  28  29
ATOM     29  C   UNL     1       6.463 -12.090  -6.388  0.00  0.00    +0.196 C 
BRANCH  29  30
ATOM     30  N   UNL     1       6.125 -13.449  -6.758  0.00  0.00    -0.276 N 
ATOM     31  H   UNL     1       5.991 -13.588  -7.755  0.00  0.00    +0.258 HD
ATOM     32  C   UNL     1       6.712 -14.524  -6.188  0.00  0.00    +0.376 C 
ATOM     33  N   UNL     1       7.491 -14.564  -5.173  0.00  0.00    -0.130 NA
ATOM     34  H   UNL     1       7.647 -13.623  -4.813  0.00  0.00    +0.306 HD
ATOM     35  N   UNL     1       6.380 -15.666  -6.815  0.00  0.00    -0.289 N 
ATOM     36  H   UNL     1       6.708 -16.452  -6.261  0.00  0.00    +0.255 HD
ATOM     37  H   UNL     1       5.385 -15.744  -6.982  0.00  0.00    +0.255 HD
ENDBRANCH  29  30
ENDBRANCH  28  29
ENDBRANCH  27  28
ENDBRANCH  24  27
ENDBRANCH   1  24
TORSDOF 10
