REMARK  Name = 
REMARK  5 active torsions:
REMARK  status: ('A' for Active; 'I' for Inactive)
REMARK    1  A    between atoms: N_1  and  CA_2
REMARK    2  A    between atoms: CA_2  and  C_4
REMARK    3  A    between atoms: CA_2  and  C_16
REMARK    4  A    between atoms: C_4  and  N_5
REMARK    5  A    between atoms: C_16  and  O_17
REMARK                            x       y       z     vdW  Elec       q    Type
REMARK                         _______ _______ _______ _____ _____    ______ ____
ROOT
ATOM      1  N   UNL     1       2.553   0.453  -2.424  0.00  0.00    -0.295 N 
ATOM      2  C   UNL     1       2.062   1.458  -3.262  0.00  0.00    +0.330 A 
ATOM      3  O   UNL     1       2.047   2.649  -2.954  0.00  0.00    -0.246 OA
ATOM      4  N   UNL     1       1.646   1.065  -4.508  0.00  0.00    -0.275 N 
ATOM      5  H   UNL     1       1.330   1.790  -5.132  0.00  0.00    +0.173 HD
ATOM      6  C   UNL     1       1.747  -0.193  -5.034  0.00  0.00    +0.257 A 
ATOM      7  O   UNL     1       1.461  -0.458  -6.195  0.00  0.00    -0.267 OA
ATOM      8  C   UNL     1       2.224  -1.203  -4.095  0.00  0.00    +0.036 A 
ATOM      9  C   UNL     1       2.336  -2.652  -4.377  0.00  0.00    +0.043 C 
ATOM     10  C   UNL     1       2.912  -3.206  -3.070  0.00  0.00    +0.011 C 
ATOM     11  C   UNL     1       2.947  -2.057  -2.053  0.00  0.00    +0.054 C 
ATOM     12  C   UNL     1       2.579  -0.857  -2.859  0.00  0.00    +0.032 A 
ENDROOT
BRANCH   1  13
ATOM     13  C   UNL     1       3.041   0.829  -1.085  0.00  0.00    +0.156 C 
BRANCH  13  14
ATOM     14  CA  UNL     1       4.482   1.398  -1.041  0.00  0.00    +0.181 C 
BRANCH  14  15
ATOM     15  N   UNL     1       4.749   2.550  -1.962  0.00  0.00    -0.317 NA
ATOM     16  H1  UNL     1       4.168   2.432  -2.801  0.00  0.00    +0.119 HD
ATOM     17  H2  UNL     1       4.300   3.374  -1.542  0.00  0.00    +0.119 HD
ENDBRANCH  14  15
BRANCH  14  18
ATOM     18  C   UNL     1       5.523   0.307  -1.313  0.00  0.00    +0.323 C 
ATOM     19  OXT UNL     1       5.645  -0.723  -0.669  0.00  0.00    -0.249 OA
BRANCH  18  20
ATOM     20  O   UNL     1       6.331   0.632  -2.355  0.00  0.00    -0.479 OA
ATOM     21  H   UNL     1       6.085   1.560  -2.600  0.00  0.00    +0.295 HD
ENDBRANCH  18  20
ENDBRANCH  14  18
ENDBRANCH  13  14
ENDBRANCH   1  13
TORSDOF 5
