REMARK  Name = 
REMARK  5 active torsions:
REMARK  status: ('A' for Active; 'I' for Inactive)
REMARK    1  A    between atoms: O_1  and  B_2
REMARK    2  A    between atoms: B_2  and  O_3
REMARK    3  A    between atoms: B_2  and  C_4
REMARK    4  A    between atoms: C_7  and  C_10
REMARK    5  A    between atoms: C_10  and  O_11
REMARK                            x       y       z     vdW  Elec       q    Type
REMARK                         _______ _______ _______ _____ _____    ______ ____
ROOT
ATOM      1  C   UNL     1       3.328   1.371  -0.052  0.00  0.00    +0.000 A 
ATOM      2  C   UNL     1       4.712   1.413  -0.278  0.00  0.00    +0.000 A 
ATOM      3  C   UNL     1       5.377   2.634  -0.397  0.00  0.00    +0.000 A 
ATOM      4  C   UNL     1       4.675   3.851  -0.292  0.00  0.00    +0.000 A 
ATOM      5  C   UNL     1       3.283   3.801  -0.070  0.00  0.00    +0.000 A 
ATOM      6  C   UNL     1       2.618   2.575   0.047  0.00  0.00    +0.000 A 
ENDROOT
BRANCH   4   7
ATOM      7  C   UNL     1       5.360   5.175  -0.406  0.00  0.00    +0.000 C 
ATOM      8  O   UNL     1       4.703   6.203  -0.310  0.00  0.00    +0.000 OA
BRANCH   7   9
ATOM      9  O   UNL     1       6.694   5.295  -0.607  0.00  0.00    +0.000 OA
ATOM     10  H   UNL     1       7.304   4.552  -0.690  0.00  0.00    +0.000 HD
ENDBRANCH   7   9
ENDBRANCH   4   7
BRANCH   1  11
ATOM     11  B   UNL     1       2.594  -0.019   0.097  0.00  0.00    +0.000 B 
BRANCH  11  12
ATOM     12  O   UNL     1       1.159  -0.072   0.386  0.00  0.00    +0.000 OA
ATOM     13  H   UNL     1       0.760  -0.546  -0.389  0.00  0.00    +0.000 HD
ENDBRANCH  11  12
BRANCH  11  14
ATOM     14  O   UNL     1       3.375  -1.258   0.058  0.00  0.00    +0.000 OA
ATOM     15  H   UNL     1       2.719  -1.993  -0.045  0.00  0.00    +0.000 HD
ENDBRANCH  11  14
ENDBRANCH   1  11
TORSDOF 5
