REMARK  Name = 
REMARK  7 active torsions:
REMARK  status: ('A' for Active; 'I' for Inactive)
REMARK    1  A    between atoms: C_1  and  O_2
REMARK    2  A    between atoms: O_2  and  C_3
REMARK    3  A    between atoms: C_7  and  C_8
REMARK    4  A    between atoms: C_10  and  O_11
REMARK    5  A    between atoms: O_11  and  P_12
REMARK    6  A    between atoms: P_12  and  O_13
REMARK    7  A    between atoms: P_12  and  O_14
REMARK                            x       y       z     vdW  Elec       q    Type
REMARK                         _______ _______ _______ _____ _____    ______ ____
ROOT
ATOM      1  C   UNL     1       3.217  -1.059  -0.367  0.00  0.00    +0.163 A 
ATOM      2  C   UNL     1       2.358  -2.171  -0.413  0.00  0.00    +0.184 A 
ATOM      3  C   UNL     1       2.898  -3.462  -0.277  0.00  0.00    +0.060 A 
ATOM      4  C   UNL     1       4.263  -3.647  -0.044  0.00  0.00    +0.015 A 
ATOM      5  C   UNL     1       5.101  -2.546   0.062  0.00  0.00    +0.004 A 
ATOM      6  C   UNL     1       4.580  -1.262  -0.091  0.00  0.00    +0.049 A 
ENDROOT
BRANCH   1   8
ATOM      7  C   UNL     1       3.616   1.151  -1.123  0.00  0.00    +0.277 C 
ATOM      8  O   UNL     1       2.690   0.186  -0.610  0.00  0.00    -0.491 OA
ENDBRANCH   1   8
BRANCH   3   9
ATOM      9  C   UNL     1       2.032  -4.655  -0.386  0.00  0.00    +0.262 C 
ATOM     10  O   UNL     1       2.486  -5.792  -0.330  0.00  0.00    -0.296 OA
ENDBRANCH   3   9
BRANCH   2  11
ATOM     11  O   UNL     1       1.011  -2.108  -0.640  0.00  0.00    -0.400 OA
BRANCH  11  12
ATOM     12  P   UNL     1       0.030  -0.913  -0.242  0.00  0.00    +0.528 P 
ATOM     13  O   UNL     1       0.121  -0.373   1.144  0.00  0.00    -0.216 OA
BRANCH  12  14
ATOM     14  O   UNL     1      -1.415  -1.543  -0.533  0.00  0.00    -0.293 OA
ATOM     15  H   UNL     1      -1.818  -1.889   0.283  0.00  0.00    +0.223 HD
ENDBRANCH  12  14
BRANCH  12  16
ATOM     16  O   UNL     1       0.149   0.168  -1.409  0.00  0.00    -0.293 OA
ATOM     17  H   UNL     1       0.990   0.650  -1.301  0.00  0.00    +0.223 HD
ENDBRANCH  12  16
ENDBRANCH  11  12
ENDBRANCH   2  11
TORSDOF 6
