REMARK  Name = 
REMARK  4 active torsions:
REMARK  status: ('A' for Active; 'I' for Inactive)
REMARK    1  A    between atoms: C_1  and  N_2
REMARK    2  A    between atoms: N_2  and  CA_3
REMARK    3  A    between atoms: CA_3  and  C_5
REMARK    4  A    between atoms: C_5  and  O_6
REMARK                            x       y       z     vdW  Elec       q    Type
REMARK                         _______ _______ _______ _____ _____    ______ ____
ROOT
ATOM      1  CA  ALA A   1       3.237  -0.364  -1.131  0.00  0.00    +0.105 C 
ATOM      2  CB  ALA A   1       2.658  -0.789  -2.262  0.00  0.00    +0.040 C 
ENDROOT
BRANCH   1   4
ATOM      3  C   ACE A   0       1.143   0.134   0.152  0.00  0.00    +0.125 C 
ATOM      4  N   ALA A   1       2.592   0.157  -0.004  0.00  0.00    -0.342 N 
ATOM      5  H   ALA A   1       3.047  -0.191   0.848  0.00  0.00    +0.146 HD
ENDBRANCH   1   4
BRANCH   1   6
ATOM      6  C   ALA A   1       4.751  -0.442  -1.102  0.00  0.00    +0.350 C 
ATOM      7  OXT ALA A   1       5.447  -1.163  -1.788  0.00  0.00    -0.244 OA
BRANCH   6   8
ATOM      8  O   ALA A   1       5.225   0.425  -0.174  0.00  0.00    -0.476 OA
ATOM      9  H   ALA A   1       4.489   1.006   0.114  0.00  0.00    +0.295 HD
ENDBRANCH   6   8
ENDBRANCH   1   6
TORSDOF 3
