REMARK  Name = 
REMARK  7 active torsions:
REMARK  status: ('A' for Active; 'I' for Inactive)
REMARK    1  A    between atoms: CE_1  and  SD_2
REMARK    2  A    between atoms: SD_2  and  CG_3
REMARK    3  A    between atoms: CG_3  and  CB_4
REMARK    4  A    between atoms: CB_4  and  CA_5
REMARK    5  A    between atoms: CA_5  and  N_7
REMARK    6  A    between atoms: CA_5  and  C_11
REMARK    7  A    between atoms: C_11  and  O_12
REMARK                            x       y       z     vdW  Elec       q    Type
REMARK                         _______ _______ _______ _____ _____    ______ ____
ROOT
ATOM      1  CA  MET A   1       5.236  -3.108  -0.027  0.00  0.00    +0.184 C 
ENDROOT
BRANCH   1   2
ATOM      2  N   MET A   1       4.645  -3.888  -1.128  0.00  0.00    -0.286 N 
ATOM      3  H   MET A   1       4.323  -4.818  -0.899  0.00  0.00    +0.151 HD
ATOM      4  C   UNK A   0       4.474  -3.483  -2.407  0.00  0.00    +0.298 C 
ATOM      5  O   UNK A   0       4.863  -2.412  -2.847  0.00  0.00    -0.253 OA
ATOM      6  N   UNK A   0       3.853  -4.397  -3.183  0.00  0.00    -0.313 N 
ATOM      7  H   UNK A   0       3.772  -4.126  -4.157  0.00  0.00    +0.146 HD
ATOM      8  H   UNK A   0       4.069  -5.374  -3.045  0.00  0.00    +0.146 HD
ENDBRANCH   1   2
BRANCH   1   9
ATOM      9  C   MET A   1       6.770  -3.219   0.009  0.00  0.00    +0.325 C 
ATOM     10  OXT MET A   1       7.425  -3.116   1.038  0.00  0.00    -0.249 OA
BRANCH   9  11
ATOM     11  O   MET A   1       7.354  -3.334  -1.202  0.00  0.00    -0.479 OA
ATOM     12  H   MET A   1       6.713  -3.197  -1.932  0.00  0.00    +0.295 HD
ENDBRANCH   9  11
ENDBRANCH   1   9
BRANCH   1  13
ATOM     13  CB  MET A   1       4.862  -1.617   0.014  0.00  0.00    +0.044 C 
BRANCH  13  14
ATOM     14  CG  MET A   1       3.356  -1.375   0.037  0.00  0.00    +0.071 C 
BRANCH  14  16
ATOM     15  CE  MET A   1       3.509   0.861  -1.610  0.00  0.00    +0.084 C 
ATOM     16  SD  MET A   1       2.953   0.405   0.056  0.00  0.00    -0.164 S 
ENDBRANCH  14  16
ENDBRANCH  13  14
ENDBRANCH   1  13
TORSDOF 6
