REMARK  Name = 
REMARK  7 active torsions:
REMARK  status: ('A' for Active; 'I' for Inactive)
REMARK    1  A    between atoms: C_2  and  C_17
REMARK    2  A    between atoms: N_6  and  S_7
REMARK    3  A    between atoms: S_7  and  C_10
REMARK    4  A    between atoms: C_13  and  C_14
REMARK    5  A    between atoms: N_19  and  C_20
REMARK    6  A    between atoms: C_20  and  C_21
REMARK    7  A    between atoms: C_21  and  S_22
REMARK                            x       y       z     vdW  Elec       q    Type
REMARK                         _______ _______ _______ _____ _____    ______ ____
ROOT
ATOM      1  C   UNL     1       1.992   0.154   0.074  0.00  0.00    +0.165 C 
ATOM      2  N   UNL     1       2.541  -1.147   0.616  0.00  0.00    -0.165 NA
ATOM      3  C   UNL     1       3.681  -0.808   1.522  0.00  0.00    +0.110 C 
ATOM      4  C   UNL     1       3.997   0.654   1.258  0.00  0.00    +0.019 C 
ATOM      5  C   UNL     1       2.640   1.234   0.947  0.00  0.00    +0.031 C 
ENDROOT
BRANCH   1   6
ATOM      6  C   UNL     1       0.474   0.329   0.124  0.00  0.00    +0.232 C 
ATOM      7  N   UNL     1      -0.288  -0.807  -0.010  0.00  0.00    -0.313 N 
ATOM      8  H   UNL     1       0.171  -1.657  -0.337  0.00  0.00    +0.149 HD
ATOM      9  O   UNL     1      -0.046   1.441   0.232  0.00  0.00    -0.274 OA
BRANCH   7  10
ATOM     10  C   UNL     1      -1.741  -0.753   0.014  0.00  0.00    +0.114 C 
BRANCH  10  11
ATOM     11  C   UNL     1      -2.373  -0.492  -1.353  0.00  0.00    +0.084 C 
BRANCH  11  12
ATOM     12  S   UNL     1      -2.055  -1.863  -2.511  0.00  0.00    -0.177 S 
ATOM     13  H   UNL     1      -0.716  -1.763  -2.493  0.00  0.00    +0.102 HD
ENDBRANCH  11  12
ENDBRANCH  10  11
ENDBRANCH   7  10
ENDBRANCH   1   6
BRANCH   2  14
ATOM     14  S   UNL     1       2.880  -2.301  -0.596  0.00  0.00    +0.062 S 
ATOM     15  O   UNL     1       4.067  -1.857  -1.293  0.00  0.00    -0.153 OA
ATOM     16  O   UNL     1       1.634  -2.532  -1.294  0.00  0.00    -0.153 OA
BRANCH  14  17
ATOM     17  C   UNL     1       3.269  -3.776   0.321  0.00  0.00    +0.106 A 
ATOM     18  C   UNL     1       4.566  -4.298   0.306  0.00  0.00    +0.029 A 
ATOM     19  C   UNL     1       4.846  -5.471   1.017  0.00  0.00    +0.005 A 
ATOM     20  C   UNL     1       3.840  -6.123   1.742  0.00  0.00    -0.050 A 
ATOM     21  C   UNL     1       4.158  -7.375   2.509  0.00  0.00    +0.044 C 
ATOM     22  C   UNL     1       2.536  -5.607   1.718  0.00  0.00    +0.005 A 
ATOM     23  C   UNL     1       2.248  -4.435   1.009  0.00  0.00    +0.029 A 
ENDBRANCH  14  17
ENDBRANCH   2  14
TORSDOF 6
