REMARK  Name = 
REMARK  3 active torsions:
REMARK  status: ('A' for Active; 'I' for Inactive)
REMARK    1  A    between atoms: O_1  and  C_2
REMARK    2  A    between atoms: C_2  and  C_3
REMARK    3  A    between atoms: C_3  and  C_4
REMARK                            x       y       z     vdW  Elec       q    Type
REMARK                         _______ _______ _______ _____ _____    ______ ____
ROOT
ATOM      1  C   UNL     1       4.425  -0.487   1.417  0.00  0.00    -0.045 A 
ATOM      2  C   UNL     1       5.182  -0.545   0.237  0.00  0.00    +0.006 A 
ATOM      3  C   UNL     1       6.573  -0.454   0.287  0.00  0.00    +0.038 A 
ATOM      4  C   UNL     1       7.207  -0.301   1.515  0.00  0.00    +0.123 A 
ATOM      5  F   UNL     1       8.543  -0.215   1.562  0.00  0.00    -0.205 F 
ATOM      6  C   UNL     1       6.475  -0.235   2.694  0.00  0.00    +0.038 A 
ATOM      7  C   UNL     1       5.083  -0.326   2.646  0.00  0.00    +0.006 A 
ENDROOT
BRANCH   1   8
ATOM      8  C   UNL     1       2.921  -0.576   1.365  0.00  0.00    +0.063 C 
BRANCH   8   9
ATOM      9  C   UNL     1       2.263   0.793   1.233  0.00  0.00    +0.160 C 
BRANCH   9  10
ATOM     10  O   UNL     1       0.848   0.633   1.205  0.00  0.00    -0.395 OA
ATOM     11  H   UNL     1       0.463   1.522   1.123  0.00  0.00    +0.209 HD
ENDBRANCH   9  10
ENDBRANCH   8   9
ENDBRANCH   1   8
TORSDOF 3
