REMARK  Name = 
REMARK  13 active torsions:
REMARK  status: ('A' for Active; 'I' for Inactive)
REMARK    1  A    between atoms: C_1  and  C_2
REMARK    2  A    between atoms: C_1  and  C_3
REMARK    3  A    between atoms: C_1  and  C_4
REMARK    4  A    between atoms: C_4  and  C_5
REMARK    5  A    between atoms: C_5  and  C_7
REMARK    6  A    between atoms: C_5  and  N_31
REMARK    7  A    between atoms: N_9  and  C_10
REMARK    8  A    between atoms: C_10  and  C_12
REMARK    9  A    between atoms: C_10  and  C_20
REMARK   10  A    between atoms: C_12  and  C_13
REMARK   11  A    between atoms: C_13  and  C_14
REMARK   12  A    between atoms: C_21  and  S_22
REMARK   13  A    between atoms: S_22  and  C_25
REMARK                            x       y       z     vdW  Elec       q    Type
REMARK                         _______ _______ _______ _____ _____    ______ ____
ROOT
ATOM      1  C   UNL     1       0.546  -3.911   0.331  0.00  0.00    +0.098 C 
ENDROOT
BRANCH   1   3
ATOM      2  C   UNL     1       1.404  -3.406  -1.964  0.00  0.00    +0.234 C 
ATOM      3  N   UNL     1       1.095  -4.306  -0.955  0.00  0.00    -0.307 N 
ATOM      4  H   UNL     1       1.116  -5.294  -1.178  0.00  0.00    +0.149 HD
ATOM      5  O   UNL     1       1.327  -2.192  -1.802  0.00  0.00    -0.274 OA
BRANCH   2   6
ATOM      6  C   UNL     1       2.055  -4.071  -3.204  0.00  0.00    +0.161 C 
BRANCH   6   7
ATOM      7  N   UNL     1       3.490  -4.177  -2.941  0.00  0.00    -0.288 N 
ATOM      8  H   UNL     1       3.899  -3.452  -2.384  0.00  0.00    +0.151 HD
ATOM      9  C   UNL     1       4.267  -5.088  -3.595  0.00  0.00    +0.303 C 
ATOM     10  N   UNL     1       5.624  -5.015  -3.375  0.00  0.00    -0.281 N 
ATOM     11  C   UNL     1       6.372  -4.067  -2.541  0.00  0.00    +0.137 C 
ATOM     12  C   UNL     1       7.501  -3.409  -3.349  0.00  0.00    +0.179 C 
ATOM     13  O   UNL     1       8.345  -4.388  -3.976  0.00  0.00    -0.377 OA
ATOM     14  C   UNL     1       7.579  -5.235  -4.849  0.00  0.00    +0.179 C 
ATOM     15  C   UNL     1       6.496  -5.976  -4.063  0.00  0.00    +0.137 C 
ATOM     16  O   UNL     1       3.764  -5.922  -4.343  0.00  0.00    -0.253 OA
ENDBRANCH   6   7
BRANCH   6  17
ATOM     17  C   UNL     1       1.724  -3.425  -4.570  0.00  0.00    +0.034 C 
BRANCH  17  18
ATOM     18  C   UNL     1       1.973  -1.919  -4.803  0.00  0.00    -0.015 C 
ATOM     19  C   UNL     1       1.467  -1.531  -6.204  0.00  0.00    +0.007 C 
ATOM     20  C   UNL     1       3.428  -1.471  -4.683  0.00  0.00    +0.007 C 
ENDBRANCH  17  18
ENDBRANCH   6  17
ENDBRANCH   2   6
ENDBRANCH   1   3
BRANCH   1  21
ATOM     21  C   UNL     1      -0.950  -3.950   0.188  0.00  0.00    +0.014 C 
ATOM     22  C   UNL     1      -1.757  -2.899   0.412  0.00  0.00    +0.137 C 
BRANCH  22  23
ATOM     23  S   UNL     1      -3.470  -3.064   0.151  0.00  0.00    +0.018 S 
ATOM     24  O   UNL     1      -4.108  -3.227   1.444  0.00  0.00    -0.165 OA
ATOM     25  O   UNL     1      -3.722  -4.005  -0.924  0.00  0.00    -0.165 OA
BRANCH  23  26
ATOM     26  C   UNL     1      -3.924  -1.459  -0.472  0.00  0.00    +0.093 A 
ATOM     27  C   UNL     1      -4.895  -0.700   0.186  0.00  0.00    +0.027 A 
ATOM     28  C   UNL     1      -5.217   0.568  -0.299  0.00  0.00    +0.002 A 
ATOM     29  C   UNL     1      -4.573   1.067  -1.434  0.00  0.00    +0.000 A 
ATOM     30  C   UNL     1      -3.614   0.299  -2.095  0.00  0.00    +0.002 A 
ATOM     31  C   UNL     1      -3.286  -0.970  -1.618  0.00  0.00    +0.027 A 
ENDBRANCH  23  26
ENDBRANCH  22  23
ENDBRANCH   1  21
BRANCH   1  32
ATOM     32  C   UNL     1       1.004  -4.864   1.451  0.00  0.00    +0.031 C 
BRANCH  32  33
ATOM     33  C   UNL     1       2.522  -4.823   1.662  0.00  0.00    +0.037 C 
BRANCH  33  34
ATOM     34  C   UNL     1       2.989  -5.801   2.714  0.00  0.00    -0.047 A 
ATOM     35  C   UNL     1       3.104  -5.411   4.055  0.00  0.00    +0.003 A 
ATOM     36  C   UNL     1       3.560  -6.314   5.019  0.00  0.00    +0.000 A 
ATOM     37  C   UNL     1       3.899  -7.615   4.655  0.00  0.00    +0.000 A 
ATOM     38  C   UNL     1       3.774  -8.019   3.327  0.00  0.00    +0.000 A 
ATOM     39  C   UNL     1       3.319  -7.117   2.361  0.00  0.00    +0.003 A 
ENDBRANCH  33  34
ENDBRANCH  32  33
ENDBRANCH   1  32
TORSDOF 11
