REMARK  Name = 
REMARK  6 active torsions:
REMARK  status: ('A' for Active; 'I' for Inactive)
REMARK    1  A    between atoms: N_1  and  C_2
REMARK    2  A    between atoms: C_4  and  C_6
REMARK    3  A    between atoms: C_6  and  O_7
REMARK    4  A    between atoms: C_9  and  O_11
REMARK    5  A    between atoms: C_12  and  O_14
REMARK    6  A    between atoms: C_15  and  O_17
REMARK                            x       y       z     vdW  Elec       q    Type
REMARK                         _______ _______ _______ _____ _____    ______ ____
ROOT
ATOM      1  C   UNL     1       2.363   0.020  -0.017  0.00  0.00    +0.114 C 
ATOM      2  C   UNL     1       2.835   1.057  -1.071  0.00  0.00    +0.167 C 
ATOM      3  C   UNL     1       2.475   0.605  -2.490  0.00  0.00    +0.200 C 
ATOM      4  C   UNL     1       2.929  -0.844  -2.712  0.00  0.00    +0.279 C 
ATOM      5  O   UNL     1       2.401  -1.724  -1.733  0.00  0.00    -0.342 OA
ATOM      6  C   UNL     1       2.862  -1.390  -0.407  0.00  0.00    +0.166 C 
ENDROOT
BRANCH   1   7
ATOM      7  N   UNL     1       2.743   0.483   1.328  0.00  0.00    -0.323 NA
ATOM      8  H   UNL     1       2.535  -0.215   2.041  0.00  0.00    +0.119 HD
ATOM      9  H   UNL     1       3.751   0.653   1.379  0.00  0.00    +0.119 HD
ENDBRANCH   1   7
BRANCH   2  10
ATOM     10  O   UNL     1       2.230   2.337  -0.822  0.00  0.00    -0.387 OA
ATOM     11  H   UNL     1       1.708   2.261  -0.003  0.00  0.00    +0.210 HD
ENDBRANCH   2  10
BRANCH   3  12
ATOM     12  O   UNL     1       3.089   1.460  -3.465  0.00  0.00    -0.384 OA
ATOM     13  H   UNL     1       2.931   1.047  -4.335  0.00  0.00    +0.210 HD
ENDBRANCH   3  12
BRANCH   4  14
ATOM     14  O   UNL     1       2.477  -1.289  -3.985  0.00  0.00    -0.365 OA
ATOM     15  H   UNL     1       1.507  -1.329  -3.917  0.00  0.00    +0.213 HD
ENDBRANCH   4  14
BRANCH   6  16
ATOM     16  C   UNL     1       2.310  -2.488   0.520  0.00  0.00    +0.189 C 
BRANCH  16  17
ATOM     17  O   UNL     1       2.771  -3.763   0.085  0.00  0.00    -0.392 OA
ATOM     18  H   UNL     1       2.555  -3.817  -0.867  0.00  0.00    +0.210 HD
ENDBRANCH  16  17
ENDBRANCH   6  16
TORSDOF 6
