REMARK  Name = 
REMARK  4 active torsions:
REMARK  status: ('A' for Active; 'I' for Inactive)
REMARK    1  A    between atoms: O_1  and  C_2
REMARK    2  A    between atoms: C_2  and  C_4
REMARK    3  A    between atoms: C_2  and  C_7
REMARK    4  A    between atoms: C_4  and  O_5
REMARK                            x       y       z     vdW  Elec       q    Type
REMARK                         _______ _______ _______ _____ _____    ______ ____
ROOT
ATOM      1  C   UNL     1       2.531   0.056   0.098  0.00  0.00    +0.253 C 
ENDROOT
BRANCH   1   2
ATOM      2  C   UNL     1       2.973   1.494   0.263  0.00  0.00    -0.008 A 
ATOM      3  C   UNL     1       4.340   1.813   0.334  0.00  0.00    +0.007 A 
ATOM      4  C   UNL     1       4.752   3.141   0.420  0.00  0.00    +0.000 A 
ATOM      5  C   UNL     1       3.809   4.164   0.422  0.00  0.00    +0.000 A 
ATOM      6  C   UNL     1       2.450   3.864   0.354  0.00  0.00    +0.000 A 
ATOM      7  C   UNL     1       2.032   2.535   0.279  0.00  0.00    +0.007 A 
ENDBRANCH   1   2
BRANCH   1   8
ATOM      8  O   UNL     1       3.296  -0.757   0.989  0.00  0.00    -0.376 OA
ATOM      9  H   UNL     1       3.696  -1.459   0.439  0.00  0.00    +0.211 HD
ENDBRANCH   1   8
BRANCH   1  10
ATOM     10  C   UNL     1       2.606  -0.451  -1.353  0.00  0.00    +0.338 C 
ATOM     11  O   UNL     1       2.947  -1.599  -1.620  0.00  0.00    -0.248 OA
BRANCH  10  12
ATOM     12  O   UNL     1       2.243   0.422  -2.318  0.00  0.00    -0.479 OA
ATOM     13  H   UNL     1       2.076   1.331  -2.001  0.00  0.00    +0.295 HD
ENDBRANCH  10  12
ENDBRANCH   1  10
TORSDOF 4
