REMARK  Name = 
REMARK  8 active torsions:
REMARK  status: ('A' for Active; 'I' for Inactive)
REMARK    1  A    between atoms: C_1  and  O_2
REMARK    2  A    between atoms: O_2  and  C_3
REMARK    3  A    between atoms: N_9  and  C_10
REMARK    4  A    between atoms: C_10  and  C_11
REMARK    5  A    between atoms: C_17  and  C_18
REMARK    6  A    between atoms: C_19  and  C_20
REMARK    7  A    between atoms: C_20  and  C_21
REMARK    8  A    between atoms: C_21  and  O_22
REMARK                            x       y       z     vdW  Elec       q    Type
REMARK                         _______ _______ _______ _____ _____    ______ ____
ROOT
ATOM      1  C   UNL     1       3.054  -1.071   0.490  0.00  0.00    +0.121 A 
ATOM      2  C   UNL     1       4.164  -0.679   1.232  0.00  0.00    +0.047 A 
ATOM      3  C   UNL     1       4.854  -1.586   2.044  0.00  0.00    +0.030 A 
ATOM      4  C   UNL     1       4.408  -2.917   2.071  0.00  0.00    +0.050 A 
ATOM      5  N   UNL     1       4.807  -3.997   2.837  0.00  0.00    -0.339 N 
ATOM      6  C   UNL     1       4.159  -5.142   2.408  0.00  0.00    +0.021 A 
ATOM      7  C   UNL     1       3.241  -4.769   1.429  0.00  0.00    -0.008 A 
ATOM      8  C   UNL     1       4.415  -6.497   2.982  0.00  0.00    +0.064 C 
ATOM      9  C   UNL     1       3.355  -3.354   1.270  0.00  0.00    +0.007 A 
ATOM     10  C   UNL     1       2.660  -2.412   0.481  0.00  0.00    +0.056 A 
ENDROOT
BRANCH   1  12
ATOM     11  C   UNL     1       1.057  -0.287  -0.493  0.00  0.00    +0.277 C 
ATOM     12  O   UNL     1       2.442  -0.079  -0.228  0.00  0.00    -0.495 OA
ENDBRANCH   1  12
BRANCH   7  13
ATOM     13  C   UNL     1       2.252  -5.663   0.730  0.00  0.00    +0.157 C 
BRANCH  13  14
ATOM     14  C   UNL     1       2.282  -5.695  -0.787  0.00  0.00    +0.309 C 
ATOM     15  O   UNL     1       1.425  -6.288  -1.435  0.00  0.00    -0.251 OA
BRANCH  14  16
ATOM     16  O   UNL     1       3.301  -5.068  -1.409  0.00  0.00    -0.480 OA
ATOM     17  H   UNL     1       3.932  -4.615  -0.816  0.00  0.00    +0.295 HD
ENDBRANCH  14  16
ENDBRANCH  13  14
ENDBRANCH   7  13
BRANCH   5  18
ATOM     18  C   UNL     1       5.642  -3.874   4.038  0.00  0.00    +0.157 C 
BRANCH  18  19
ATOM     19  C   UNL     1       7.085  -4.290   3.878  0.00  0.00    -0.028 A 
ATOM     20  C   UNL     1       7.881  -4.361   5.036  0.00  0.00    +0.005 A 
ATOM     21  C   UNL     1       9.207  -4.792   4.971  0.00  0.00    +0.000 A 
ATOM     22  C   UNL     1       9.761  -5.150   3.745  0.00  0.00    +0.000 A 
ATOM     23  C   UNL     1       8.998  -5.050   2.584  0.00  0.00    +0.000 A 
ATOM     24  C   UNL     1       7.673  -4.614   2.647  0.00  0.00    +0.005 A 
ENDBRANCH  18  19
ENDBRANCH   5  18
TORSDOF 6
