REMARK  Name = 
REMARK  6 active torsions:
REMARK  status: ('A' for Active; 'I' for Inactive)
REMARK    1  A    between atoms: O_1  and  C_2
REMARK    2  A    between atoms: C_2  and  C_3
REMARK    3  A    between atoms: C_6  and  O_8
REMARK    4  A    between atoms: C_9  and  O_11
REMARK    5  A    between atoms: C_12  and  O_14
REMARK    6  A    between atoms: C_15  and  S_17
REMARK                            x       y       z     vdW  Elec       q    Type
REMARK                         _______ _______ _______ _____ _____    ______ ____
ROOT
ATOM      1  C   UNL     1       2.829   0.801   1.213  0.00  0.00    +0.162 C 
ATOM      2  C   UNL     1       2.671   2.317   0.961  0.00  0.00    +0.105 C 
ATOM      3  C   UNL     1       3.536   2.752  -0.237  0.00  0.00    +0.163 C 
ATOM      4  C   UNL     1       4.968   2.223  -0.133  0.00  0.00    +0.200 C 
ATOM      5  C   UNL     1       4.963   0.728   0.193  0.00  0.00    +0.279 C 
ATOM      6  O   UNL     1       4.229   0.482   1.375  0.00  0.00    -0.342 OA
ENDROOT
BRANCH   2   7
ATOM      7  S   UNL     1       0.912   2.774   0.661  0.00  0.00    -0.170 S 
ATOM      8  H   UNL     1       0.801   2.210  -0.551  0.00  0.00    +0.102 HD
ENDBRANCH   2   7
BRANCH   3   9
ATOM      9  O   UNL     1       3.591   4.184  -0.333  0.00  0.00    -0.388 OA
ATOM     10  H   UNL     1       4.282   4.380  -0.995  0.00  0.00    +0.210 HD
ENDBRANCH   3   9
BRANCH   4  11
ATOM     11  O   UNL     1       5.640   2.479  -1.379  0.00  0.00    -0.384 OA
ATOM     12  H   UNL     1       6.441   1.916  -1.360  0.00  0.00    +0.210 HD
ENDBRANCH   4  11
BRANCH   5  13
ATOM     13  O   UNL     1       6.305   0.315   0.406  0.00  0.00    -0.365 OA
ATOM     14  H   UNL     1       6.218  -0.581   0.773  0.00  0.00    +0.213 HD
ENDBRANCH   5  13
BRANCH   1  15
ATOM     15  C   UNL     1       2.107   0.320   2.482  0.00  0.00    +0.188 C 
BRANCH  15  16
ATOM     16  O   UNL     1       2.183  -1.106   2.563  0.00  0.00    -0.392 OA
ATOM     17  H   UNL     1       1.838  -1.356   3.438  0.00  0.00    +0.210 HD
ENDBRANCH  15  16
ENDBRANCH   1  15
TORSDOF 6
