REMARK  Name = 
REMARK  12 active torsions:
REMARK  status: ('A' for Active; 'I' for Inactive)
REMARK    1  A    between atoms: O_1  and  C_2
REMARK    2  A    between atoms: N_5  and  S_35
REMARK    3  A    between atoms: N_6  and  C_7
REMARK    4  A    between atoms: C_7  and  C_8
REMARK    5  A    between atoms: C_11  and  O_12
REMARK    6  A    between atoms: N_17  and  C_18
REMARK    7  A    between atoms: C_18  and  C_19
REMARK    8  A    between atoms: C_22  and  O_23
REMARK    9  A    between atoms: C_26  and  C_28
REMARK   10  A    between atoms: C_28  and  C_29
REMARK   11  A    between atoms: S_35  and  C_38
REMARK   12  A    between atoms: C_42  and  C_44
REMARK                            x       y       z     vdW  Elec       q    Type
REMARK                         _______ _______ _______ _____ _____    ______ ____
ROOT
ATOM      1  C   UNL     1       2.350  -0.168   0.120  0.00  0.00    +0.153 C 
ATOM      2  C   UNL     1       2.834   1.075  -0.671  0.00  0.00    +0.112 C 
ATOM      3  N   UNL     1       4.226   1.499  -0.307  0.00  0.00    -0.274 N 
ATOM      4  C   UNL     1       5.332   0.867  -0.902  0.00  0.00    +0.321 C 
ATOM      5  O   UNL     1       6.407   1.418  -1.113  0.00  0.00    -0.251 OA
ATOM      6  N   UNL     1       5.074  -0.432  -1.307  0.00  0.00    -0.195 N 
ATOM      7  N   UNL     1       4.541  -1.427  -0.311  0.00  0.00    -0.088 NA
ATOM      8  C   UNL     1       3.048  -1.473  -0.302  0.00  0.00    +0.165 C 
ENDROOT
BRANCH   7   9
ATOM      9  S   UNL     1       5.315  -1.381   1.258  0.00  0.00    +0.076 S 
ATOM     10  O   UNL     1       4.896  -0.191   1.976  0.00  0.00    -0.151 OA
ATOM     11  O   UNL     1       6.721  -1.689   1.106  0.00  0.00    -0.151 OA
BRANCH   9  12
ATOM     12  C   UNL     1       4.602  -2.760   2.111  0.00  0.00    +0.108 A 
ATOM     13  C   UNL     1       4.742  -4.035   1.564  0.00  0.00    +0.047 A 
ATOM     14  C   UNL     1       4.131  -5.114   2.205  0.00  0.00    +0.054 A 
ATOM     15  C   UNL     1       3.411  -4.912   3.391  0.00  0.00    +0.019 A 
ATOM     16  C   UNL     1       3.293  -3.633   3.938  0.00  0.00    +0.003 A 
ATOM     17  C   UNL     1       3.889  -2.551   3.298  0.00  0.00    +0.028 A 
BRANCH  14  18
ATOM     18  C   UNL     1       4.229  -6.425   1.637  0.00  0.00    +0.099 C 
ATOM     19  N   UNL     1       4.290  -7.489   1.181  0.00  0.00    -0.191 NA
ENDBRANCH  14  18
ENDBRANCH   9  12
ENDBRANCH   7   9
BRANCH   1  20
ATOM     20  O   UNL     1       2.377   0.041   1.531  0.00  0.00    -0.389 OA
ATOM     21  H   UNL     1       3.294   0.302   1.772  0.00  0.00    +0.210 HD
ENDBRANCH   1  20
BRANCH   2  22
ATOM     22  C   UNL     1       1.819   2.241  -0.662  0.00  0.00    +0.060 C 
BRANCH  22  23
ATOM     23  C   UNL     1       0.436   1.932  -1.195  0.00  0.00    -0.046 A 
ATOM     24  C   UNL     1       0.168   1.941  -2.571  0.00  0.00    +0.004 A 
ATOM     25  C   UNL     1      -1.140   1.781  -3.035  0.00  0.00    +0.000 A 
ATOM     26  C   UNL     1      -2.187   1.597  -2.133  0.00  0.00    +0.000 A 
ATOM     27  C   UNL     1      -1.925   1.544  -0.767  0.00  0.00    +0.000 A 
ATOM     28  C   UNL     1      -0.620   1.704  -0.300  0.00  0.00    +0.004 A 
ENDBRANCH  22  23
ENDBRANCH   2  22
BRANCH   3  29
ATOM     29  C   UNL     1       4.489   2.571   0.675  0.00  0.00    +0.144 C 
BRANCH  29  30
ATOM     30  C   UNL     1       5.197   3.798   0.141  0.00  0.00    -0.030 A 
ATOM     31  C   UNL     1       6.122   4.466   0.967  0.00  0.00    +0.009 A 
ATOM     32  C   UNL     1       6.982   5.426   0.434  0.00  0.00    +0.046 A 
ATOM     33  C   UNL     1       6.912   5.722  -0.920  0.00  0.00    +0.117 A 
ATOM     34  C   UNL     1       5.922   5.167  -1.722  0.00  0.00    +0.046 A 
ATOM     35  C   UNL     1       5.045   4.227  -1.182  0.00  0.00    +0.009 A 
BRANCH  33  36
ATOM     36  O   UNL     1       7.868   6.535  -1.452  0.00  0.00    -0.507 OA
ATOM     37  H   UNL     1       7.938   6.313  -2.396  0.00  0.00    +0.292 HD
ENDBRANCH  33  36
ENDBRANCH  29  30
ENDBRANCH   3  29
BRANCH   6  38
ATOM     38  C   UNL     1       5.371  -0.928  -2.643  0.00  0.00    +0.165 C 
BRANCH  38  39
ATOM     39  C   UNL     1       6.749  -1.469  -2.932  0.00  0.00    -0.028 A 
ATOM     40  C   UNL     1       7.006  -2.003  -4.211  0.00  0.00    +0.009 A 
ATOM     41  C   UNL     1       8.265  -2.515  -4.535  0.00  0.00    +0.046 A 
ATOM     42  C   UNL     1       9.276  -2.500  -3.584  0.00  0.00    +0.117 A 
ATOM     43  C   UNL     1       9.052  -1.964  -2.323  0.00  0.00    +0.046 A 
ATOM     44  C   UNL     1       7.797  -1.439  -2.007  0.00  0.00    +0.009 A 
BRANCH  42  45
ATOM     45  O   UNL     1      10.488  -3.019  -3.927  0.00  0.00    -0.507 OA
ATOM     46  H   UNL     1      11.081  -2.928  -3.163  0.00  0.00    +0.292 HD
ENDBRANCH  42  45
ENDBRANCH  38  39
ENDBRANCH   6  38
TORSDOF 12
