REMARK  Name = 
REMARK  13 active torsions:
REMARK  status: ('A' for Active; 'I' for Inactive)
REMARK    1  A    between atoms: CD1_1  and  CG_2
REMARK    2  A    between atoms: CG_2  and  CD2_3
REMARK    3  A    between atoms: CG_2  and  CB_4
REMARK    4  A    between atoms: CB_4  and  CA_5
REMARK    5  A    between atoms: CA_5  and  N_7
REMARK    6  A    between atoms: CA_5  and  C_23
REMARK    7  A    between atoms: C_8  and  C_10
REMARK    8  A    between atoms: C_10  and  O_12
REMARK    9  A    between atoms: C_10  and  C_13
REMARK   10  A    between atoms: C_13  and  N_15
REMARK   11  A    between atoms: C_13  and  C_16
REMARK   12  A    between atoms: C_16  and  C_17
REMARK   13  A    between atoms: C_23  and  O_24
REMARK                            x       y       z     vdW  Elec       q    Type
REMARK                         _______ _______ _______ _____ _____    ______ ____
ROOT
ATOM      1  C   UNK A   0       4.820   2.971  -2.360  0.00  0.00    +0.217 C 
ENDROOT
BRANCH   1   4
ATOM      2  N   LEU A   1       5.720   0.764  -2.948  0.00  0.00    -0.300 N 
ATOM      3  H   LEU A   1       6.275   1.316  -3.600  0.00  0.00    +0.150 HD
ATOM      4  C   UNK A   0       4.874   1.455  -2.119  0.00  0.00    +0.244 C 
ATOM      5  O   UNK A   0       4.237   0.879  -1.243  0.00  0.00    -0.273 OA
BRANCH   2   6
ATOM      6  CA  LEU A   1       5.937  -0.684  -2.886  0.00  0.00    +0.182 C 
BRANCH   6   7
ATOM      7  C   LEU A   1       6.599  -1.124  -1.566  0.00  0.00    +0.325 C 
ATOM      8  OXT LEU A   1       7.676  -1.705  -1.522  0.00  0.00    -0.249 OA
BRANCH   7   9
ATOM      9  O   LEU A   1       5.895  -0.854  -0.443  0.00  0.00    -0.479 OA
ATOM     10  H   LEU A   1       5.065  -0.343  -0.617  0.00  0.00    +0.295 HD
ENDBRANCH   7   9
ENDBRANCH   6   7
BRANCH   6  11
ATOM     11  CB  LEU A   1       4.683  -1.525  -3.186  0.00  0.00    +0.036 C 
BRANCH  11  13
ATOM     12  CD1 LEU A   1       4.948  -1.606  -5.723  0.00  0.00    +0.007 C 
ATOM     13  CG  LEU A   1       4.031  -1.242  -4.555  0.00  0.00    -0.015 C 
ATOM     14  CD2 LEU A   1       2.709  -2.005  -4.693  0.00  0.00    +0.007 C 
ENDBRANCH  11  13
ENDBRANCH   6  11
ENDBRANCH   2   6
ENDBRANCH   1   4
BRANCH   1  15
ATOM     15  O   UNK A   0       6.103   3.378  -2.893  0.00  0.00    -0.381 OA
ATOM     16  H   UNK A   0       6.730   3.338  -2.146  0.00  0.00    +0.210 HD
ENDBRANCH   1  15
BRANCH   1  17
ATOM     17  C   UNK A   0       3.720   3.345  -3.378  0.00  0.00    +0.093 C 
BRANCH  17  18
ATOM     18  N   UNK A   0       3.760   4.802  -3.643  0.00  0.00    -0.324 NA
ATOM     19  H   UNK A   0       4.721   5.060  -3.879  0.00  0.00    +0.119 HD
ATOM     20  H   UNK A   0       3.177   5.032  -4.444  0.00  0.00    +0.119 HD
ENDBRANCH  17  18
BRANCH  17  21
ATOM     21  C   UNK A   0       2.297   2.866  -2.990  0.00  0.00    +0.056 C 
BRANCH  21  22
ATOM     22  C   UNK A   0       1.684   3.526  -1.776  0.00  0.00    -0.046 A 
ATOM     23  C   UNK A   0       1.850   2.993  -0.491  0.00  0.00    +0.004 A 
ATOM     24  C   UNK A   0       1.345   3.657   0.628  0.00  0.00    +0.000 A 
ATOM     25  C   UNK A   0       0.649   4.853   0.473  0.00  0.00    +0.000 A 
ATOM     26  C   UNK A   0       0.437   5.372  -0.801  0.00  0.00    +0.000 A 
ATOM     27  C   UNK A   0       0.949   4.711  -1.919  0.00  0.00    +0.004 A 
ENDBRANCH  21  22
ENDBRANCH  17  21
ENDBRANCH   1  17
TORSDOF 11
