REMARK  Name = 
REMARK  20 active torsions:
REMARK  status: ('A' for Active; 'I' for Inactive)
REMARK    1  A    between atoms: C_1  and  C_2
REMARK    2  A    between atoms: N_4  and  C_5
REMARK    3  A    between atoms: C_8  and  N_10
REMARK    4  A    between atoms: C_13  and  C_15
REMARK    5  A    between atoms: C_15  and  O_16
REMARK    6  A    between atoms: O_16  and  P_17
REMARK    7  A    between atoms: P_17  and  O_20
REMARK    8  A    between atoms: O_20  and  P_21
REMARK    9  A    between atoms: P_21  and  O_24
REMARK   10  A    between atoms: O_24  and  P_25
REMARK   11  A    between atoms: P_25  and  O_28
REMARK   12  A    between atoms: O_28  and  P_29
REMARK   13  A    between atoms: P_29  and  O_32
REMARK   14  A    between atoms: O_32  and  P_33
REMARK   15  A    between atoms: P_33  and  O_36
REMARK   16  A    between atoms: O_36  and  C_37
REMARK   17  A    between atoms: C_37  and  C_38
REMARK   18  A    between atoms: C_41  and  N_49
REMARK   19  A    between atoms: C_43  and  O_45
REMARK   20  A    between atoms: C_46  and  O_48
REMARK                            x       y       z     vdW  Elec       q    Type
REMARK                         _______ _______ _______ _____ _____    ______ ____
ROOT
ATOM      1  P   UNL     1      -1.060   8.404  19.230  0.00  0.00    +0.224 P 
ATOM      2  O   UNL     1      -1.668   6.817  18.909  0.00  0.00    -0.437 OA
ATOM      3  O   UNL     1      -2.483   8.952  19.573  0.00  0.00    -0.517 OA
ENDROOT
BRANCH   1   4
ATOM      4  O   UNL     1      -0.894   8.684  17.530  0.00  0.00    -0.270 OA
BRANCH   4   5
ATOM      5  P   UNL     1      -0.649   7.170  16.730  0.00  0.00    +0.224 P 
ATOM      6  O   UNL     1      -1.620   7.595  15.576  0.00  0.00    -0.517 OA
ATOM      7  O   UNL     1       0.846   7.529  16.469  0.00  0.00    -0.437 OA
BRANCH   5   8
ATOM      8  O   UNL     1      -0.404   5.656  15.930  0.00  0.00    -0.270 OA
BRANCH   8   9
ATOM      9  P   UNL     1       0.449   4.579  16.982  0.00  0.00    +0.218 P 
ATOM     10  O   UNL     1       1.302   3.502  18.033  0.00  0.00    -0.437 OA
ATOM     11  O   UNL     1       0.160   3.441  15.943  0.00  0.00    -0.517 OA
BRANCH   9  12
ATOM     12  O   UNL     1      -0.809   4.554  18.123  0.00  0.00    -0.325 OA
BRANCH  12  13
ATOM     13  C   UNL     1      -1.931   3.670  18.224  0.00  0.00    +0.202 C 
BRANCH  13  16
ATOM     14  C   UNL     1      -1.499   2.740  21.677  0.00  0.00    +0.226 C 
ATOM     15  O   UNL     1      -2.252   2.239  20.520  0.00  0.00    -0.349 OA
ATOM     16  C   UNL     1      -2.653   3.417  19.682  0.00  0.00    +0.178 C 
ATOM     17  C   UNL     1      -2.620   4.572  20.673  0.00  0.00    +0.226 C 
ATOM     18  C   UNL     1      -1.370   4.241  21.452  0.00  0.00    +0.091 C 
BRANCH  14  27
ATOM     19  C   UNL     1      -4.531   0.196  24.944  0.00  0.00    +0.051 C 
ATOM     20  C   UNL     1      -3.505   1.209  24.543  0.00  0.00    +0.030 A 
ATOM     21  C   UNL     1      -2.814   1.845  25.691  0.00  0.00    +0.257 A 
ATOM     22  O   UNL     1      -2.981   1.480  26.863  0.00  0.00    -0.267 OA
ATOM     23  N   UNL     1      -1.936   2.835  25.353  0.00  0.00    -0.275 N 
ATOM     24  H   UNL     1      -1.380   3.217  26.100  0.00  0.00    +0.173 HD
ATOM     25  C   UNL     1      -1.325   2.891  24.129  0.00  0.00    +0.331 A 
ATOM     26  O   UNL     1      -0.163   3.284  24.086  0.00  0.00    -0.246 OA
ATOM     27  N   UNL     1      -2.065   2.411  23.044  0.00  0.00    -0.274 N 
ATOM     28  C   UNL     1      -3.145   1.569  23.289  0.00  0.00    +0.101 A 
ENDBRANCH  14  27
BRANCH  17  29
ATOM     29  N   UNL     1      -3.801   4.509  21.591  0.00  0.00    +0.082 NA
ATOM     30  N   UNL     1      -4.727   5.297  21.319  0.00  0.00    -0.014 NA
ATOM     31  N   UNL     1      -5.664   5.925  21.132  0.00  0.00    -0.328 NA
ENDBRANCH  17  29
ENDBRANCH  13  16
ENDBRANCH  12  13
ENDBRANCH   9  12
ENDBRANCH   8   9
ENDBRANCH   5   8
ENDBRANCH   4   5
ENDBRANCH   1   4
BRANCH   1  32
ATOM     32  O   UNL     1      -0.452   9.992  19.550  0.00  0.00    -0.270 OA
BRANCH  32  33
ATOM     33  P   UNL     1       0.180  10.167  21.365  0.00  0.00    +0.224 P 
ATOM     34  O   UNL     1      -1.051  10.611  22.157  0.00  0.00    -0.517 OA
ATOM     35  O   UNL     1       0.753   8.788  21.666  0.00  0.00    -0.437 OA
BRANCH  33  36
ATOM     36  O   UNL     1       1.480  11.295  22.108  0.00  0.00    -0.270 OA
BRANCH  36  37
ATOM     37  P   UNL     1       2.605  12.435  21.455  0.00  0.00    +0.218 P 
ATOM     38  O   UNL     1       3.805  11.827  22.212  0.00  0.00    -0.517 OA
ATOM     39  O   UNL     1       1.838  13.587  22.143  0.00  0.00    -0.437 OA
BRANCH  37  40
ATOM     40  O   UNL     1       3.729  13.576  20.801  0.00  0.00    -0.325 OA
BRANCH  40  41
ATOM     41  C   UNL     1       3.322  14.929  20.684  0.00  0.00    +0.202 C 
BRANCH  41  42
ATOM     42  C   UNL     1       4.405  15.803  20.049  0.00  0.00    +0.178 C 
ATOM     43  C   UNL     1       5.736  15.833  20.809  0.00  0.00    +0.178 C 
ATOM     44  C   UNL     1       6.693  14.980  19.971  0.00  0.00    +0.195 C 
ATOM     45  C   UNL     1       5.802  14.390  18.869  0.00  0.00    +0.253 C 
ATOM     46  O   UNL     1       4.733  15.354  18.717  0.00  0.00    -0.346 OA
BRANCH  45  47
ATOM     47  N   UNL     1       6.496  14.271  17.596  0.00  0.00    -0.286 N 
ATOM     48  C   UNL     1       7.541  13.427  17.337  0.00  0.00    +0.167 A 
ATOM     49  N   UNL     1       8.106  12.532  18.159  0.00  0.00    -0.216 NA
ATOM     50  C   UNL     1       9.102  11.867  17.553  0.00  0.00    +0.225 A 
ATOM     51  N   UNL     1       9.584  12.040  16.298  0.00  0.00    -0.219 NA
ATOM     52  C   UNL     1       8.989  12.969  15.516  0.00  0.00    +0.147 A 
ATOM     53  N   UNL     1       9.458  13.119  14.205  0.00  0.00    -0.341 N 
ATOM     54  H   UNL     1       8.705  13.474  13.621  0.00  0.00    +0.144 HD
ATOM     55  H   UNL     1       9.858  12.235  13.915  0.00  0.00    +0.144 HD
ATOM     56  C   UNL     1       7.908  13.703  16.032  0.00  0.00    +0.147 A 
ATOM     57  N   UNL     1       7.103  14.682  15.484  0.00  0.00    -0.231 NA
ATOM     58  C   UNL     1       6.240  14.967  16.441  0.00  0.00    +0.203 A 
ENDBRANCH  45  47
BRANCH  43  59
ATOM     59  O   UNL     1       6.240  17.198  20.820  0.00  0.00    -0.386 OA
ATOM     60  H   UNL     1       6.135  17.539  19.915  0.00  0.00    +0.210 HD
ENDBRANCH  43  59
BRANCH  44  61
ATOM     61  O   UNL     1       7.410  14.034  20.762  0.00  0.00    -0.385 OA
ATOM     62  H   UNL     1       6.813  13.274  20.936  0.00  0.00    +0.210 HD
ENDBRANCH  44  61
ENDBRANCH  41  42
ENDBRANCH  40  41
ENDBRANCH  37  40
ENDBRANCH  36  37
ENDBRANCH  33  36
ENDBRANCH  32  33
ENDBRANCH   1  32
TORSDOF 19
