REMARK  Name = 
REMARK  1 active torsions:
REMARK  status: ('A' for Active; 'I' for Inactive)
REMARK    1  A    between atoms: C_1  and  C_2
REMARK                            x       y       z     vdW  Elec       q    Type
REMARK                         _______ _______ _______ _____ _____    ______ ____
ROOT
ATOM      1  C   UNL     1       0.889   0.101  -0.085  0.00  0.00    +0.044 C 
ATOM      2  C   UNL     1       2.392   0.025  -0.082  0.00  0.00    -0.047 A 
ATOM      3  C   UNL     1       3.073  -1.209  -0.023  0.00  0.00    -0.031 A 
ATOM      4  C   UNL     1       2.328  -2.523   0.050  0.00  0.00    +0.055 C 
ATOM      5  C   UNL     1       3.196  -3.688  -0.415  0.00  0.00    +0.109 C 
ATOM      6  N   UNL     1       4.506  -3.653   0.184  0.00  0.00    -0.311 N 
ATOM      7  H   UNL     1       5.073  -4.492   0.211  0.00  0.00    +0.149 HD
ATOM      8  C   UNL     1       5.236  -2.489   0.229  0.00  0.00    +0.244 C 
ATOM      9  O   UNL     1       6.446  -2.512   0.421  0.00  0.00    -0.270 OA
ATOM     10  C   UNL     1       4.483  -1.215   0.052  0.00  0.00    +0.040 A 
ATOM     11  C   UNL     1       5.203  -0.014   0.007  0.00  0.00    +0.013 A 
ATOM     12  C   UNL     1       4.528   1.198  -0.089  0.00  0.00    +0.001 A 
ATOM     13  C   UNL     1       3.134   1.218  -0.125  0.00  0.00    +0.003 A 
ENDROOT
TORSDOF 0
