REMARK  Name = 
REMARK  5 active torsions:
REMARK  status: ('A' for Active; 'I' for Inactive)
REMARK    1  A    between atoms: N_1  and  S_2
REMARK    2  A    between atoms: S_2  and  C_5
REMARK    3  A    between atoms: C_8  and  N_11
REMARK    4  A    between atoms: C_13  and  C_23
REMARK    5  A    between atoms: C_15  and  C_16
REMARK                            x       y       z     vdW  Elec       q    Type
REMARK                         _______ _______ _______ _____ _____    ______ ____
ROOT
ATOM      1  N   UNL     1       3.756  -4.555  -3.564  0.00  0.00    -0.232 N 
ATOM      2  C   UNL     1       2.830  -5.608  -3.596  0.00  0.00    +0.075 A 
ATOM      3  C   UNL     1       3.281  -6.439  -4.608  0.00  0.00    +0.062 A 
ATOM      4  C   UNL     1       4.377  -5.786  -5.215  0.00  0.00    +0.166 A 
ATOM      5  N   UNL     1       4.606  -4.600  -4.625  0.00  0.00    -0.162 NA
ENDROOT
BRANCH   2   6
ATOM      6  C   UNL     1       1.598  -5.762  -2.796  0.00  0.00    +0.001 A 
ATOM      7  C   UNL     1       0.829  -4.662  -2.382  0.00  0.00    +0.011 A 
ATOM      8  C   UNL     1      -0.294  -4.826  -1.564  0.00  0.00    +0.016 A 
ATOM      9  C   UNL     1      -0.718  -6.106  -1.227  0.00  0.00    +0.018 A 
ATOM     10 BR   UNL     1      -2.251  -6.332  -0.147  0.00  0.00    -0.050 Br
ATOM     11  C   UNL     1      -0.024  -7.218  -1.694  0.00  0.00    +0.016 A 
ATOM     12  C   UNL     1       1.133  -7.044  -2.462  0.00  0.00    +0.011 A 
ENDBRANCH   2   6
BRANCH   1  16
ATOM     13  C   UNL     1       3.517  -1.246  -1.014  0.00  0.00    +0.105 A 
ATOM     14  C   UNL     1       3.274  -2.520  -0.495  0.00  0.00    +0.030 A 
ATOM     15  C   UNL     1       3.459  -3.637  -1.306  0.00  0.00    +0.030 A 
ATOM     16  C   UNL     1       3.850  -3.469  -2.641  0.00  0.00    +0.066 A 
ATOM     17  C   UNL     1       4.239  -2.203  -3.107  0.00  0.00    +0.030 A 
ATOM     18  C   UNL     1       4.060  -1.081  -2.291  0.00  0.00    +0.030 A 
BRANCH  13  19
ATOM     19  S   UNL     1       3.066   0.157  -0.040  0.00  0.00    +0.056 S 
ATOM     20  O   UNL     1       2.993  -0.229   1.352  0.00  0.00    -0.153 OA
ATOM     21  O   UNL     1       3.803   1.313  -0.493  0.00  0.00    -0.153 OA
BRANCH  19  22
ATOM     22  N   UNL     1       1.474   0.396  -0.531  0.00  0.00    -0.204 NA
ATOM     23  H   UNL     1       0.831   0.136   0.216  0.00  0.00    +0.144 HD
ATOM     24  H   UNL     1       1.355   1.356  -0.859  0.00  0.00    +0.144 HD
ENDBRANCH  19  22
ENDBRANCH  13  19
ENDBRANCH   1  16
BRANCH   4  25
ATOM     25  C   UNL     1       5.162  -6.305  -6.392  0.00  0.00    +0.436 C 
ATOM     26  F   UNL     1       4.356  -6.524  -7.467  0.00  0.00    -0.164 F 
ATOM     27  F   UNL     1       5.746  -7.500  -6.106  0.00  0.00    -0.164 F 
ATOM     28  F   UNL     1       6.152  -5.472  -6.805  0.00  0.00    -0.164 F 
ENDBRANCH   4  25
TORSDOF 5
