REMARK  Name = 
REMARK  5 active torsions:
REMARK  status: ('A' for Active; 'I' for Inactive)
REMARK    1  A    between atoms: O5*_1  and  C5*_2
REMARK    2  A    between atoms: C5*_2  and  C4*_3
REMARK    3  A    between atoms: C1*_6  and  N_14
REMARK    4  A    between atoms: C2*_8  and  O2*_10
REMARK    5  A    between atoms: C3*_11  and  O3*_13
REMARK                            x       y       z     vdW  Elec       q    Type
REMARK                         _______ _______ _______ _____ _____    ______ ____
ROOT
ATOM      1  C4* UNL     1       2.862  -1.064   1.111  0.00  0.00    +0.177 C 
ATOM      2  C3* UNL     1       2.986  -2.496   0.597  0.00  0.00    +0.178 C 
ATOM      3  C2* UNL     1       2.589  -3.362   1.790  0.00  0.00    +0.195 C 
ATOM      4  C1* UNL     1       2.161  -2.350   2.865  0.00  0.00    +0.255 C 
ATOM      5  O4* UNL     1       1.923  -1.102   2.203  0.00  0.00    -0.346 OA
ENDROOT
BRANCH   4   6
ATOM      6  N   UNL     1       0.992  -2.794   3.610  0.00  0.00    -0.270 N 
ATOM      7  C   UNL     1       1.216  -3.768   4.590  0.00  0.00    +0.350 A 
ATOM      8  O   UNL     1       2.342  -4.236   4.755  0.00  0.00    -0.244 OA
ATOM      9  N   UNL     1       0.145  -4.207   5.330  0.00  0.00    -0.201 NA
ATOM     10  C   UNL     1      -1.031  -3.788   5.011  0.00  0.00    +0.118 A 
ATOM     11  C   UNL     1      -1.346  -2.874   3.907  0.00  0.00    +0.038 A 
ATOM     12  C   UNL     1      -0.284  -2.405   3.257  0.00  0.00    +0.095 A 
ENDBRANCH   4   6
BRANCH   2  13
ATOM     13  O3* UNL     1       4.312  -2.773   0.146  0.00  0.00    -0.386 OA
ATOM     14  H3* UNL     1       4.580  -3.589   0.622  0.00  0.00    +0.210 HD
ENDBRANCH   2  13
BRANCH   3  15
ATOM     15  O2* UNL     1       3.676  -4.201   2.203  0.00  0.00    -0.385 OA
ATOM     16  H2* UNL     1       3.446  -4.538   3.099  0.00  0.00    +0.210 HD
ENDBRANCH   3  15
BRANCH   1  17
ATOM     17  C5* UNL     1       2.394  -0.067   0.053  0.00  0.00    +0.190 C 
BRANCH  17  18
ATOM     18  O5* UNL     1       1.122  -0.442  -0.477  0.00  0.00    -0.392 OA
ATOM     19  H5* UNL     1       0.813   0.310  -1.012  0.00  0.00    +0.210 HD
ENDBRANCH  17  18
ENDBRANCH   1  17
TORSDOF 5
