REMARK  Name = 
REMARK  13 active torsions:
REMARK  status: ('A' for Active; 'I' for Inactive)
REMARK    1  A    between atoms: O_1  and  C_2
REMARK    2  A    between atoms: C_2  and  C_3
REMARK    3  A    between atoms: C_3  and  C_4
REMARK    4  A    between atoms: C_4  and  C_5
REMARK    5  A    between atoms: C_5  and  C_6
REMARK    6  A    between atoms: C_6  and  C_7
REMARK    7  A    between atoms: C_7  and  C_8
REMARK    8  A    between atoms: C_8  and  C_9
REMARK    9  A    between atoms: C_9  and  C_10
REMARK   10  A    between atoms: C_10  and  C_11
REMARK   11  A    between atoms: C_11  and  C_12
REMARK   12  A    between atoms: C_12  and  C_13
REMARK   13  A    between atoms: C_13  and  O_14
REMARK                            x       y       z     vdW  Elec       q    Type
REMARK                         _______ _______ _______ _____ _____    ______ ____
ROOT
ATOM      1  C   UNL     1       8.529   3.339   2.619  0.00  0.00    +0.000 C 
ENDROOT
BRANCH   1   2
ATOM      2  C   UNL     1       7.002   3.323   2.606  0.00  0.00    +0.000 C 
BRANCH   2   3
ATOM      3  C   UNL     1       6.469   2.213   1.702  0.00  0.00    +0.000 C 
BRANCH   3   4
ATOM      4  C   UNL     1       4.941   2.200   1.689  0.00  0.00    +0.000 C 
BRANCH   4   5
ATOM      5  C   UNL     1       4.413   1.088   0.785  0.00  0.00    +0.002 C 
BRANCH   5   6
ATOM      6  C   UNL     1       2.888   1.067   0.764  0.00  0.00    +0.028 C 
BRANCH   6   7
ATOM      7  C   UNL     1       2.362  -0.042  -0.135  0.00  0.00    +0.156 C 
BRANCH   7   8
ATOM      8  O   UNL     1       0.942  -0.015  -0.116  0.00  0.00    -0.395 OA
ATOM      9  H   UNL     1       0.636  -0.732  -0.696  0.00  0.00    +0.209 HD
ENDBRANCH   7   8
ENDBRANCH   6   7
ENDBRANCH   5   6
ENDBRANCH   4   5
ENDBRANCH   3   4
ENDBRANCH   2   3
ENDBRANCH   1   2
BRANCH   1  10
ATOM     10  C   UNL     1       9.055   4.452   3.523  0.00  0.00    +0.000 C 
BRANCH  10  11
ATOM     11  C   UNL     1      10.582   4.479   3.545  0.00  0.00    +0.001 C 
BRANCH  11  12
ATOM     12  C   UNL     1      11.094   5.597   4.453  0.00  0.00    +0.011 C 
BRANCH  12  13
ATOM     13  C   UNL     1      12.620   5.637   4.485  0.00  0.00    +0.120 C 
BRANCH  13  14
ATOM     14  C   UNL     1      13.133   6.740   5.382  0.00  0.00    +0.305 C 
ATOM     15  O   UNL     1      12.441   7.518   6.017  0.00  0.00    -0.251 OA
BRANCH  14  16
ATOM     16  O   UNL     1      14.486   6.783   5.415  0.00  0.00    -0.481 OA
ATOM     17  H   UNL     1      14.913   6.103   4.862  0.00  0.00    +0.295 HD
ENDBRANCH  14  16
ENDBRANCH  13  14
ENDBRANCH  12  13
ENDBRANCH  11  12
ENDBRANCH  10  11
ENDBRANCH   1  10
TORSDOF 13
