REMARK  Name = 
REMARK  9 active torsions:
REMARK  status: ('A' for Active; 'I' for Inactive)
REMARK    1  A    between atoms: O_1  and  C_2
REMARK    2  A    between atoms: C_2  and  C_4
REMARK    3  A    between atoms: C_4  and  C_6
REMARK    4  A    between atoms: C_4  and  N_13
REMARK    5  A    between atoms: C_6  and  C_7
REMARK    6  A    between atoms: N_13  and  C_14
REMARK    7  A    between atoms: C_14  and  C_15
REMARK    8  A    between atoms: C_19  and  C_21
REMARK    9  A    between atoms: C_25  and  C_27
REMARK                            x       y       z     vdW  Elec       q    Type
REMARK                         _______ _______ _______ _____ _____    ______ ____
ROOT
ATOM      1  N   UNL     1       4.660  -0.878  -0.424  0.00  0.00    -0.279 N 
ATOM      2  C   UNL     1       5.597  -1.889  -0.761  0.00  0.00    +0.249 C 
ATOM      3  O   UNL     1       5.236  -2.936  -1.282  0.00  0.00    -0.270 OA
ENDROOT
BRANCH   2   4
ATOM      4  C   UNL     1       7.088  -1.774  -0.543  0.00  0.00    +0.055 A 
ATOM      5  C   UNL     1       7.885  -2.925  -0.369  0.00  0.00    +0.054 A 
ATOM      6 CL   UNL     1       7.280  -4.552  -0.290  0.00  0.00    -0.083 Cl
ATOM      7  C   UNL     1       9.277  -2.824  -0.228  0.00  0.00    +0.040 A 
ATOM      8  C   UNL     1       9.885  -1.578  -0.225  0.00  0.00    +0.042 A 
ATOM      9 CL   UNL     1      11.583  -1.456   0.010  0.00  0.00    -0.083 Cl
ATOM     10  C   UNL     1       9.123  -0.432  -0.425  0.00  0.00    +0.021 A 
ATOM     11  C   UNL     1       7.741  -0.533  -0.628  0.00  0.00    +0.016 A 
ENDBRANCH   2   4
BRANCH   1  12
ATOM     12  C   UNL     1       3.190  -1.043  -0.844  0.00  0.00    +0.189 C 
BRANCH  12  13
ATOM     13  C   UNL     1       2.289   0.198  -1.187  0.00  0.00    +0.326 C 
ATOM     14  O   UNL     1       1.107   0.101  -1.501  0.00  0.00    -0.249 OA
BRANCH  13  15
ATOM     15  O   UNL     1       2.855   1.422  -1.138  0.00  0.00    -0.479 OA
ATOM     16  H   UNL     1       3.814   1.442  -1.019  0.00  0.00    +0.295 HD
ENDBRANCH  13  15
ENDBRANCH  12  13
BRANCH  12  17
ATOM     17  C   UNL     1       2.891  -2.042  -2.010  0.00  0.00    +0.069 C 
BRANCH  17  18
ATOM     18  C   UNL     1       3.565  -1.768  -3.346  0.00  0.00    -0.045 A 
ATOM     19  C   UNL     1       3.526  -2.764  -4.334  0.00  0.00    +0.004 A 
ATOM     20  C   UNL     1       4.159  -2.570  -5.562  0.00  0.00    +0.000 A 
ATOM     21  C   UNL     1       4.837  -1.380  -5.821  0.00  0.00    +0.000 A 
ATOM     22  C   UNL     1       4.875  -0.383  -4.862  0.00  0.00    +0.000 A 
ATOM     23  C   UNL     1       4.241  -0.573  -3.635  0.00  0.00    +0.004 A 
ENDBRANCH  17  18
ENDBRANCH  12  17
ENDBRANCH   1  12
BRANCH   1  24
ATOM     24  C   UNL     1       4.935   0.175   0.568  0.00  0.00    +0.144 C 
BRANCH  24  25
ATOM     25  C   UNL     1       5.642  -0.116   1.863  0.00  0.00    -0.030 A 
ATOM     26  C   UNL     1       6.375   0.937   2.450  0.00  0.00    +0.017 A 
ATOM     27  C   UNL     1       6.810   0.876   3.783  0.00  0.00    +0.055 A 
ATOM     28  C   UNL     1       6.537  -0.282   4.518  0.00  0.00    +0.012 A 
ATOM     29  C   UNL     1       5.867  -1.357   3.925  0.00  0.00    +0.001 A 
ATOM     30  C   UNL     1       5.416  -1.275   2.606  0.00  0.00    +0.005 A 
BRANCH  27  31
ATOM     31  C   UNL     1       7.506   2.066   4.399  0.00  0.00    +0.417 C 
ATOM     32  F   UNL     1       6.818   3.225   4.199  0.00  0.00    -0.166 F 
ATOM     33  F   UNL     1       8.743   2.276   3.869  0.00  0.00    -0.166 F 
ATOM     34  F   UNL     1       7.682   1.965   5.746  0.00  0.00    -0.166 F 
ENDBRANCH  27  31
ENDBRANCH  24  25
ENDBRANCH   1  24
TORSDOF 9
