REMARK  Name = 
REMARK  2 active torsions:
REMARK  status: ('A' for Active; 'I' for Inactive)
REMARK    1  A    between atoms: C_1  and  C_2
REMARK    2  A    between atoms: C_2  and  C_4
REMARK                            x       y       z     vdW  Elec       q    Type
REMARK                         _______ _______ _______ _____ _____    ______ ____
ROOT
ATOM      1  C   UNL     1       3.275  -1.173   0.750  0.00  0.00    +0.277 C 
ATOM      2  O   UNL     1       2.643  -2.088   1.249  0.00  0.00    -0.267 OA
ATOM      3  N   UNL     1       4.640  -1.116   0.721  0.00  0.00    -0.323 N 
ATOM      4  H   UNL     1       5.181  -1.864   1.129  0.00  0.00    +0.145 HD
ATOM      5  H   UNL     1       5.105  -0.323   0.290  0.00  0.00    +0.145 HD
ENDROOT
BRANCH   1   7
ATOM      6  C   UNL     1       1.075  -0.002   0.112  0.00  0.00    +0.096 C 
ATOM      7  C   UNL     1       2.573   0.022   0.099  0.00  0.00    +0.214 C 
ATOM      8  O   UNL     1       3.247   0.923  -0.392  0.00  0.00    -0.288 OA
ENDBRANCH   1   7
TORSDOF 1
