REMARK  Name = 
REMARK  12 active torsions:
REMARK  status: ('A' for Active; 'I' for Inactive)
REMARK    1  A    between atoms: O_1  and  C_2
REMARK    2  A    between atoms: C_2  and  C_4
REMARK    3  A    between atoms: C_2  and  C_10
REMARK    4  A    between atoms: C_4  and  O_5
REMARK    5  A    between atoms: O_5  and  P_6
REMARK    6  A    between atoms: P_6  and  O_7
REMARK    7  A    between atoms: P_6  and  O_8
REMARK    8  A    between atoms: C_10  and  O_12
REMARK    9  A    between atoms: C_10  and  C_13
REMARK   10  A    between atoms: C_13  and  O_15
REMARK   11  A    between atoms: C_13  and  C_16
REMARK   12  A    between atoms: C_16  and  O_17
REMARK                            x       y       z     vdW  Elec       q    Type
REMARK                         _______ _______ _______ _____ _____    ______ ____
ROOT
ATOM      1  C   UNL     1       6.085  -1.947  -0.443  0.00  0.00    +0.172 C 
ENDROOT
BRANCH   1   2
ATOM      2  O   UNL     1       6.453  -1.886  -1.838  0.00  0.00    -0.387 OA
ATOM      3  H   UNL     1       6.744  -2.774  -2.112  0.00  0.00    +0.210 HD
ENDBRANCH   1   2
BRANCH   1   4
ATOM      4  C   UNL     1       4.708  -1.266  -0.347  0.00  0.00    +0.185 C 
BRANCH   4   5
ATOM      5  O   UNL     1       4.850   0.102  -0.779  0.00  0.00    -0.386 OA
ATOM      6  H   UNL     1       5.447   0.066  -1.553  0.00  0.00    +0.210 HD
ENDBRANCH   4   5
BRANCH   4   7
ATOM      7  C   UNL     1       4.035  -1.320   1.028  0.00  0.00    +0.254 C 
BRANCH   7   8
ATOM      8  C   UNL     1       4.852  -0.544   2.050  0.00  0.00    +0.336 C 
ATOM      9  O   UNL     1       5.799  -1.011   2.667  0.00  0.00    -0.248 OA
BRANCH   8  10
ATOM     10  O   UNL     1       4.398   0.723   2.205  0.00  0.00    -0.479 OA
ATOM     11  H   UNL     1       3.706   0.884   1.517  0.00  0.00    +0.295 HD
ENDBRANCH   8  10
ENDBRANCH   7   8
BRANCH   7  12
ATOM     12  O   UNL     1       2.718  -0.747   0.952  0.00  0.00    -0.378 OA
ATOM     13  H   UNL     1       2.254  -0.997   1.774  0.00  0.00    +0.211 HD
ENDBRANCH   7  12
ENDBRANCH   4   7
ENDBRANCH   1   4
BRANCH   1  14
ATOM     14  C   UNL     1       6.045  -3.393   0.045  0.00  0.00    +0.206 C 
BRANCH  14  15
ATOM     15  O   UNL     1       7.315  -4.007  -0.130  0.00  0.00    -0.284 OA
BRANCH  15  16
ATOM     16  P   UNL     1       7.483  -5.471   0.498  0.00  0.00    +0.472 P 
ATOM     17  O   UNL     1       8.814  -6.113   0.326  0.00  0.00    -0.228 OA
BRANCH  16  18
ATOM     18  O   UNL     1       6.290  -6.298  -0.158  0.00  0.00    -0.303 OA
ATOM     19  H   UNL     1       6.579  -6.715  -0.988  0.00  0.00    +0.222 HD
ENDBRANCH  16  18
BRANCH  16  20
ATOM     20  O   UNL     1       7.026  -5.314   2.020  0.00  0.00    -0.303 OA
ATOM     21  H   UNL     1       7.747  -4.989   2.589  0.00  0.00    +0.222 HD
ENDBRANCH  16  20
ENDBRANCH  15  16
ENDBRANCH  14  15
ENDBRANCH   1  14
TORSDOF 12
