REMARK  Name = 
REMARK  6 active torsions:
REMARK  status: ('A' for Active; 'I' for Inactive)
REMARK    1  A    between atoms: C_1  and  C_2
REMARK    2  A    between atoms: C_6  and  N_7
REMARK    3  A    between atoms: C_10  and  C_14
REMARK    4  A    between atoms: N_23  and  C_24
REMARK    5  A    between atoms: C_24  and  C_25
REMARK    6  A    between atoms: C_25  and  N_26
REMARK                            x       y       z     vdW  Elec       q    Type
REMARK                         _______ _______ _______ _____ _____    ______ ____
ROOT
ATOM      1  C   UNL     1       6.957   4.810   0.098  0.00  0.00    +0.005 A 
ATOM      2  C   UNL     1       7.557   6.056  -0.093  0.00  0.00    +0.030 A 
ATOM      3  C   UNL     1       6.839   7.192   0.231  0.00  0.00    +0.113 A 
ATOM      4  N   UNL     1       5.588   7.184   0.737  0.00  0.00    -0.240 NA
ATOM      5  C   UNL     1       4.975   5.999   0.936  0.00  0.00    +0.122 A 
ATOM      6  N   UNL     1       3.680   5.994   1.414  0.00  0.00    -0.313 N 
ATOM      7  C   UNL     1       2.879   7.228   1.376  0.00  0.00    +0.122 C 
ATOM      8  C   UNL     1       2.469   7.697   2.795  0.00  0.00    +0.103 C 
ATOM      9  N   UNL     1       1.857   6.653   3.663  0.00  0.00    -0.298 NA
ATOM     10  C   UNL     1       2.798   5.508   3.686  0.00  0.00    +0.103 C 
ATOM     11  C   UNL     1       3.187   4.936   2.301  0.00  0.00    +0.122 C 
ATOM     12  C   UNL     1       5.644   4.813   0.613  0.00  0.00    +0.053 A 
ENDROOT
BRANCH   1  19
ATOM     13  N   UNL     1       6.504   0.453  -1.755  0.00  0.00    -0.284 N 
ATOM     14  H   UNL     1       7.102  -0.286  -2.095  0.00  0.00    +0.155 HD
ATOM     15  C   UNL     1       7.317   1.414  -1.143  0.00  0.00    +0.220 A 
ATOM     16  N   UNL     1       8.625   1.134  -1.088  0.00  0.00    -0.223 NA
ATOM     17  C   UNL     1       9.433   2.109  -0.632  0.00  0.00    +0.116 A 
ATOM     18  C   UNL     1       8.989   3.345  -0.225  0.00  0.00    +0.048 A 
ATOM     19  C   UNL     1       7.626   3.545  -0.273  0.00  0.00    +0.076 A 
ATOM     20  N   UNL     1       6.803   2.574  -0.713  0.00  0.00    -0.214 NA
BRANCH  13  25
ATOM     21  C   UNL     1       1.578   1.042  -4.671  0.00  0.00    +0.045 C 
ATOM     22  C   UNL     1       2.848   0.932  -3.877  0.00  0.00    -0.032 A 
ATOM     23  C   UNL     1       3.680  -0.178  -4.087  0.00  0.00    +0.006 A 
ATOM     24  C   UNL     1       4.877  -0.330  -3.373  0.00  0.00    +0.023 A 
ATOM     25  C   UNL     1       5.290   0.634  -2.445  0.00  0.00    +0.035 A 
ATOM     26  C   UNL     1       4.443   1.726  -2.232  0.00  0.00    +0.043 A 
ATOM     27  C   UNL     1       3.256   1.895  -2.951  0.00  0.00    +0.046 A 
ATOM     28 CL   UNL     1       2.353   3.338  -2.650  0.00  0.00    -0.083 Cl
ENDBRANCH  13  25
ENDBRANCH   1  19
BRANCH   9  29
ATOM     29  C   UNL     1       0.510   6.287   3.175  0.00  0.00    +0.099 C 
BRANCH  29  30
ATOM     30  C   UNL     1      -0.228   5.264   4.070  0.00  0.00    +0.093 C 
BRANCH  30  31
ATOM     31  N   UNL     1      -1.565   4.956   3.556  0.00  0.00    -0.329 NA
ATOM     32  H   UNL     1      -2.011   4.281   4.176  0.00  0.00    +0.118 HD
ATOM     33  H   UNL     1      -2.141   5.795   3.587  0.00  0.00    +0.118 HD
ENDBRANCH  30  31
ENDBRANCH  29  30
ENDBRANCH   9  29
TORSDOF 5
