REMARK  Name = 
REMARK  5 active torsions:
REMARK  status: ('A' for Active; 'I' for Inactive)
REMARK    1  A    between atoms: C_1  and  N_2
REMARK    2  A    between atoms: C_4  and  C_5
REMARK    3  A    between atoms: C_8  and  O_10
REMARK    4  A    between atoms: C_11  and  C_13
REMARK    5  A    between atoms: C_13  and  O_14
REMARK                            x       y       z     vdW  Elec       q    Type
REMARK                         _______ _______ _______ _____ _____    ______ ____
ROOT
ATOM      1  C   UNL     1       3.197  -0.996   2.301  0.00  0.00    +0.153 C 
ATOM      2  N   UNL     1       3.510  -0.379   1.023  0.00  0.00    -0.303 N 
ATOM      3  C   UNL     1       2.928  -0.929  -0.112  0.00  0.00    +0.329 A 
ATOM      4  O   UNL     1       2.172  -1.897  -0.102  0.00  0.00    -0.246 OA
ATOM      5  N   UNL     1       3.229  -0.298  -1.288  0.00  0.00    -0.275 N 
ATOM      6  H   UNL     1       2.768  -0.651  -2.112  0.00  0.00    +0.173 HD
ATOM      7  C   UNL     1       3.885   0.891  -1.404  0.00  0.00    +0.260 A 
ATOM      8  O   UNL     1       3.923   1.515  -2.459  0.00  0.00    -0.267 OA
ATOM      9  C   UNL     1       4.544   1.400  -0.177  0.00  0.00    +0.062 A 
ATOM     10  C   UNL     1       4.323   0.732   0.964  0.00  0.00    +0.101 A 
ENDROOT
BRANCH   9  11
ATOM     11  C   UNL     1       5.410   2.613  -0.348  0.00  0.00    +0.158 C 
ATOM     12  O   UNL     1       6.442   2.671   0.662  0.00  0.00    -0.364 OA
ATOM     13  C   UNL     1       6.714   4.068   0.942  0.00  0.00    +0.173 C 
ATOM     14  C   UNL     1       5.773   4.893   0.061  0.00  0.00    +0.148 C 
ATOM     15  C   UNL     1       4.649   3.921  -0.215  0.00  0.00    +0.070 C 
BRANCH  14  16
ATOM     16  O   UNL     1       5.311   6.072   0.705  0.00  0.00    -0.389 OA
ATOM     17  H   UNL     1       4.818   5.823   1.505  0.00  0.00    +0.210 HD
ENDBRANCH  14  16
BRANCH  13  18
ATOM     18  C   UNL     1       8.192   4.360   0.678  0.00  0.00    +0.190 C 
BRANCH  18  19
ATOM     19  O   UNL     1       8.542   4.063  -0.673  0.00  0.00    -0.392 OA
ATOM     20  H   UNL     1       8.341   3.119  -0.806  0.00  0.00    +0.210 HD
ENDBRANCH  18  19
ENDBRANCH  13  18
ENDBRANCH   9  11
TORSDOF 4
