REMARK  Name = 
REMARK  18 active torsions:
REMARK  status: ('A' for Active; 'I' for Inactive)
REMARK    1  A    between atoms: O_1  and  C_2
REMARK    2  A    between atoms: C_2  and  C_3
REMARK    3  A    between atoms: C_6  and  O_8
REMARK    4  A    between atoms: O_8  and  C_9
REMARK    5  A    between atoms: C_11  and  O_13
REMARK    6  A    between atoms: C_14  and  O_16
REMARK    7  A    between atoms: C_17  and  O_19
REMARK    8  A    between atoms: O_19  and  C_20
REMARK    9  A    between atoms: C_22  and  O_24
REMARK   10  A    between atoms: C_25  and  O_27
REMARK   11  A    between atoms: C_28  and  O_30
REMARK   12  A    between atoms: C_32  and  C_34
REMARK   13  A    between atoms: C_34  and  O_35
REMARK   14  A    between atoms: C_37  and  C_39
REMARK   15  A    between atoms: C_39  and  O_40
REMARK   16  A    between atoms: C_41  and  O_43
REMARK   17  A    between atoms: C_44  and  O_46
REMARK   18  A    between atoms: C_47  and  O_49
REMARK                            x       y       z     vdW  Elec       q    Type
REMARK                         _______ _______ _______ _____ _____    ______ ____
ROOT
ATOM      1  C   UNL     1       1.528   0.584  -3.785  0.00  0.00    +0.183 C 
ATOM      2  C   UNL     1      -0.017   0.515  -3.660  0.00  0.00    +0.178 C 
ATOM      3  O   UNL     1      -0.466  -0.828  -3.389  0.00  0.00    -0.341 OA
ATOM      4  C   UNL     1      -0.098  -1.792  -4.390  0.00  0.00    +0.282 C 
ATOM      5  C   UNL     1       1.437  -1.809  -4.567  0.00  0.00    +0.201 C 
ATOM      6  C   UNL     1       1.963  -0.400  -4.886  0.00  0.00    +0.179 C 
ENDROOT
BRANCH   6   7
ATOM      7  O   UNL     1       1.546   0.058  -6.173  0.00  0.00    -0.386 OA
ATOM      8  H   UNL     1       0.574   0.020  -6.225  0.00  0.00    +0.210 HD
ENDBRANCH   6   7
BRANCH   5   9
ATOM      9  O   UNL     1       2.063  -2.327  -3.370  0.00  0.00    -0.384 OA
ATOM     10  H   UNL     1       1.795  -1.741  -2.634  0.00  0.00    +0.210 HD
ENDBRANCH   5   9
BRANCH   4  11
ATOM     11  O   UNL     1      -0.838  -1.549  -5.598  0.00  0.00    -0.340 OA
BRANCH  11  12
ATOM     12  C   UNL     1      -0.607  -2.499  -6.661  0.00  0.00    +0.183 C 
ATOM     13  C   UNL     1      -1.415  -2.107  -7.923  0.00  0.00    +0.178 C 
ATOM     14  O   UNL     1      -2.827  -2.365  -7.764  0.00  0.00    -0.341 OA
ATOM     15  C   UNL     1      -3.113  -3.747  -7.541  0.00  0.00    +0.279 C 
ATOM     16  C   UNL     1      -2.439  -4.260  -6.255  0.00  0.00    +0.201 C 
ATOM     17  C   UNL     1      -0.930  -3.967  -6.298  0.00  0.00    +0.179 C 
BRANCH  17  18
ATOM     18  O   UNL     1      -0.259  -4.827  -7.236  0.00  0.00    -0.386 OA
ATOM     19  H   UNL     1      -0.806  -4.883  -8.045  0.00  0.00    +0.210 HD
ENDBRANCH  17  18
BRANCH  16  20
ATOM     20  O   UNL     1      -3.043  -3.700  -5.094  0.00  0.00    -0.384 OA
ATOM     21  H   UNL     1      -3.349  -2.800  -5.309  0.00  0.00    +0.210 HD
ENDBRANCH  16  20
BRANCH  15  22
ATOM     22  O   UNL     1      -2.688  -4.532  -8.652  0.00  0.00    -0.365 OA
ATOM     23  H   UNL     1      -3.494  -4.930  -9.027  0.00  0.00    +0.213 HD
ENDBRANCH  15  22
BRANCH  13  24
ATOM     24  C   UNL     1      -1.253  -0.636  -8.318  0.00  0.00    +0.190 C 
BRANCH  24  25
ATOM     25  O   UNL     1      -1.842  -0.424  -9.604  0.00  0.00    -0.392 OA
ATOM     26  H   UNL     1      -2.706  -0.876  -9.582  0.00  0.00    +0.210 HD
ENDBRANCH  24  25
ENDBRANCH  13  24
ENDBRANCH  11  12
ENDBRANCH   4  11
BRANCH   2  27
ATOM     27  C   UNL     1      -0.590   1.395  -2.542  0.00  0.00    +0.190 C 
BRANCH  27  28
ATOM     28  O   UNL     1      -2.020   1.330  -2.570  0.00  0.00    -0.392 OA
ATOM     29  H   UNL     1      -2.240   0.383  -2.664  0.00  0.00    +0.210 HD
ENDBRANCH  27  28
ENDBRANCH   2  27
BRANCH   1  30
ATOM     30  O   UNL     1       2.134   0.233  -2.524  0.00  0.00    -0.340 OA
BRANCH  30  35
ATOM     31  C   UNL     1       3.529   0.604  -0.015  0.00  0.00    +0.178 C 
ATOM     32  C   UNL     1       3.569   2.152  -0.137  0.00  0.00    +0.177 C 
ATOM     33  C   UNL     1       3.403   2.725  -1.563  0.00  0.00    +0.179 C 
ATOM     34  C   UNL     1       4.087   1.818  -2.595  0.00  0.00    +0.201 C 
ATOM     35  C   UNL     1       3.553   0.387  -2.427  0.00  0.00    +0.282 C 
ATOM     36  O   UNL     1       4.035  -0.100  -1.162  0.00  0.00    -0.341 OA
BRANCH  34  37
ATOM     37  O   UNL     1       5.512   1.874  -2.405  0.00  0.00    -0.384 OA
ATOM     38  H   UNL     1       5.872   0.976  -2.546  0.00  0.00    +0.210 HD
ENDBRANCH  34  37
BRANCH  33  39
ATOM     39  O   UNL     1       2.036   2.932  -1.919  0.00  0.00    -0.386 OA
ATOM     40  H   UNL     1       1.488   2.818  -1.123  0.00  0.00    +0.210 HD
ENDBRANCH  33  39
BRANCH  32  41
ATOM     41  O   UNL     1       4.866   2.606   0.342  0.00  0.00    -0.386 OA
ATOM     42  H   UNL     1       5.502   2.476  -0.389  0.00  0.00    +0.210 HD
ENDBRANCH  32  41
BRANCH  31  43
ATOM     43  C   UNL     1       2.197  -0.049   0.415  0.00  0.00    +0.190 C 
BRANCH  43  44
ATOM     44  O   UNL     1       1.573   0.617   1.496  0.00  0.00    -0.392 OA
ATOM     45  H   UNL     1       0.854   0.030   1.797  0.00  0.00    +0.210 HD
ENDBRANCH  43  44
ENDBRANCH  31  43
ENDBRANCH  30  35
ENDBRANCH   1  30
TORSDOF 18
