REMARK  Name = 
REMARK  5 active torsions:
REMARK  status: ('A' for Active; 'I' for Inactive)
REMARK    1  A    between atoms: N_1  and  CA_2
REMARK    2  A    between atoms: CA_2  and  C_4
REMARK    3  A    between atoms: CA_2  and  C_15
REMARK    4  A    between atoms: C_4  and  C_5
REMARK    5  A    between atoms: C_15  and  O_16
REMARK                            x       y       z     vdW  Elec       q    Type
REMARK                         _______ _______ _______ _____ _____    ______ ____
ROOT
ATOM      1  C   UNL     1       2.410  -2.409  -0.435  0.00  0.00    -0.018 A 
ATOM      2  C   UNL     1       1.423  -2.773   0.542  0.00  0.00    +0.038 A 
ATOM      3  C   UNL     1       0.561  -2.066   1.406  0.00  0.00    +0.133 A 
ATOM      4  C   UNL     1      -0.337  -2.748   2.229  0.00  0.00    +0.039 A 
ATOM      5  C   UNL     1      -0.390  -4.139   2.210  0.00  0.00    +0.005 A 
ATOM      6  C   UNL     1       0.459  -4.876   1.378  0.00  0.00    +0.026 A 
ATOM      7  F   UNL     1       0.573  -0.725   1.427  0.00  0.00    -0.205 F 
ATOM      8  C   UNL     1       1.352  -4.168   0.560  0.00  0.00    +0.049 A 
ATOM      9  N   UNL     1       2.280  -4.636  -0.338  0.00  0.00    -0.360 N 
ATOM     10  H   UNL     1       2.452  -5.612  -0.535  0.00  0.00    +0.165 HD
ATOM     11  C   UNL     1       2.922  -3.589  -0.936  0.00  0.00    +0.087 A 
ENDROOT
BRANCH   1  12
ATOM     12  C   UNL     1       2.838  -1.033  -0.866  0.00  0.00    +0.067 C 
BRANCH  12  13
ATOM     13  CA  UNL     1       2.056  -0.460  -2.061  0.00  0.00    +0.165 C 
BRANCH  13  14
ATOM     14  N   UNL     1       0.606  -0.205  -1.768  0.00  0.00    -0.318 NA
ATOM     15  H1  UNL     1       0.288  -0.927  -1.110  0.00  0.00    +0.119 HD
ATOM     16  H2  UNL     1       0.562   0.648  -1.199  0.00  0.00    +0.119 HD
ENDBRANCH  13  14
BRANCH  13  17
ATOM     17  C   UNL     1       2.160  -1.366  -3.300  0.00  0.00    +0.322 C 
ATOM     18  OXT UNL     1       3.198  -1.779  -3.795  0.00  0.00    -0.249 OA
BRANCH  17  19
ATOM     19  O   UNL     1       0.930  -1.629  -3.823  0.00  0.00    -0.480 OA
ATOM     20  H   UNL     1       0.294  -1.129  -3.250  0.00  0.00    +0.295 HD
ENDBRANCH  17  19
ENDBRANCH  13  17
ENDBRANCH  12  13
ENDBRANCH   1  12
TORSDOF 5
