REMARK  Name = 
REMARK  9 active torsions:
REMARK  status: ('A' for Active; 'I' for Inactive)
REMARK    1  A    between atoms: C_1  and  C_2
REMARK    2  A    between atoms: C_2  and  C_3
REMARK    3  A    between atoms: C_2  and  N_4
REMARK    4  A    between atoms: N_4  and  C_5
REMARK    5  A    between atoms: C_5  and  C_6
REMARK    6  A    between atoms: C_6  and  O_8
REMARK    7  A    between atoms: C_6  and  C_9
REMARK    8  A    between atoms: C_9  and  O_10
REMARK    9  A    between atoms: O_10  and  C_11
REMARK                            x       y       z     vdW  Elec       q    Type
REMARK                         _______ _______ _______ _____ _____    ______ ____
ROOT
ATOM      1  O   UNL     1       6.970   4.136  -0.740  0.00  0.00    -0.489 OA
ENDROOT
BRANCH   1   2
ATOM      2  C   UNL     1       8.330   4.279  -0.874  0.00  0.00    +0.128 A 
ATOM      3  C   UNL     1       8.790   5.557  -1.289  0.00  0.00    +0.024 A 
ATOM      4  C   UNL     1       7.922   6.638  -1.565  0.00  0.00    +0.012 A 
ATOM      5  C   UNL     1       8.409   7.880  -1.981  0.00  0.00    +0.001 A 
ATOM      6  C   UNL     1       9.777   8.072  -2.130  0.00  0.00    +0.001 A 
ATOM      7  C   UNL     1      10.657   7.025  -1.859  0.00  0.00    +0.008 A 
ATOM      8  C   UNL     1      10.182   5.770  -1.442  0.00  0.00    -0.014 A 
ATOM      9  C   UNL     1      11.077   4.725  -1.176  0.00  0.00    +0.009 A 
ATOM     10  C   UNL     1      10.613   3.476  -0.771  0.00  0.00    +0.004 A 
ATOM     11  C   UNL     1       9.246   3.252  -0.621  0.00  0.00    +0.046 A 
ENDBRANCH   1   2
BRANCH   1  12
ATOM     12  C   UNL     1       6.457   2.835  -0.452  0.00  0.00    +0.261 C 
BRANCH  12  13
ATOM     13  C   UNL     1       4.924   2.882  -0.467  0.00  0.00    +0.166 C 
BRANCH  13  14
ATOM     14  O   UNL     1       4.408   1.597  -0.099  0.00  0.00    -0.387 OA
ATOM     15  H   UNL     1       3.472   1.745   0.122  0.00  0.00    +0.210 HD
ENDBRANCH  13  14
BRANCH  13  16
ATOM     16  C   UNL     1       4.405   3.283  -1.863  0.00  0.00    +0.115 C 
BRANCH  16  17
ATOM     17  N   UNL     1       2.932   3.332  -1.901  0.00  0.00    -0.311 NA
ATOM     18  H   UNL     1       2.581   2.397  -1.690  0.00  0.00    +0.122 HD
BRANCH  17  20
ATOM     19  C   UNL     1       0.884   3.705  -3.154  0.00  0.00    +0.023 C 
ATOM     20  C   UNL     1       2.413   3.714  -3.227  0.00  0.00    +0.048 C 
ATOM     21  C   UNL     1       2.889   5.091  -3.698  0.00  0.00    +0.023 C 
ENDBRANCH  17  20
ENDBRANCH  16  17
ENDBRANCH  13  16
ENDBRANCH  12  13
ENDBRANCH   1  12
TORSDOF 7
