REMARK  Name = 
REMARK  14 active torsions:
REMARK  status: ('A' for Active; 'I' for Inactive)
REMARK    1  A    between atoms: C_1  and  N_2
REMARK    2  A    between atoms: N_2  and  C_3
REMARK    3  A    between atoms: C_8  and  C_9
REMARK    4  A    between atoms: C_9  and  O_11
REMARK    5  A    between atoms: O_11  and  C_12
REMARK    6  A    between atoms: C_15  and  N_30
REMARK    7  A    between atoms: C_18  and  C_20
REMARK    8  A    between atoms: C_20  and  O_21
REMARK    9  A    between atoms: O_21  and  P_22
REMARK   10  A    between atoms: P_22  and  O_23
REMARK   11  A    between atoms: P_22  and  O_25
REMARK   12  A    between atoms: O_25  and  P_26
REMARK   13  A    between atoms: P_26  and  O_27
REMARK   14  A    between atoms: P_26  and  O_28
REMARK                            x       y       z     vdW  Elec       q    Type
REMARK                         _______ _______ _______ _____ _____    ______ ____
ROOT
ATOM      1  C   UNL     1       4.507  -0.519  -1.740  0.00  0.00    +0.212 C 
ATOM      2  C   UNL     1       5.006  -1.564  -0.736  0.00  0.00    +0.188 C 
ATOM      3  O   UNL     1       6.425  -1.764  -1.030  0.00  0.00    -0.347 OA
ATOM      4  C   UNL     1       6.814  -0.938  -2.169  0.00  0.00    +0.226 C 
ATOM      5  C   UNL     1       5.779   0.171  -2.193  0.00  0.00    +0.102 C 
ENDROOT
BRANCH   4   6
ATOM      6  N   UNL     1       6.970  -1.728  -3.386  0.00  0.00    -0.288 N 
ATOM      7  C   UNL     1       6.945  -1.258  -4.680  0.00  0.00    +0.167 A 
ATOM      8  N   UNL     1       6.766   0.002  -5.108  0.00  0.00    -0.216 NA
ATOM      9  C   UNL     1       6.746   0.066  -6.461  0.00  0.00    +0.225 A 
ATOM     10  N   UNL     1       6.879  -0.942  -7.348  0.00  0.00    -0.219 NA
ATOM     11  C   UNL     1       7.088  -2.191  -6.874  0.00  0.00    +0.147 A 
ATOM     12  N   UNL     1       7.229  -3.220  -7.791  0.00  0.00    -0.341 N 
ATOM     13  H   UNL     1       7.701  -4.030  -7.406  0.00  0.00    +0.144 HD
ATOM     14  H   UNL     1       7.540  -2.879  -8.691  0.00  0.00    +0.144 HD
ATOM     15  C   UNL     1       7.138  -2.379  -5.477  0.00  0.00    +0.147 A 
ATOM     16  N   UNL     1       7.382  -3.491  -4.702  0.00  0.00    -0.231 NA
ATOM     17  C   UNL     1       7.284  -3.064  -3.459  0.00  0.00    +0.203 A 
ENDBRANCH   4   6
BRANCH   1  18
ATOM     18  O   UNL     1       3.708  -0.973  -2.872  0.00  0.00    -0.455 OA
BRANCH  18  19
ATOM     19  C   UNL     1       3.645  -2.244  -3.352  0.00  0.00    +0.341 C 
ATOM     20  O   UNL     1       4.409  -3.149  -3.064  0.00  0.00    -0.245 OA
BRANCH  19  22
ATOM     21  C   UNL     1       1.977  -3.719  -4.592  0.00  0.00    +0.041 A 
ATOM     22  C   UNL     1       2.405  -2.435  -4.177  0.00  0.00    +0.080 A 
ATOM     23  C   UNL     1       1.592  -1.321  -4.469  0.00  0.00    +0.017 A 
ATOM     24  C   UNL     1       0.330  -1.482  -5.045  0.00  0.00    +0.001 A 
ATOM     25  C   UNL     1      -0.166  -2.756  -5.273  0.00  0.00    +0.002 A 
ATOM     26  C   UNL     1       0.646  -3.858  -5.034  0.00  0.00    +0.024 A 
BRANCH  21  28
ATOM     27  C   UNL     1       2.816  -5.638  -5.813  0.00  0.00    +0.125 C 
ATOM     28  N   UNL     1       2.787  -4.877  -4.559  0.00  0.00    -0.346 N 
ATOM     29  H   UNL     1       3.739  -4.647  -4.245  0.00  0.00    +0.146 HD
ENDBRANCH  21  28
ENDBRANCH  19  22
ENDBRANCH  18  19
ENDBRANCH   1  18
BRANCH   2  30
ATOM     30  C   UNL     1       4.798  -1.125   0.752  0.00  0.00    +0.207 C 
BRANCH  30  31
ATOM     31  O   UNL     1       3.408  -0.967   1.079  0.00  0.00    -0.284 OA
BRANCH  31  32
ATOM     32  P   UNL     1       2.971  -0.503   2.615  0.00  0.00    +0.483 P 
ATOM     33  O   UNL     1       1.453  -0.370   2.647  0.00  0.00    -0.227 OA
BRANCH  32  34
ATOM     34  O   UNL     1       2.746  -2.163   3.048  0.00  0.00    -0.302 OA
ATOM     35  H   UNL     1       1.771  -2.267   2.989  0.00  0.00    +0.222 HD
ENDBRANCH  32  34
BRANCH  32  36
ATOM     36  O   UNL     1       3.195   1.157   2.182  0.00  0.00    -0.186 OA
BRANCH  36  37
ATOM     37  P   UNL     1       3.210   2.129   3.613  0.00  0.00    +0.481 P 
ATOM     38  O   UNL     1       3.224   2.999   4.894  0.00  0.00    -0.227 OA
BRANCH  37  39
ATOM     39  O   UNL     1       1.814   2.750   3.035  0.00  0.00    -0.302 OA
ATOM     40  H   UNL     1       2.036   3.413   2.357  0.00  0.00    +0.222 HD
ENDBRANCH  37  39
BRANCH  37  41
ATOM     41  O   UNL     1       4.145   3.156   2.735  0.00  0.00    -0.302 OA
ATOM     42  H   UNL     1       5.093   2.949   2.785  0.00  0.00    +0.222 HD
ENDBRANCH  37  41
ENDBRANCH  36  37
ENDBRANCH  32  36
ENDBRANCH  31  32
ENDBRANCH  30  31
ENDBRANCH   2  30
TORSDOF 13
