REMARK  Name = 
REMARK  6 active torsions:
REMARK  status: ('A' for Active; 'I' for Inactive)
REMARK    1  A    between atoms: O_1  and  C_2
REMARK    2  A    between atoms: C_2  and  C_3
REMARK    3  A    between atoms: C_3  and  C_4
REMARK    4  A    between atoms: C_4  and  C_5
REMARK    5  A    between atoms: C_5  and  C_6
REMARK    6  A    between atoms: C_6  and  C_7
REMARK                            x       y       z     vdW  Elec       q    Type
REMARK                         _______ _______ _______ _____ _____    ______ ____
ROOT
ATOM      1  C   UNL     1       4.477  -0.890  -1.140  0.00  0.00    +0.002 C 
ENDROOT
BRANCH   1   2
ATOM      2  C   UNL     1       2.950  -0.866  -1.115  0.00  0.00    +0.028 C 
BRANCH   2   3
ATOM      3  C   UNL     1       2.420   0.083  -0.049  0.00  0.00    +0.156 C 
BRANCH   3   4
ATOM      4  O   UNL     1       1.000   0.058  -0.079  0.00  0.00    -0.395 OA
ATOM      5  H   UNL     1       0.689   0.672   0.608  0.00  0.00    +0.209 HD
ENDBRANCH   3   4
ENDBRANCH   2   3
ENDBRANCH   1   2
BRANCH   1   6
ATOM      6  C   UNL     1       5.000  -1.844  -2.214  0.00  0.00    +0.001 C 
BRANCH   6   7
ATOM      7  C   UNL     1       6.529  -1.869  -2.239  0.00  0.00    +0.011 C 
BRANCH   7   8
ATOM      8  C   UNL     1       7.043  -2.819  -3.308  0.00  0.00    +0.080 C 
ATOM      9 BR   UNL     1       8.990  -2.821  -3.306  0.00  0.00    -0.092 Br
ENDBRANCH   7   8
ENDBRANCH   6   7
ENDBRANCH   1   6
TORSDOF 6
