REMARK  Name = 
REMARK  19 active torsions:
REMARK  status: ('A' for Active; 'I' for Inactive)
REMARK    1  A    between atoms: C_1  and  C_2
REMARK    2  A    between atoms: C_2  and  N_4
REMARK    3  A    between atoms: C_2  and  C_29
REMARK    4  A    between atoms: C_5  and  C_7
REMARK    5  A    between atoms: C_7  and  C_9
REMARK    6  A    between atoms: C_7  and  N_25
REMARK    7  A    between atoms: C_9  and  C_10
REMARK    8  A    between atoms: C_13  and  O_14
REMARK    9  A    between atoms: O_14  and  C_15
REMARK   10  A    between atoms: C_15  and  C_16
REMARK   11  A    between atoms: C_16  and  O_17
REMARK   12  A    between atoms: C_19  and  P_21
REMARK   13  A    between atoms: P_21  and  O_22
REMARK   14  A    between atoms: P_21  and  O_23
REMARK   15  A    between atoms: C_26  and  C_27
REMARK   16  A    between atoms: C_32  and  O_33
REMARK   17  A    between atoms: O_33  and  C_34
REMARK   18  A    between atoms: C_34  and  C_35
REMARK   19  A    between atoms: C_41  and  C_43
REMARK                            x       y       z     vdW  Elec       q    Type
REMARK                         _______ _______ _______ _____ _____    ______ ____
ROOT
ATOM      1  N   UNL     1       1.721   1.192   1.099  0.00  0.00    -0.307 N 
ATOM      2  H   UNL     1       0.974   1.871   1.197  0.00  0.00    +0.149 HD
ATOM      3  C   UNL     1       3.011   1.645   1.391  0.00  0.00    +0.234 C 
ATOM      4  O   UNL     1       3.993   0.907   1.291  0.00  0.00    -0.274 OA
ENDROOT
BRANCH   1   6
ATOM      5  C   UNL     1       2.073  -0.460  -0.757  0.00  0.00    +0.033 C 
ATOM      6  C   UNL     1       1.295  -0.125   0.524  0.00  0.00    +0.100 C 
BRANCH   6   7
ATOM      7  C   UNL     1       0.960  -1.273   1.505  0.00  0.00    -0.027 A 
ATOM      8  C   UNL     1       0.815  -1.016   2.872  0.00  0.00    +0.022 A 
ATOM      9  C   UNL     1       0.242  -1.959   3.773  0.00  0.00    +0.078 A 
ATOM     10  C   UNL     1      -0.206  -3.227   3.332  0.00  0.00    +0.133 A 
ATOM     11  C   UNL     1      -0.020  -3.524   1.978  0.00  0.00    +0.047 A 
ATOM     12  C   UNL     1       0.548  -2.562   1.086  0.00  0.00    +0.009 A 
BRANCH   9  13
ATOM     13  C   UNL     1       0.100  -1.475   5.182  0.00  0.00    +0.245 C 
ATOM     14  O   UNL     1       0.233  -0.287   5.455  0.00  0.00    -0.270 OA
ATOM     15  N   UNL     1      -0.174  -2.377   6.159  0.00  0.00    -0.325 N 
ATOM     16  H   UNL     1      -0.314  -2.050   7.104  0.00  0.00    +0.145 HD
ATOM     17  H   UNL     1      -0.388  -3.345   5.936  0.00  0.00    +0.145 HD
ENDBRANCH   9  13
BRANCH  10  18
ATOM     18  O   UNL     1      -0.799  -4.034   4.266  0.00  0.00    -0.491 OA
BRANCH  18  19
ATOM     19  C   UNL     1      -1.396  -5.313   4.015  0.00  0.00    +0.232 C 
BRANCH  19  20
ATOM     20  C   UNL     1      -0.402  -6.463   4.292  0.00  0.00    +0.027 C 
ATOM     21  C   UNL     1      -0.996  -7.854   4.008  0.00  0.00    +0.007 C 
ATOM     22  C   UNL     1      -1.917  -8.377   5.110  0.00  0.00    +0.000 C 
ATOM     23  C   UNL     1      -1.214  -8.402   6.461  0.00  0.00    +0.000 C 
ATOM     24  C   UNL     1      -0.642  -7.035   6.818  0.00  0.00    +0.000 C 
ATOM     25  C   UNL     1       0.224  -6.438   5.704  0.00  0.00    +0.007 C 
ENDBRANCH  19  20
ENDBRANCH  18  19
ENDBRANCH  10  18
ENDBRANCH   6   7
ENDBRANCH   1   6
BRANCH   3  26
ATOM     26  C   UNL     1       3.162   3.202   1.624  0.00  0.00    +0.163 C 
BRANCH  26  27
ATOM     27  N   UNL     1       3.639   3.838   0.384  0.00  0.00    -0.304 N 
ATOM     28  H   UNL     1       4.360   3.337  -0.121  0.00  0.00    +0.149 HD
ATOM     29  C   UNL     1       3.527   5.201   0.197  0.00  0.00    +0.211 C 
ATOM     30  O   UNL     1       2.907   5.938   0.958  0.00  0.00    -0.276 OA
ATOM     31  C   UNL     1       4.232   5.733  -1.021  0.00  0.00    +0.109 C 
ENDBRANCH  26  27
BRANCH  26  32
ATOM     32  C   UNL     1       4.058   3.645   2.819  0.00  0.00    +0.067 C 
BRANCH  32  33
ATOM     33  C   UNL     1       5.511   3.218   2.827  0.00  0.00    -0.044 A 
ATOM     34  C   UNL     1       5.830   2.080   3.546  0.00  0.00    +0.023 A 
ATOM     35  C   UNL     1       7.131   1.517   3.580  0.00  0.00    +0.105 A 
ATOM     36  C   UNL     1       8.176   2.168   2.938  0.00  0.00    +0.136 A 
ATOM     37  C   UNL     1       7.883   3.362   2.257  0.00  0.00    +0.047 A 
ATOM     38  C   UNL     1       6.564   3.877   2.196  0.00  0.00    +0.007 A 
BRANCH  35  39
ATOM     39  P   UNL     1       7.305  -0.086   4.446  0.00  0.00    +0.362 P 
ATOM     40  O   UNL     1       7.451  -1.442   5.178  0.00  0.00    -0.253 OA
BRANCH  39  41
ATOM     41  O   UNL     1       6.772   0.717   5.790  0.00  0.00    -0.321 OA
ATOM     42  H   UNL     1       7.366   1.427   6.086  0.00  0.00    +0.220 HD
ENDBRANCH  39  41
BRANCH  39  43
ATOM     43  O   UNL     1       5.830  -0.529   3.842  0.00  0.00    -0.321 OA
ATOM     44  H   UNL     1       5.690  -0.414   2.882  0.00  0.00    +0.220 HD
ENDBRANCH  39  43
ENDBRANCH  35  39
BRANCH  36  45
ATOM     45  O   UNL     1       9.403   1.560   3.000  0.00  0.00    -0.480 OA
BRANCH  45  46
ATOM     46  C   UNL     1      10.533   2.417   2.796  0.00  0.00    +0.349 C 
BRANCH  46  47
ATOM     47  C   UNL     1      11.840   1.638   2.850  0.00  0.00    +0.343 C 
ATOM     48  O   UNL     1      12.943   2.164   2.798  0.00  0.00    -0.247 OA
BRANCH  47  49
ATOM     49  O   UNL     1      11.680   0.298   2.929  0.00  0.00    -0.478 OA
ATOM     50  H   UNL     1      10.732   0.056   2.942  0.00  0.00    +0.295 HD
ENDBRANCH  47  49
ENDBRANCH  46  47
ENDBRANCH  45  46
ENDBRANCH  36  45
ENDBRANCH  32  33
ENDBRANCH  26  32
ENDBRANCH   3  26
TORSDOF 17
