REMARK  Name = 
REMARK  2 active torsions:
REMARK  status: ('A' for Active; 'I' for Inactive)
REMARK    1  A    between atoms: O_1  and  C_2
REMARK    2  A    between atoms: C_9  and  C_14
REMARK                            x       y       z     vdW  Elec       q    Type
REMARK                         _______ _______ _______ _____ _____    ______ ____
ROOT
ATOM      1  C   UNL     1       2.416   0.159   0.070  0.00  0.00    +0.120 A 
ATOM      2  C   UNL     1       3.148   1.342   0.013  0.00  0.00    +0.091 A 
ATOM      3  C   UNL     1       4.540   1.293   0.024  0.00  0.00    +0.135 A 
ATOM      4  C   UNL     1       5.187   0.059   0.074  0.00  0.00    +0.059 A 
ATOM      5  C   UNL     1       6.658   0.026  -0.024  0.00  0.00    +0.170 C 
ATOM      6  C   UNL     1       7.319   1.324  -0.391  0.00  0.00    +0.129 C 
ATOM      7  C   UNL     1       6.579   2.448   0.322  0.00  0.00    +0.211 C 
ATOM      8  O   UNL     1       7.280  -1.021   0.118  0.00  0.00    -0.292 OA
ATOM      9  C   UNL     1       4.450  -1.129   0.146  0.00  0.00    +0.018 A 
ATOM     10  O   UNL     1       5.192   2.493  -0.059  0.00  0.00    -0.483 OA
ATOM     11  C   UNL     1       3.055  -1.077   0.143  0.00  0.00    +0.046 A 
ENDROOT
BRANCH   7  12
ATOM     12  C   UNL     1       7.214   3.790  -0.005  0.00  0.00    -0.007 A 
ATOM     13  C   UNL     1       8.254   4.293   0.792  0.00  0.00    +0.007 A 
ATOM     14  C   UNL     1       8.853   5.519   0.490  0.00  0.00    +0.000 A 
ATOM     15  C   UNL     1       8.424   6.254  -0.615  0.00  0.00    +0.000 A 
ATOM     16  C   UNL     1       7.401   5.764  -1.420  0.00  0.00    +0.000 A 
ATOM     17  C   UNL     1       6.803   4.538  -1.122  0.00  0.00    +0.007 A 
ENDBRANCH   7  12
BRANCH   1  18
ATOM     18  O   UNL     1       1.057   0.254   0.044  0.00  0.00    -0.507 OA
ATOM     19  H   UNL     1       0.676  -0.640   0.064  0.00  0.00    +0.292 HD
ENDBRANCH   1  18
TORSDOF 2
