REMARK  Name = 
REMARK  18 active torsions:
REMARK  status: ('A' for Active; 'I' for Inactive)
REMARK    1  A    between atoms: N_10  and  C_11
REMARK    2  A    between atoms: C_14  and  C_16
REMARK    3  A    between atoms: C_16  and  O_17
REMARK    4  A    between atoms: O_17  and  P_18
REMARK    5  A    between atoms: P_18  and  O_19
REMARK    6  A    between atoms: P_18  and  O_21
REMARK    7  A    between atoms: O_21  and  P_22
REMARK    8  A    between atoms: P_22  and  O_23
REMARK    9  A    between atoms: P_22  and  O_25
REMARK   10  A    between atoms: O_25  and  C_26
REMARK   11  A    between atoms: C_26  and  C_27
REMARK   12  A    between atoms: C_30  and  N_38
REMARK   13  A    between atoms: C_32  and  O_34
REMARK   14  A    between atoms: C_35  and  O_37
REMARK   15  A    between atoms: C_42  and  C_44
REMARK   16  A    between atoms: C_44  and  O_45
REMARK   17  A    between atoms: C_47  and  O_49
REMARK   18  A    between atoms: C_50  and  O_52
REMARK                            x       y       z     vdW  Elec       q    Type
REMARK                         _______ _______ _______ _____ _____    ______ ____
ROOT
ATOM      1  P   UNL     1       8.704  -1.591  14.703  0.00  0.00    +0.483 P 
ATOM      2  O   UNL     1       8.981  -1.116  16.127  0.00  0.00    -0.227 OA
ENDROOT
BRANCH   1   3
ATOM      3  O   UNL     1      10.305  -2.245  14.638  0.00  0.00    -0.302 OA
ATOM      4  H   UNL     1      10.866  -1.673  14.083  0.00  0.00    +0.222 HD
ENDBRANCH   1   3
BRANCH   1   5
ATOM      5  O   UNL     1       7.104  -0.937  14.768  0.00  0.00    -0.186 OA
BRANCH   5   6
ATOM      6  P   UNL     1       6.276  -1.291  13.291  0.00  0.00    +0.483 P 
ATOM      7  O   UNL     1       7.501  -0.756  12.529  0.00  0.00    -0.227 OA
BRANCH   6   8
ATOM      8  O   UNL     1       5.341   0.032  13.507  0.00  0.00    -0.302 OA
ATOM      9  H   UNL     1       5.850   0.835  13.277  0.00  0.00    +0.222 HD
ENDBRANCH   6   8
BRANCH   6  10
ATOM     10  O   UNL     1       5.448  -1.646  11.814  0.00  0.00    -0.284 OA
BRANCH  10  11
ATOM     11  C   UNL     1       5.761  -0.822  10.689  0.00  0.00    +0.206 C 
BRANCH  11  12
ATOM     12  C   UNL     1       4.961  -1.178   9.435  0.00  0.00    +0.183 C 
ATOM     13  C   UNL     1       3.463  -0.897   9.551  0.00  0.00    +0.183 C 
ATOM     14  C   UNL     1       3.273   0.497   8.953  0.00  0.00    +0.244 C 
ATOM     15  C   UNL     1       4.661   0.876   8.434  0.00  0.00    +0.439 C 
ATOM     16  O   UNL     1       5.407  -0.343   8.335  0.00  0.00    -0.309 OA
BRANCH  15  17
ATOM     17  N   UNL     1       4.543   1.585   7.133  0.00  0.00    -0.173 N 
ATOM     18  C   UNL     1       5.055   1.048   6.002  0.00  0.00    +0.326 A 
ATOM     19  C   UNL     1       4.930   1.704   4.771  0.00  0.00    +0.122 A 
ATOM     20  C   UNL     1       4.259   2.925   4.722  0.00  0.00    +0.027 A 
ATOM     21  C   UNL     1       3.754   3.469   5.901  0.00  0.00    +0.071 A 
ATOM     22  C   UNL     1       3.923   2.790   7.102  0.00  0.00    +0.311 A 
BRANCH  19  23
ATOM     23  C   UNL     1       5.543   1.013   3.611  0.00  0.00    +0.343 C 
ATOM     24  O   UNL     1       6.113  -0.053   3.774  0.00  0.00    -0.245 OA
BRANCH  23  25
ATOM     25  O   UNL     1       5.444   1.607   2.414  0.00  0.00    -0.477 OA
ATOM     26  H   UNL     1       4.984   2.456   2.309  0.00  0.00    +0.295 HD
ENDBRANCH  23  25
ENDBRANCH  19  23
ENDBRANCH  15  17
BRANCH  14  27
ATOM     27  O   UNL     1       2.818   1.481   9.878  0.00  0.00    -0.380 OA
ATOM     28  H   UNL     1       1.862   1.328  10.029  0.00  0.00    +0.210 HD
ENDBRANCH  14  27
BRANCH  13  29
ATOM     29  O   UNL     1       2.710  -1.779   8.705  0.00  0.00    -0.386 OA
ATOM     30  H   UNL     1       3.299  -2.393   8.228  0.00  0.00    +0.210 HD
ENDBRANCH  13  29
ENDBRANCH  11  12
ENDBRANCH  10  11
ENDBRANCH   6  10
ENDBRANCH   5   6
ENDBRANCH   1   5
BRANCH   1  31
ATOM     31  O   UNL     1       8.092  -3.137  14.722  0.00  0.00    -0.284 OA
BRANCH  31  32
ATOM     32  C   UNL     1       8.853  -4.154  15.391  0.00  0.00    +0.206 C 
BRANCH  32  36
ATOM     33  C   UNL     1       6.849  -7.025  16.389  0.00  0.00    +0.253 C 
ATOM     34  C   UNL     1       8.270  -7.522  16.676  0.00  0.00    +0.195 C 
ATOM     35  C   UNL     1       9.165  -6.610  15.836  0.00  0.00    +0.178 C 
ATOM     36  C   UNL     1       8.211  -5.531  15.302  0.00  0.00    +0.178 C 
ATOM     37  O   UNL     1       7.017  -5.612  16.097  0.00  0.00    -0.346 OA
BRANCH  33  45
ATOM     38  N   UNL     1       4.428 -10.039  11.696  0.00  0.00    -0.341 N 
ATOM     39  H   UNL     1       3.515  -9.714  11.989  0.00  0.00    +0.144 HD
ATOM     40  H   UNL     1       4.490 -10.993  11.359  0.00  0.00    +0.144 HD
ATOM     41  C   UNL     1       5.422  -9.783  12.637  0.00  0.00    +0.147 A 
ATOM     42  C   UNL     1       5.335  -8.768  13.609  0.00  0.00    +0.147 A 
ATOM     43  N   UNL     1       4.365  -7.826  13.891  0.00  0.00    -0.231 NA
ATOM     44  C   UNL     1       4.847  -7.152  14.914  0.00  0.00    +0.203 A 
ATOM     45  N   UNL     1       6.085  -7.608  15.305  0.00  0.00    -0.286 N 
ATOM     46  C   UNL     1       6.406  -8.651  14.484  0.00  0.00    +0.167 A 
ATOM     47  N   UNL     1       7.503  -9.419  14.503  0.00  0.00    -0.216 NA
ATOM     48  C   UNL     1       7.483 -10.348  13.533  0.00  0.00    +0.225 A 
ATOM     49  N   UNL     1       6.516 -10.575  12.622  0.00  0.00    -0.219 NA
ENDBRANCH  33  45
BRANCH  35  50
ATOM     50  O   UNL     1       9.786  -7.305  14.761  0.00  0.00    -0.386 OA
ATOM     51  H   UNL     1      10.513  -6.758  14.417  0.00  0.00    +0.210 HD
ENDBRANCH  35  50
BRANCH  34  52
ATOM     52  O   UNL     1       8.578  -7.318  18.072  0.00  0.00    -0.385 OA
ATOM     53  H   UNL     1       8.446  -6.375  18.290  0.00  0.00    +0.210 HD
ENDBRANCH  34  52
ENDBRANCH  32  36
ENDBRANCH  31  32
ENDBRANCH   1  31
TORSDOF 18
