REMARK  Name = 
REMARK  14 active torsions:
REMARK  status: ('A' for Active; 'I' for Inactive)
REMARK    1  A    between atoms: O_1  and  C_2
REMARK    2  A    between atoms: C_2  and  C_3
REMARK    3  A    between atoms: C_3  and  C_4
REMARK    4  A    between atoms: C_3  and  N_6
REMARK    5  A    between atoms: C_4  and  O_5
REMARK    6  A    between atoms: N_6  and  N_7
REMARK    7  A    between atoms: C_18  and  O_19
REMARK    8  A    between atoms: N_22  and  C_23
REMARK    9  A    between atoms: C_25  and  C_27
REMARK   10  A    between atoms: C_27  and  O_28
REMARK   11  A    between atoms: C_29  and  O_31
REMARK   12  A    between atoms: C_32  and  O_34
REMARK   13  A    between atoms: C_35  and  O_37
REMARK   14  A    between atoms: C_42  and  O_43
REMARK                            x       y       z     vdW  Elec       q    Type
REMARK                         _______ _______ _______ _____ _____    ______ ____
ROOT
ATOM      1  N   UNL     1       4.973   2.858  -1.728  0.00  0.00    -0.193 N 
ATOM      2  C   UNL     1       4.726   4.234  -1.480  0.00  0.00    +0.279 A 
ATOM      3  O   UNL     1       3.944   4.681  -0.655  0.00  0.00    -0.265 OA
ATOM      4  C   UNL     1       5.613   4.861  -2.394  0.00  0.00    +0.064 A 
ATOM      5  C   UNL     1       6.198   3.900  -3.250  0.00  0.00    +0.064 A 
ATOM      6  C   UNL     1       7.064   4.423  -4.268  0.00  0.00    +0.023 A 
ATOM      7  C   UNL     1       8.037   3.567  -4.810  0.00  0.00    +0.008 A 
ATOM      8  C   UNL     1       8.101   2.628  -5.843  0.00  0.00    +0.014 A 
ATOM      9  C   UNL     1       9.009   1.601  -5.649  0.00  0.00    +0.046 A 
ATOM     10  C   UNL     1       9.818   1.621  -4.517  0.00  0.00    +0.119 A 
ATOM     11  C   UNL     1      10.085   2.804  -3.816  0.00  0.00    +0.071 A 
ATOM     12  C   UNL     1       9.261   3.884  -4.146  0.00  0.00    +0.051 A 
ATOM     13  N   UNL     1       9.259   5.256  -3.864  0.00  0.00    -0.352 N 
ATOM     14  H   UNL     1      10.001   5.853  -3.513  0.00  0.00    +0.166 HD
ATOM     15  C   UNL     1       7.927   5.495  -3.956  0.00  0.00    +0.073 A 
ATOM     16  C   UNL     1       7.314   6.536  -3.300  0.00  0.00    +0.077 A 
ATOM     17  N   UNL     1       7.653   7.844  -3.453  0.00  0.00    -0.309 N 
ATOM     18  C   UNL     1       6.749   8.408  -2.521  0.00  0.00    +0.056 A 
ATOM     19  C   UNL     1       6.580   9.751  -2.102  0.00  0.00    +0.072 A 
ATOM     20  C   UNL     1       5.591  10.090  -1.191  0.00  0.00    +0.119 A 
ATOM     21  C   UNL     1       4.753   9.140  -0.638  0.00  0.00    +0.046 A 
ATOM     22  C   UNL     1       4.888   7.798  -1.010  0.00  0.00    +0.014 A 
ATOM     23  C   UNL     1       5.850   7.392  -1.968  0.00  0.00    +0.009 A 
ATOM     24  C   UNL     1       6.173   6.156  -2.560  0.00  0.00    +0.023 A 
ATOM     25  C   UNL     1       5.951   2.591  -2.693  0.00  0.00    +0.279 A 
ATOM     26  O   UNL     1       6.482   1.509  -2.888  0.00  0.00    -0.265 OA
ENDROOT
BRANCH  17  27
ATOM     27  C   UNL     1       8.383   8.390  -4.596  0.00  0.00    +0.251 C 
ATOM     28  C   UNL     1       8.298   9.889  -4.962  0.00  0.00    +0.195 C 
ATOM     29  C   UNL     1       6.877  10.245  -5.442  0.00  0.00    +0.178 C 
ATOM     30  C   UNL     1       6.469   9.334  -6.609  0.00  0.00    +0.177 C 
ATOM     31  C   UNL     1       6.707   7.861  -6.275  0.00  0.00    +0.177 C 
ATOM     32  O   UNL     1       8.050   7.637  -5.791  0.00  0.00    -0.346 OA
BRANCH  28  33
ATOM     33  O   UNL     1       8.814  10.776  -3.969  0.00  0.00    -0.385 OA
ATOM     34  H   UNL     1       9.145  10.277  -3.206  0.00  0.00    +0.210 HD
ENDBRANCH  28  33
BRANCH  29  35
ATOM     35  O   UNL     1       6.809  11.607  -5.885  0.00  0.00    -0.386 OA
ATOM     36  H   UNL     1       5.912  11.730  -6.249  0.00  0.00    +0.210 HD
ENDBRANCH  29  35
BRANCH  30  37
ATOM     37  O   UNL     1       5.099   9.584  -6.946  0.00  0.00    -0.386 OA
ATOM     38  H   UNL     1       4.532   9.247  -6.229  0.00  0.00    +0.210 HD
ENDBRANCH  30  37
BRANCH  31  39
ATOM     39  C   UNL     1       6.501   6.984  -7.520  0.00  0.00    +0.190 C 
BRANCH  39  40
ATOM     40  O   UNL     1       6.639   5.605  -7.184  0.00  0.00    -0.392 OA
ATOM     41  H   UNL     1       7.496   5.531  -6.722  0.00  0.00    +0.210 HD
ENDBRANCH  39  40
ENDBRANCH  31  39
ENDBRANCH  17  27
BRANCH   1  42
ATOM     42  N   UNL     1       4.603   1.870  -0.736  0.00  0.00    -0.271 N 
ATOM     43  H   UNL     1       5.436   1.352  -0.441  0.00  0.00    +0.167 HD
BRANCH  42  44
ATOM     44  C   UNL     1       3.570   0.896  -1.158  0.00  0.00    +0.138 C 
BRANCH  44  45
ATOM     45  C   UNL     1       4.049  -0.080  -2.256  0.00  0.00    +0.181 C 
BRANCH  45  46
ATOM     46  O   UNL     1       5.149  -0.873  -1.801  0.00  0.00    -0.393 OA
ATOM     47  H   UNL     1       5.888  -0.700  -2.420  0.00  0.00    +0.209 HD
ENDBRANCH  45  46
ENDBRANCH  44  45
BRANCH  44  48
ATOM     48  C   UNL     1       3.139   0.067   0.085  0.00  0.00    +0.181 C 
BRANCH  48  49
ATOM     49  O   UNL     1       4.228  -0.646   0.677  0.00  0.00    -0.393 OA
ATOM     50  H   UNL     1       4.720  -1.069  -0.061  0.00  0.00    +0.209 HD
ENDBRANCH  48  49
ENDBRANCH  44  48
ENDBRANCH  42  44
ENDBRANCH   1  42
BRANCH  10  51
ATOM     51  O   UNL     1      10.315   0.439  -4.050  0.00  0.00    -0.507 OA
ATOM     52  H   UNL     1       9.611  -0.220  -4.223  0.00  0.00    +0.292 HD
ENDBRANCH  10  51
BRANCH  20  53
ATOM     53  O   UNL     1       5.464  11.415  -0.893  0.00  0.00    -0.507 OA
ATOM     54  H   UNL     1       4.647  11.554  -0.388  0.00  0.00    +0.292 HD
ENDBRANCH  20  53
TORSDOF 14
