REMARK  Name = 
REMARK  6 active torsions:
REMARK  status: ('A' for Active; 'I' for Inactive)
REMARK    1  A    between atoms: N_1  and  C_2
REMARK    2  A    between atoms: C_2  and  C_4
REMARK    3  A    between atoms: C_2  and  C_11
REMARK    4  A    between atoms: C_4  and  C_5
REMARK    5  A    between atoms: C_11  and  O_13
REMARK    6  A    between atoms: C_11  and  C_14
REMARK                            x       y       z     vdW  Elec       q    Type
REMARK                         _______ _______ _______ _____ _____    ______ ____
ROOT
ATOM      1  C   UNL     1       2.362  -0.031   0.010  0.00  0.00    +0.085 C 
ENDROOT
BRANCH   1   2
ATOM      2  N   UNL     1       0.897  -0.196   0.019  0.00  0.00    -0.325 NA
ATOM      3  H   UNL     1       0.464   0.731  -0.002  0.00  0.00    +0.119 HD
ATOM      4  H   UNL     1       0.597  -0.670  -0.834  0.00  0.00    +0.119 HD
ENDBRANCH   1   2
BRANCH   1   5
ATOM      5  C   UNL     1       2.806   0.861   1.206  0.00  0.00    +0.146 C 
BRANCH   5   6
ATOM      6  C   UNL     1       2.496   0.172   2.544  0.00  0.00    +0.141 C 
ATOM      7 CL   UNL     1       3.221   1.064   3.915  0.00  0.00    -0.123 Cl
ENDBRANCH   5   6
BRANCH   5   8
ATOM      8  O   UNL     1       2.121   2.124   1.155  0.00  0.00    -0.389 OA
ATOM      9  H   UNL     1       2.421   2.605   0.367  0.00  0.00    +0.210 HD
ENDBRANCH   5   8
ENDBRANCH   1   5
BRANCH   1  10
ATOM     10  C   UNL     1       2.866   0.554  -1.336  0.00  0.00    +0.056 C 
BRANCH  10  11
ATOM     11  C   UNL     1       2.469  -0.252  -2.555  0.00  0.00    -0.046 A 
ATOM     12  C   UNL     1       2.853  -1.593  -2.690  0.00  0.00    +0.004 A 
ATOM     13  C   UNL     1       2.447  -2.337  -3.799  0.00  0.00    +0.000 A 
ATOM     14  C   UNL     1       1.669  -1.744  -4.790  0.00  0.00    +0.000 A 
ATOM     15  C   UNL     1       1.302  -0.409  -4.678  0.00  0.00    +0.000 A 
ATOM     16  C   UNL     1       1.698   0.337  -3.567  0.00  0.00    +0.004 A 
ENDBRANCH  10  11
ENDBRANCH   1  10
TORSDOF 6
