REMARK  Name = 
REMARK  3 active torsions:
REMARK  status: ('A' for Active; 'I' for Inactive)
REMARK    1  A    between atoms: N_1  and  C_2
REMARK    2  A    between atoms: C_5  and  S_9
REMARK    3  A    between atoms: S_9  and  N_10
REMARK                            x       y       z     vdW  Elec       q    Type
REMARK                         _______ _______ _______ _____ _____    ______ ____
ROOT
ATOM      1  C   UNL     1       2.469  -0.033  -0.011  0.00  0.00    +0.000 A 
ATOM      2  C   UNL     1       3.185  -1.230  -0.135  0.00  0.00    +0.000 A 
ATOM      3 HG   UNL     1       2.198  -3.041  -0.030  0.00  0.00    +0.000 Hg
ATOM      4  C   UNL     1       4.567  -1.207  -0.336  0.00  0.00    +0.000 A 
ATOM      5  C   UNL     1       5.244   0.016  -0.414  0.00  0.00    +0.000 A 
ATOM      6  C   UNL     1       4.532   1.214  -0.284  0.00  0.00    +0.000 A 
ATOM      7  C   UNL     1       3.149   1.191  -0.083  0.00  0.00    +0.000 A 
ENDROOT
BRANCH   1   8
ATOM      8  N   UNL     1       1.067  -0.064   0.181  0.00  0.00    +0.000 N 
ATOM      9  H   UNL     1       0.564  -0.962   0.227  0.00  0.00    +0.000 HD
ATOM     10  H   UNL     1       0.528   0.810   0.266  0.00  0.00    +0.000 HD
ENDBRANCH   1   8
BRANCH   5  11
ATOM     11  S   UNL     1       7.011   0.067  -0.703  0.00  0.00    +0.000 S 
ATOM     12  O   UNL     1       7.665  -1.322  -0.762  0.00  0.00    +0.000 OA
ATOM     13  O   UNL     1       7.796   0.748   0.428  0.00  0.00    +0.000 OA
BRANCH  11  14
ATOM     14  N   UNL     1       7.534   0.874  -2.182  0.00  0.00    +0.000 NA
ATOM     15  H   UNL     1       7.048   0.410  -2.981  0.00  0.00    +0.000 HD
ATOM     16  H   UNL     1       7.201   1.863  -2.135  0.00  0.00    +0.000 HD
ENDBRANCH  11  14
ENDBRANCH   5  11
TORSDOF 3
