REMARK  Name = 
REMARK  7 active torsions:
REMARK  status: ('A' for Active; 'I' for Inactive)
REMARK    1  A    between atoms: C_1  and  C_2
REMARK    2  A    between atoms: C_2  and  C_3
REMARK    3  A    between atoms: C_3  and  C_4
REMARK    4  A    between atoms: C_4  and  N_5
REMARK    5  A    between atoms: C_8  and  C_9
REMARK    6  A    between atoms: C_9  and  N_10
REMARK    7  A    between atoms: C_11  and  C_13
REMARK                            x       y       z     vdW  Elec       q    Type
REMARK                         _______ _______ _______ _____ _____    ______ ____
ROOT
ATOM      1  N   UNL     1       5.407  -7.013   0.020  0.00  0.00    -0.311 N 
ATOM      2  H   UNL     1       5.459  -7.672   0.790  0.00  0.00    +0.149 HD
ATOM      3  C   UNL     1       4.636  -7.371  -1.063  0.00  0.00    +0.250 C 
ATOM      4  O   UNL     1       4.460  -6.627  -2.023  0.00  0.00    -0.270 OA
ENDROOT
BRANCH   3   5
ATOM      5  C   UNL     1       4.046  -8.710  -0.978  0.00  0.00    +0.105 A 
ATOM      6  C   UNL     1       3.286  -9.386  -1.997  0.00  0.00    +0.016 A 
ATOM      7  C   UNL     1       2.926 -10.643  -1.502  0.00  0.00    +0.053 A 
ATOM      8  C   UNL     1       2.164 -11.556  -2.251  0.00  0.00    +0.026 A 
ATOM      9  C   UNL     1       1.770 -11.182  -3.539  0.00  0.00    +0.002 A 
ATOM     10  C   UNL     1       2.125  -9.945  -4.063  0.00  0.00    +0.001 A 
ATOM     11  N   UNL     1       3.462 -10.735  -0.242  0.00  0.00    -0.311 N 
ATOM     12  C   UNL     1       3.385 -11.892   0.632  0.00  0.00    +0.128 C 
ATOM     13  C   UNL     1       4.405 -11.788   1.755  0.00  0.00    +0.063 C 
ATOM     14  C   UNL     1       4.372 -10.373   2.309  0.00  0.00    +0.232 C 
ATOM     15  O   UNL     1       4.701  -9.410   1.300  0.00  0.00    -0.477 OA
ATOM     16  C   UNL     1       2.880  -9.043  -3.306  0.00  0.00    +0.011 A 
ATOM     17  C   UNL     1       4.105  -9.573   0.109  0.00  0.00    +0.209 A 
ENDBRANCH   3   5
BRANCH   1  18
ATOM     18  C   UNL     1       6.034  -5.719   0.154  0.00  0.00    +0.108 C 
BRANCH  18  22
ATOM     19  N   UNL     1       6.372  -3.654   3.273  0.00  0.00    -0.302 NA
ATOM     20  C   UNL     1       6.834  -3.216   1.946  0.00  0.00    +0.085 C 
ATOM     21  C   UNL     1       5.770  -3.291   0.844  0.00  0.00    +0.020 C 
ATOM     22  C   UNL     1       5.090  -4.668   0.770  0.00  0.00    +0.009 C 
ATOM     23  C   UNL     1       4.609  -5.061   2.175  0.00  0.00    +0.020 C 
ATOM     24  C   UNL     1       5.740  -4.979   3.202  0.00  0.00    +0.085 C 
BRANCH  19  25
ATOM     25  C   UNL     1       5.541  -2.636   3.935  0.00  0.00    +0.084 C 
BRANCH  25  26
ATOM     26  C   UNL     1       5.259  -2.924   5.420  0.00  0.00    +0.015 C 
BRANCH  26  28
ATOM     27  C   UNL     1       6.218  -3.337   7.716  0.00  0.00    +0.004 C 
ATOM     28  C   UNL     1       6.535  -3.037   6.259  0.00  0.00    -0.002 C 
ENDBRANCH  26  28
ENDBRANCH  25  26
ENDBRANCH  19  25
ENDBRANCH  18  22
ENDBRANCH   1  18
TORSDOF 6
