REMARK  Name = 
REMARK  13 active torsions:
REMARK  status: ('A' for Active; 'I' for Inactive)
REMARK    1  A    between atoms: C_8  and  N_13
REMARK    2  A    between atoms: N_13  and  C_14
REMARK    3  A    between atoms: C_14  and  C_15
REMARK    4  A    between atoms: C_15  and  C_16
REMARK    5  A    between atoms: C_16  and  C_17
REMARK    6  A    between atoms: C_17  and  C_18
REMARK    7  A    between atoms: C_18  and  C_19
REMARK    8  A    between atoms: C_19  and  C_20
REMARK    9  A    between atoms: C_20  and  C_21
REMARK   10  A    between atoms: C_21  and  C_22
REMARK   11  A    between atoms: C_22  and  C_23
REMARK   12  A    between atoms: C_23  and  N_24
REMARK   13  A    between atoms: N_24  and  C_25
REMARK                            x       y       z     vdW  Elec       q    Type
REMARK                         _______ _______ _______ _____ _____    ______ ____
ROOT
ATOM      1  C   UNL     1      12.856  -1.260   5.698  0.00  0.00    +0.000 C 
ENDROOT
BRANCH   1   2
ATOM      2  C   UNL     1      12.388  -0.974   4.269  0.00  0.00    +0.000 C 
BRANCH   2   3
ATOM      3  C   UNL     1      12.844  -2.058   3.294  0.00  0.00    +0.000 C 
BRANCH   3   4
ATOM      4  C   UNL     1      12.359  -1.777   1.885  0.00  0.00    +0.001 C 
BRANCH   4   5
ATOM      5  C   UNL     1      12.855  -2.861   0.930  0.00  0.00    +0.015 C 
BRANCH   5   6
ATOM      6  C   UNL     1      12.337  -2.558  -0.467  0.00  0.00    +0.081 C 
BRANCH   6   7
ATOM      7  N   UNL     1      12.728  -3.613  -1.392  0.00  0.00    -0.309 NA
ATOM      8  H   UNL     1      13.743  -3.706  -1.389  0.00  0.00    +0.123 HD
BRANCH   7  14
ATOM      9  O   UNL     1      14.185  -7.364  -6.137  0.00  0.00    -0.268 OA
ATOM     10  C   UNL     1      13.766  -6.492  -5.386  0.00  0.00    +0.249 A 
ATOM     11  C   UNL     1      14.655  -5.412  -4.896  0.00  0.00    +0.070 A 
ATOM     12  C   UNL     1      14.163  -4.469  -4.080  0.00  0.00    +0.012 A 
ATOM     13  C   UNL     1      12.769  -4.487  -3.658  0.00  0.00    -0.011 A 
ATOM     14  C   UNL     1      12.268  -3.360  -2.768  0.00  0.00    +0.086 C 
ATOM     15  C   UNL     1      10.728  -3.259  -2.873  0.00  0.00    +0.024 C 
ATOM     16  C   UNL     1      10.083  -4.620  -2.629  0.00  0.00    +0.008 C 
ATOM     17  C   UNL     1      10.504  -5.591  -3.733  0.00  0.00    +0.053 C 
ATOM     18  C   UNL     1      11.963  -5.476  -4.104  0.00  0.00    +0.024 A 
ATOM     19  N   UNL     1      12.467  -6.443  -4.946  0.00  0.00    -0.326 N 
ATOM     20  H   UNL     1      11.865  -7.184  -5.282  0.00  0.00    +0.169 HD
ENDBRANCH   7  14
ENDBRANCH   6   7
ENDBRANCH   5   6
ENDBRANCH   4   5
ENDBRANCH   3   4
ENDBRANCH   2   3
ENDBRANCH   1   2
BRANCH   1  21
ATOM     21  C   UNL     1      14.374  -1.329   5.769  0.00  0.00    +0.000 C 
BRANCH  21  22
ATOM     22  C   UNL     1      14.905  -1.655   7.161  0.00  0.00    +0.002 C 
BRANCH  22  23
ATOM     23  C   UNL     1      16.439  -1.770   7.145  0.00  0.00    +0.019 C 
BRANCH  23  24
ATOM     24  C   UNL     1      17.038  -0.446   6.691  0.00  0.00    +0.101 C 
BRANCH  24  25
ATOM     25  N   UNL     1      18.483  -0.396   6.852  0.00  0.00    -0.343 N 
ATOM     26  H   UNL     1      18.873  -1.234   6.435  0.00  0.00    +0.146 HD
BRANCH  25  27
ATOM     27  C   UNL     1      19.163   0.757   6.340  0.00  0.00    +0.041 A 
ATOM     28  C   UNL     1      20.467   0.574   5.749  0.00  0.00    +0.021 A 
ATOM     29  C   UNL     1      21.141   1.722   5.286  0.00  0.00    +0.073 A 
ATOM     30  C   UNL     1      22.397   1.596   4.707  0.00  0.00    +0.028 A 
ATOM     31  C   UNL     1      23.023   0.358   4.554  0.00  0.00    +0.002 A 
ATOM     32  C   UNL     1      22.381  -0.786   4.991  0.00  0.00    +0.001 A 
ATOM     33  N   UNL     1      20.628   2.957   5.368  0.00  0.00    -0.251 NA
ATOM     34  C   UNL     1      19.424   3.135   5.958  0.00  0.00    +0.047 A 
ATOM     35  C   UNL     1      18.972   4.574   6.049  0.00  0.00    +0.056 C 
ATOM     36  C   UNL     1      17.481   4.735   6.319  0.00  0.00    +0.006 C 
ATOM     37  C   UNL     1      17.104   3.879   7.509  0.00  0.00    +0.005 C 
ATOM     38  C   UNL     1      17.369   2.417   7.184  0.00  0.00    +0.039 C 
ATOM     39  C   UNL     1      21.124  -0.679   5.588  0.00  0.00    +0.012 A 
ATOM     40  C   UNL     1      18.676   2.085   6.501  0.00  0.00    -0.005 A 
ENDBRANCH  25  27
ENDBRANCH  24  25
ENDBRANCH  23  24
ENDBRANCH  22  23
ENDBRANCH  21  22
ENDBRANCH   1  21
TORSDOF 13
