REMARK  Name = 
REMARK  5 active torsions:
REMARK  status: ('A' for Active; 'I' for Inactive)
REMARK    1  A    between atoms: O_1  and  C_2
REMARK    2  A    between atoms: C_2  and  C_4
REMARK    3  A    between atoms: C_5  and  N_6
REMARK    4  A    between atoms: N_6  and  C_7
REMARK    5  A    between atoms: C_11  and  C_13
REMARK                            x       y       z     vdW  Elec       q    Type
REMARK                         _______ _______ _______ _____ _____    ______ ____
ROOT
ATOM      1  N   UNL     1       4.065  -1.180  -1.610  0.00  0.00    -0.299 N 
ATOM      2  H   UNL     1       4.941  -1.409  -2.083  0.00  0.00    +0.154 HD
ENDROOT
BRANCH   1   8
ATOM      3  C   UNL     1       3.998   0.803  -3.074  0.00  0.00    +0.099 A 
ATOM      4  C   UNL     1       3.642   2.151  -3.259  0.00  0.00    +0.020 A 
ATOM      5  C   UNL     1       2.961   2.828  -2.257  0.00  0.00    +0.021 A 
ATOM      6  C   UNL     1       2.686   2.143  -1.093  0.00  0.00    +0.113 A 
ATOM      7  N   UNL     1       3.050   0.863  -0.882  0.00  0.00    -0.239 NA
ATOM      8  C   UNL     1       3.718   0.179  -1.847  0.00  0.00    +0.137 A 
BRANCH   3   9
ATOM      9  C   UNL     1       4.744   0.082  -4.129  0.00  0.00    +0.340 C 
ATOM     10  O   UNL     1       5.594  -0.752  -3.876  0.00  0.00    -0.245 OA
BRANCH   9  11
ATOM     11  O   UNL     1       4.391   0.426  -5.385  0.00  0.00    -0.477 OA
ATOM     12  H   UNL     1       3.587   0.976  -5.468  0.00  0.00    +0.295 HD
ENDBRANCH   9  11
ENDBRANCH   3   9
ENDBRANCH   1   8
BRANCH   1  13
ATOM     13  C   UNL     1       3.910  -1.856  -0.373  0.00  0.00    +0.033 A 
ATOM     14  C   UNL     1       4.965  -2.619   0.148  0.00  0.00    +0.035 A 
ATOM     15  C   UNL     1       4.904  -3.146   1.455  0.00  0.00    +0.057 A 
ATOM     16  C   UNL     1       3.733  -2.980   2.206  0.00  0.00    +0.012 A 
ATOM     17  C   UNL     1       2.653  -2.284   1.672  0.00  0.00    +0.002 A 
ATOM     18  C   UNL     1       2.746  -1.729   0.396  0.00  0.00    +0.023 A 
BRANCH  15  19
ATOM     19  C   UNL     1       6.111  -3.822   2.055  0.00  0.00    +0.417 C 
ATOM     20  F   UNL     1       7.241  -3.072   1.931  0.00  0.00    -0.166 F 
ATOM     21  F   UNL     1       6.391  -5.021   1.475  0.00  0.00    -0.166 F 
ATOM     22  F   UNL     1       5.984  -4.075   3.390  0.00  0.00    -0.166 F 
ENDBRANCH  15  19
ENDBRANCH   1  13
TORSDOF 5
