REMARK  Name = 
REMARK  7 active torsions:
REMARK  status: ('A' for Active; 'I' for Inactive)
REMARK    1  A    between atoms: O_1  and  C_2
REMARK    2  A    between atoms: C_2  and  C_3
REMARK    3  A    between atoms: C_3  and  C_5
REMARK    4  A    between atoms: C_5  and  O_6
REMARK    5  A    between atoms: O_6  and  P_7
REMARK    6  A    between atoms: P_7  and  O_8
REMARK    7  A    between atoms: P_7  and  O_9
REMARK                            x       y       z     vdW  Elec       q    Type
REMARK                         _______ _______ _______ _____ _____    ______ ____
ROOT
ATOM      1  O   UNL     1       4.788   2.827   1.162  0.00  0.00    -0.279 OA
ENDROOT
BRANCH   1   2
ATOM      2  P   UNL     1       6.192   3.066   1.864  0.00  0.00    +0.473 P 
ATOM      3  O   UNL     1       7.409   3.084   1.010  0.00  0.00    -0.228 OA
BRANCH   2   4
ATOM      4  O   UNL     1       6.193   2.082   3.118  0.00  0.00    -0.303 OA
ATOM      5  H   UNL     1       5.734   2.510   3.864  0.00  0.00    +0.222 HD
ENDBRANCH   2   4
BRANCH   2   6
ATOM      6  O   UNL     1       5.926   4.446   2.623  0.00  0.00    -0.303 OA
ATOM      7  H   UNL     1       5.799   5.167   1.980  0.00  0.00    +0.222 HD
ENDBRANCH   2   6
ENDBRANCH   1   2
BRANCH   1   8
ATOM      8  C   UNL     1       4.511   1.549   0.635  0.00  0.00    +0.249 C 
BRANCH   8   9
ATOM      9  C   UNL     1       3.005   1.347   0.609  0.00  0.00    +0.184 C 
ATOM     10  O   UNL     1       2.211   2.149   1.110  0.00  0.00    -0.292 OA
BRANCH   9  11
ATOM     11  C   UNL     1       2.494   0.127  -0.145  0.00  0.00    +0.232 C 
BRANCH  11  12
ATOM     12  O   UNL     1       3.381  -0.972  -0.043  0.00  0.00    -0.387 OA
ATOM     13  H   UNL     1       2.989  -1.702  -0.559  0.00  0.00    +0.210 HD
ENDBRANCH  11  12
ENDBRANCH   9  11
ENDBRANCH   8   9
ENDBRANCH   1   8
TORSDOF 7
