REMARK  Name = 
REMARK  7 active torsions:
REMARK  status: ('A' for Active; 'I' for Inactive)
REMARK    1  A    between atoms: C_1  and  C_2
REMARK    2  A    between atoms: C_2  and  N_4
REMARK    3  A    between atoms: C_2  and  C_17
REMARK    4  A    between atoms: C_5  and  C_7
REMARK    5  A    between atoms: C_7  and  S_14
REMARK    6  A    between atoms: C_8  and  C_10
REMARK    7  A    between atoms: S_14  and  C_15
REMARK                            x       y       z     vdW  Elec       q    Type
REMARK                         _______ _______ _______ _____ _____    ______ ____
ROOT
ATOM      1  N   UNL     1       5.205  -2.244  -2.562  0.00  0.00    -0.307 N 
ATOM      2  H   UNL     1       4.564  -2.933  -2.203  0.00  0.00    +0.149 HD
ATOM      3  C   UNL     1       4.767  -1.262  -3.427  0.00  0.00    +0.235 C 
ATOM      4  O   UNL     1       5.487  -0.360  -3.836  0.00  0.00    -0.274 OA
ENDROOT
BRANCH   3   5
ATOM      5  C   UNL     1       3.345  -1.362  -3.842  0.00  0.00    +0.159 C 
ATOM      6  C   UNL     1       2.970  -1.196  -5.313  0.00  0.00    +0.148 C 
ATOM      7 CL   UNL     1       4.198  -1.070  -6.581  0.00  0.00    -0.098 Cl
ATOM      8 CL   UNL     1       1.453  -0.432  -5.849  0.00  0.00    -0.098 Cl
ATOM      9  C   UNL     1       2.786  -2.534  -4.624  0.00  0.00    +0.054 C 
ATOM     10  C   UNL     1       3.605  -3.723  -5.011  0.00  0.00    +0.012 C 
BRANCH   5  11
ATOM     11  S   UNL     1       2.114  -0.530  -2.703  0.00  0.00    +0.037 S 
ATOM     12  C   UNL     1       1.866  -1.897  -1.553  0.00  0.00    +0.122 C 
ATOM     13  O   UNL     1       2.874   0.526  -1.964  0.00  0.00    -0.256 OA
ENDBRANCH   5  11
ENDBRANCH   3   5
BRANCH   1  15
ATOM     14  C   UNL     1       6.589  -1.285  -0.765  0.00  0.00    +0.033 C 
ATOM     15  C   UNL     1       6.541  -2.210  -1.986  0.00  0.00    +0.100 C 
BRANCH  15  16
ATOM     16  C   UNL     1       6.983  -3.637  -1.704  0.00  0.00    -0.027 A 
ATOM     17  C   UNL     1       6.690  -4.301  -0.502  0.00  0.00    +0.006 A 
ATOM     18  C   UNL     1       7.083  -5.628  -0.306  0.00  0.00    +0.015 A 
ATOM     19  C   UNL     1       7.765  -6.306  -1.313  0.00  0.00    +0.018 A 
ATOM     20 BR   UNL     1       8.289  -8.103  -1.049  0.00  0.00    -0.050 Br
ATOM     21  C   UNL     1       8.057  -5.670  -2.516  0.00  0.00    +0.015 A 
ATOM     22  C   UNL     1       7.663  -4.344  -2.711  0.00  0.00    +0.006 A 
ENDBRANCH  15  16
ENDBRANCH   1  15
TORSDOF 4
