REMARK  Name = 
REMARK  13 active torsions:
REMARK  status: ('A' for Active; 'I' for Inactive)
REMARK    1  A    between atoms: C_1  and  N_2
REMARK    2  A    between atoms: N_2  and  C_3
REMARK    3  A    between atoms: C_3  and  C_4
REMARK    4  A    between atoms: C_4  and  C_5
REMARK    5  A    between atoms: C_5  and  N_7
REMARK    6  A    between atoms: C_5  and  C_8
REMARK    7  A    between atoms: C_8  and  C_9
REMARK    8  A    between atoms: N_11  and  C_12
REMARK    9  A    between atoms: C_16  and  N_24
REMARK   10  A    between atoms: C_19  and  C_21
REMARK   11  A    between atoms: C_21  and  O_22
REMARK   12  A    between atoms: C_27  and  N_28
REMARK   13  A    between atoms: C_27  and  O_29
REMARK                            x       y       z     vdW  Elec       q    Type
REMARK                         _______ _______ _______ _____ _____    ______ ____
ROOT
ATOM      1  C   UNL     1       2.538   4.480  -7.315  0.00  0.00    +0.136 C 
ATOM      2  C   UNL     1       4.040   4.140  -7.499  0.00  0.00    +0.253 C 
ATOM      3  O   UNL     1       5.003   5.056  -6.944  0.00  0.00    -0.338 OA
ATOM      4  C   UNL     1       4.722   6.467  -6.975  0.00  0.00    +0.239 C 
ATOM      5  C   UNL     1       3.272   6.829  -6.982  0.00  0.00    +0.022 C 
ATOM      6  C   UNL     1       2.280   5.940  -7.118  0.00  0.00    -0.002 C 
ENDROOT
BRANCH   4   7
ATOM      7  N   UNL     1       5.426   7.122  -8.085  0.00  0.00    -0.232 N 
ATOM      8  C   UNL     1       6.444   8.016  -7.768  0.00  0.00    +0.312 C 
ATOM      9  O   UNL     1       6.733   8.361  -6.624  0.00  0.00    -0.252 OA
ATOM     10  N   UNL     1       7.154   8.537  -8.807  0.00  0.00    -0.255 N 
ATOM     11  H   UNL     1       7.823   9.247  -8.562  0.00  0.00    +0.155 HD
ATOM     12  C   UNL     1       6.864   8.377 -10.171  0.00  0.00    +0.211 C 
ATOM     13  C   UNL     1       5.719   7.484 -10.403  0.00  0.00    +0.060 C 
ATOM     14  C   UNL     1       5.050   6.914  -9.399  0.00  0.00    +0.084 C 
BRANCH  12  15
ATOM     15  N   UNL     1       8.055   7.900 -10.777  0.00  0.00    -0.284 NA
ATOM     16  H   UNL     1       8.733   8.651 -10.727  0.00  0.00    +0.123 HD
ATOM     17  H   UNL     1       8.406   7.137 -10.210  0.00  0.00    +0.123 HD
ENDBRANCH  12  15
BRANCH  12  18
ATOM     18  O   UNL     1       6.591   9.651 -10.663  0.00  0.00    -0.356 OA
ATOM     19  H   UNL     1       5.780   9.924 -10.206  0.00  0.00    +0.214 HD
ENDBRANCH  12  18
ENDBRANCH   4   7
BRANCH   1  21
ATOM     20  C   UNL     1       1.479   2.520  -6.238  0.00  0.00    +0.215 C 
ATOM     21  N   UNL     1       1.943   3.815  -6.156  0.00  0.00    -0.306 N 
ATOM     22  H   UNL     1       2.013   4.244  -5.237  0.00  0.00    +0.149 HD
ATOM     23  O   UNL     1       1.595   1.835  -7.249  0.00  0.00    -0.276 OA
BRANCH  20  24
ATOM     24  C   UNL     1       0.845   1.978  -4.969  0.00  0.00    +0.114 C 
BRANCH  24  25
ATOM     25  C   UNL     1       1.849   1.199  -4.109  0.00  0.00    +0.062 C 
BRANCH  25  26
ATOM     26  N   UNL     1       2.928   2.107  -3.675  0.00  0.00    -0.327 NA
ATOM     27  H   UNL     1       3.547   1.619  -3.025  0.00  0.00    +0.118 HD
ATOM     28  H   UNL     1       3.516   2.346  -4.475  0.00  0.00    +0.118 HD
ENDBRANCH  25  26
BRANCH  25  29
ATOM     29  C   UNL     1       1.215   0.574  -2.842  0.00  0.00    +0.056 C 
BRANCH  29  30
ATOM     30  C   UNL     1       0.132  -0.482  -3.113  0.00  0.00    +0.200 C 
BRANCH  30  32
ATOM     31  C   UNL     1       0.254  -2.243  -1.366  0.00  0.00    +0.242 C 
ATOM     32  N   UNL     1      -0.402  -1.030  -1.852  0.00  0.00    -0.265 N 
ATOM     33  C   UNL     1      -1.345  -0.371  -1.108  0.00  0.00    +0.378 C 
ATOM     34  N   UNL     1      -1.951   0.724  -1.398  0.00  0.00    -0.130 NA
ATOM     35  H   UNL     1      -1.632   1.074  -2.297  0.00  0.00    +0.306 HD
ATOM     36  N   UNL     1      -1.687  -0.930   0.075  0.00  0.00    -0.289 N 
ATOM     37  H   UNL     1      -2.487  -0.427   0.450  0.00  0.00    +0.255 HD
ATOM     38  H   UNL     1      -1.887  -1.918   0.023  0.00  0.00    +0.255 HD
ENDBRANCH  30  32
ENDBRANCH  29  30
ENDBRANCH  25  29
ENDBRANCH  24  25
ENDBRANCH  20  24
ENDBRANCH   1  21
BRANCH   2  39
ATOM     39  C   UNL     1       4.405   3.821  -8.951  0.00  0.00    +0.336 C 
ATOM     40  O   UNL     1       3.629   3.528  -9.846  0.00  0.00    -0.248 OA
BRANCH  39  41
ATOM     41  O   UNL     1       5.749   3.896  -9.158  0.00  0.00    -0.479 OA
ATOM     42  H   UNL     1       6.191   4.248  -8.354  0.00  0.00    +0.295 HD
ENDBRANCH  39  41
ENDBRANCH   2  39
TORSDOF 12
