REMARK  Name = 
REMARK  1 active torsions:
REMARK  status: ('A' for Active; 'I' for Inactive)
REMARK    1  A    between atoms: C_1  and  N_2
REMARK                            x       y       z     vdW  Elec       q    Type
REMARK                         _______ _______ _______ _____ _____    ______ ____
ROOT
ATOM      1  C   UNL     1       0.908  -0.053  -0.162  0.00  0.00    +0.446 C 
ATOM      2  N   UNL     1       2.371   0.059  -0.043  0.00  0.00    -0.130 N 
ATOM      3  C   UNL     1       3.047  -1.211  -0.005  0.00  0.00    +0.501 A 
ATOM      4  O   UNL     1       2.409  -2.246  -0.090  0.00  0.00    -0.195 OA
ATOM      5  N   UNL     1       4.401  -1.141   0.127  0.00  0.00    -0.273 N 
ATOM      6  H   UNL     1       4.873  -2.040   0.157  0.00  0.00    +0.174 HD
ATOM      7  C   UNL     1       5.125   0.008   0.216  0.00  0.00    +0.099 A 
ATOM      8  C   UNL     1       4.494   1.181   0.166  0.00  0.00    +0.113 A 
ATOM      9  C   UNL     1       3.015   1.216   0.025  0.00  0.00    +0.274 A 
ATOM     10  N   UNL     1       2.484   2.422  -0.021  0.00  0.00    -0.305 N 
ATOM     11  H   UNL     1       3.066   3.250   0.040  0.00  0.00    +0.148 HD
ATOM     12  H   UNL     1       1.494   2.585  -0.130  0.00  0.00    +0.148 HD
ENDROOT
TORSDOF 0
