REMARK  Name = 
REMARK  1 active torsions:
REMARK  status: ('A' for Active; 'I' for Inactive)
REMARK    1  A    between atoms: N_2  and  C_4
REMARK                            x       y       z     vdW  Elec       q    Type
REMARK                         _______ _______ _______ _____ _____    ______ ____
ROOT
ATOM      1  C   UNL     1       3.111  -1.267   0.266  0.00  0.00    +0.281 A 
ATOM      2  C   UNL     1       2.467  -2.488   0.089  0.00  0.00    +0.063 A 
ATOM      3  C   UNL     1       1.114  -2.889  -0.288  0.00  0.00    +0.019 C 
ATOM      4  C   UNL     1       1.012  -4.226  -0.313  0.00  0.00    +0.052 C 
ATOM      5  C   UNL     1       2.322  -4.790   0.054  0.00  0.00    +0.187 C 
ATOM      6  O   UNL     1       2.605  -5.965   0.138  0.00  0.00    -0.287 OA
ATOM      7  C   UNL     1       3.205  -3.654   0.297  0.00  0.00    +0.035 A 
ATOM      8  C   UNL     1       4.540  -3.679   0.668  0.00  0.00    +0.013 A 
ATOM      9  C   UNL     1       5.178  -2.454   0.842  0.00  0.00    +0.007 A 
ATOM     10  C   UNL     1       4.473  -1.255   0.644  0.00  0.00    +0.085 A 
ENDROOT
BRANCH   1  12
ATOM     11  O   UNL     1       3.086   1.049   0.259  0.00  0.00    -0.576 OA
ATOM     12  N   UNL     1       2.426   0.017   0.074  0.00  0.00    +0.080 N 
ATOM     13  O   UNL     1       1.234   0.008  -0.259  0.00  0.00    +0.041 OA
ENDBRANCH   1  12
TORSDOF 1
