REMARK  Name = 
REMARK  3 active torsions:
REMARK  status: ('A' for Active; 'I' for Inactive)
REMARK    1  A    between atoms: O_1  and  C_2
REMARK    2  A    between atoms: C_2  and  C_4
REMARK    3  A    between atoms: C_5  and  O_6
REMARK                            x       y       z     vdW  Elec       q    Type
REMARK                         _______ _______ _______ _____ _____    ______ ____
ROOT
ATOM      1  C   UNL     1       3.095  -1.076  -0.712  0.00  0.00    +0.102 A 
ATOM      2  C   UNL     1       2.642  -2.371  -0.425  0.00  0.00    +0.033 A 
ATOM      3  C   UNL     1       3.285  -3.468  -0.999  0.00  0.00    +0.015 A 
ATOM      4  I   UNL     1       2.608  -5.389  -0.582  0.00  0.00    -0.044 I 
ATOM      5  C   UNL     1       4.380  -3.289  -1.844  0.00  0.00    +0.032 A 
ATOM      6  C   UNL     1       4.850  -1.998  -2.107  0.00  0.00    +0.057 A 
ATOM      7  I   UNL     1       6.514  -1.802  -3.364  0.00  0.00    -0.040 I 
ATOM      8  C   UNL     1       4.221  -0.887  -1.532  0.00  0.00    +0.144 A 
ENDROOT
BRANCH   1   9
ATOM      9  C   UNL     1       2.424   0.105  -0.126  0.00  0.00    +0.340 C 
ATOM     10  O   UNL     1       3.045   1.123   0.137  0.00  0.00    -0.245 OA
BRANCH   9  11
ATOM     11  O   UNL     1       1.090  -0.012   0.015  0.00  0.00    -0.477 OA
ATOM     12  H   UNL     1       0.680  -0.774  -0.434  0.00  0.00    +0.295 HD
ENDBRANCH   9  11
ENDBRANCH   1   9
BRANCH   8  13
ATOM     13  O   UNL     1       4.719   0.365  -1.787  0.00  0.00    -0.505 OA
ATOM     14  H   UNL     1       4.342   1.008  -1.145  0.00  0.00    +0.292 HD
ENDBRANCH   8  13
TORSDOF 3
