REMARK  Name = 
REMARK  15 active torsions:
REMARK  status: ('A' for Active; 'I' for Inactive)
REMARK    1  A    between atoms: C_1  and  N_2
REMARK    2  A    between atoms: N_2  and  C_3
REMARK    3  A    between atoms: C_5  and  O_7
REMARK    4  A    between atoms: C_8  and  O_10
REMARK    5  A    between atoms: O_10  and  C_11
REMARK    6  A    between atoms: C_13  and  N_15
REMARK    7  A    between atoms: C_17  and  N_19
REMARK    8  A    between atoms: C_20  and  O_22
REMARK    9  A    between atoms: O_22  and  C_23
REMARK   10  A    between atoms: C_26  and  C_28
REMARK   11  A    between atoms: C_28  and  N_29
REMARK   12  A    between atoms: C_32  and  N_34
REMARK   13  A    between atoms: C_35  and  O_37
REMARK   14  A    between atoms: C_40  and  C_41
REMARK   15  A    between atoms: C_40  and  O_42
REMARK                            x       y       z     vdW  Elec       q    Type
REMARK                         _______ _______ _______ _____ _____    ______ ____
ROOT
ATOM      1  C   UNL     1       2.798  -2.958  -2.416  0.00  0.00    +0.169 C 
ATOM      2  C   UNL     1       2.163  -2.123  -3.558  0.00  0.00    +0.175 C 
ATOM      3  C   UNL     1       0.618  -2.023  -3.419  0.00  0.00    +0.169 C 
ATOM      4  C   UNL     1      -0.013  -3.439  -3.476  0.00  0.00    +0.084 C 
ATOM      5  C   UNL     1       0.604  -4.345  -2.396  0.00  0.00    +0.042 C 
ATOM      6  C   UNL     1       2.146  -4.380  -2.340  0.00  0.00    +0.084 C 
ENDROOT
BRANCH   4   7
ATOM      7  N   UNL     1       0.073  -4.005  -4.834  0.00  0.00    -0.325 NA
ATOM      8  H   UNL     1       1.053  -4.048  -5.120  0.00  0.00    +0.119 HD
ATOM      9  H   UNL     1      -0.284  -4.958  -4.844  0.00  0.00    +0.119 HD
ENDBRANCH   4   7
BRANCH   6  10
ATOM     10  N   UNL     1       2.689  -5.281  -3.376  0.00  0.00    -0.325 NA
ATOM     11  H   UNL     1       2.062  -6.064  -3.543  0.00  0.00    +0.119 HD
ATOM     12  H   UNL     1       2.784  -4.767  -4.255  0.00  0.00    +0.119 HD
ENDBRANCH   6  10
BRANCH   2  13
ATOM     13  O   UNL     1       2.530  -2.687  -4.835  0.00  0.00    -0.387 OA
ATOM     14  H   UNL     1       2.191  -2.073  -5.513  0.00  0.00    +0.210 HD
ENDBRANCH   2  13
BRANCH   1  15
ATOM     15  O   UNL     1       2.752  -2.329  -1.115  0.00  0.00    -0.341 OA
BRANCH  15  21
ATOM     16  C   UNL     1       5.614  -1.746  -0.301  0.00  0.00    +0.121 C 
ATOM     17  C   UNL     1       5.251  -1.184   1.119  0.00  0.00    +0.104 C 
ATOM     18  C   UNL     1       5.882  -1.977   2.266  0.00  0.00    +0.045 C 
ATOM     19  C   UNL     1       3.720  -1.149   1.310  0.00  0.00    +0.199 C 
ATOM     20  O   UNL     1       3.071  -0.429   0.261  0.00  0.00    -0.346 OA
ATOM     21  C   UNL     1       3.314  -1.006  -1.035  0.00  0.00    +0.281 C 
ATOM     22  C   UNL     1       4.833  -0.895  -1.343  0.00  0.00    +0.190 C 
BRANCH  16  24
ATOM     23  C   UNL     1       7.608  -2.400  -1.639  0.00  0.00    +0.101 C 
ATOM     24  N   UNL     1       7.086  -1.753  -0.459  0.00  0.00    -0.311 NA
ATOM     25  H   UNL     1       7.468  -0.820  -0.307  0.00  0.00    +0.122 HD
ENDBRANCH  16  24
BRANCH  17  26
ATOM     26  O   UNL     1       5.764   0.168   1.221  0.00  0.00    -0.385 OA
ATOM     27  H   UNL     1       5.058   0.773   0.929  0.00  0.00    +0.210 HD
ENDBRANCH  17  26
BRANCH  22  28
ATOM     28  O   UNL     1       5.112  -1.223  -2.705  0.00  0.00    -0.385 OA
ATOM     29  H   UNL     1       5.956  -0.797  -2.929  0.00  0.00    +0.210 HD
ENDBRANCH  22  28
ENDBRANCH  15  21
ENDBRANCH   1  15
BRANCH   3  30
ATOM     30  O   UNL     1       0.309  -1.245  -2.253  0.00  0.00    -0.342 OA
BRANCH  30  31
ATOM     31  C   UNL     1      -1.058  -1.138  -1.840  0.00  0.00    +0.268 C 
ATOM     32  C   UNL     1      -1.964  -0.214  -2.728  0.00  0.00    +0.107 C 
ATOM     33  C   UNL     1      -1.598   1.259  -2.530  0.00  0.00    +0.026 C 
ATOM     34  C   UNL     1      -1.611   1.599  -1.047  0.00  0.00    +0.034 C 
ATOM     35  C   UNL     1      -0.649   0.666  -0.313  0.00  0.00    +0.135 C 
ATOM     36  O   UNL     1      -1.095  -0.688  -0.468  0.00  0.00    -0.345 OA
BRANCH  32  37
ATOM     37  N   UNL     1      -1.997  -0.502  -4.169  0.00  0.00    -0.323 NA
ATOM     38  H   UNL     1      -2.738   0.047  -4.604  0.00  0.00    +0.119 HD
ATOM     39  H   UNL     1      -1.141  -0.156  -4.599  0.00  0.00    +0.119 HD
ENDBRANCH  32  37
BRANCH  35  40
ATOM     40  C   UNL     1      -0.550   1.009   1.187  0.00  0.00    +0.109 C 
BRANCH  40  41
ATOM     41  N   UNL     1      -0.034   2.363   1.422  0.00  0.00    -0.328 NA
ATOM     42  H   UNL     1       0.335   2.416   2.371  0.00  0.00    +0.118 HD
ATOM     43  H   UNL     1       0.760   2.534   0.804  0.00  0.00    +0.118 HD
ENDBRANCH  40  41
ENDBRANCH  35  40
ENDBRANCH  30  31
ENDBRANCH   3  30
TORSDOF 13
