REMARK  Name = 
REMARK  31 active torsions:
REMARK  status: ('A' for Active; 'I' for Inactive)
REMARK    1  A    between atoms: C_1  and  C_2
REMARK    2  A    between atoms: C_2  and  C_3
REMARK    3  A    between atoms: C_3  and  C_4
REMARK    4  A    between atoms: C_4  and  C_5
REMARK    5  A    between atoms: C_5  and  C_6
REMARK    6  A    between atoms: C_6  and  C_7
REMARK    7  A    between atoms: C_7  and  C_8
REMARK    8  A    between atoms: C_8  and  C_9
REMARK    9  A    between atoms: C_9  and  C_10
REMARK   10  A    between atoms: C_10  and  C_11
REMARK   11  A    between atoms: C_11  and  C_12
REMARK   12  A    between atoms: C_12  and  C_13
REMARK   13  A    between atoms: C_13  and  C_14
REMARK   14  A    between atoms: C_14  and  C_15
REMARK   15  A    between atoms: C_15  and  C_16
REMARK   16  A    between atoms: C_16  and  C_17
REMARK   17  A    between atoms: C_17  and  C_18
REMARK   18  A    between atoms: C_18  and  O_19
REMARK   19  A    between atoms: O_19  and  C_20
REMARK   20  A    between atoms: C_20  and  C_21
REMARK   21  A    between atoms: C_21  and  C_23
REMARK   22  A    between atoms: C_21  and  N_33
REMARK   23  A    between atoms: C_23  and  O_24
REMARK   24  A    between atoms: O_24  and  P_25
REMARK   25  A    between atoms: P_25  and  O_26
REMARK   26  A    between atoms: P_25  and  O_28
REMARK   27  A    between atoms: O_28  and  C_29
REMARK   28  A    between atoms: C_29  and  C_30
REMARK   29  A    between atoms: C_30  and  S_31
REMARK   30  A    between atoms: S_31  and  C_32
REMARK   31  A    between atoms: C_34  and  C_35
REMARK                            x       y       z     vdW  Elec       q    Type
REMARK                         _______ _______ _______ _____ _____    ______ ____
ROOT
ATOM      1  O   UNL     1      24.191  -7.012 -11.704  0.00  0.00    -0.378 OA
ENDROOT
BRANCH   1   2
ATOM      2  C   UNL     1      24.381  -5.611 -11.519  0.00  0.00    +0.184 C 
BRANCH   2   3
ATOM      3  C   UNL     1      25.888  -5.268 -11.506  0.00  0.00    +0.125 C 
BRANCH   3   4
ATOM      4  N   UNL     1      26.085  -3.817 -11.403  0.00  0.00    -0.308 N 
ATOM      5  H   UNL     1      26.658  -3.368 -12.108  0.00  0.00    +0.149 HD
ATOM      6  C   UNL     1      25.747  -3.123 -10.263  0.00  0.00    +0.210 C 
ATOM      7  O   UNL     1      25.221  -3.640  -9.282  0.00  0.00    -0.276 OA
ATOM      8  C   UNL     1      26.003  -1.645 -10.338  0.00  0.00    +0.109 C 
ENDBRANCH   3   4
BRANCH   3   9
ATOM      9  C   UNL     1      26.566  -5.835 -12.767  0.00  0.00    +0.197 C 
BRANCH   9  10
ATOM     10  O   UNL     1      27.975  -5.583 -12.775  0.00  0.00    -0.285 OA
BRANCH  10  11
ATOM     11  P   UNL     1      28.738  -6.111 -14.136  0.00  0.00    +0.475 P 
ATOM     12  O   UNL     1      30.221  -5.756 -14.034  0.00  0.00    -0.227 OA
BRANCH  11  13
ATOM     13  O   UNL     1      29.115  -7.601 -13.342  0.00  0.00    -0.302 OA
ATOM     14  H   UNL     1      30.036  -7.442 -13.044  0.00  0.00    +0.222 HD
ENDBRANCH  11  13
BRANCH  11  15
ATOM     15  O   UNL     1      28.361  -4.620 -14.929  0.00  0.00    -0.286 OA
BRANCH  15  16
ATOM     16  C   UNL     1      28.511  -4.700 -16.348  0.00  0.00    +0.183 C 
BRANCH  16  17
ATOM     17  C   UNL     1      27.580  -5.743 -16.981  0.00  0.00    +0.097 C 
BRANCH  17  18
ATOM     18  S   UNL     1      25.830  -5.339 -16.659  0.00  0.00    -0.162 S 
ATOM     19  C   UNL     1      25.054  -6.801 -17.387  0.00  0.00    +0.084 C 
ENDBRANCH  17  18
ENDBRANCH  16  17
ENDBRANCH  15  16
ENDBRANCH  11  15
ENDBRANCH  10  11
ENDBRANCH   9  10
ENDBRANCH   3   9
ENDBRANCH   2   3
ENDBRANCH   1   2
BRANCH   1  20
ATOM     20  C   UNL     1      22.814  -7.380 -11.618  0.00  0.00    +0.160 C 
BRANCH  20  21
ATOM     21  C   UNL     1      22.725  -8.899 -11.662  0.00  0.00    +0.028 C 
BRANCH  21  22
ATOM     22  C   UNL     1      23.439  -9.518 -10.462  0.00  0.00    +0.002 C 
BRANCH  22  23
ATOM     23  C   UNL     1      23.398 -11.039 -10.510  0.00  0.00    +0.000 C 
BRANCH  23  24
ATOM     24  C   UNL     1      24.127 -11.616  -9.302  0.00  0.00    +0.000 C 
BRANCH  24  25
ATOM     25  C   UNL     1      24.105 -13.137  -9.328  0.00  0.00    +0.000 C 
BRANCH  25  26
ATOM     26  C   UNL     1      24.831 -13.695  -8.112  0.00  0.00    -0.000 C 
BRANCH  26  27
ATOM     27  C   UNL     1      24.808 -15.217  -8.131  0.00  0.00    -0.000 C 
BRANCH  27  28
ATOM     28  C   UNL     1      25.533 -15.775  -6.914  0.00  0.00    -0.000 C 
BRANCH  28  29
ATOM     29  C   UNL     1      25.509 -17.297  -6.935  0.00  0.00    -0.000 C 
BRANCH  29  30
ATOM     30  C   UNL     1      26.233 -17.859  -5.720  0.00  0.00    -0.000 C 
BRANCH  30  31
ATOM     31  C   UNL     1      26.209 -19.381  -5.741  0.00  0.00    -0.000 C 
BRANCH  31  32
ATOM     32  C   UNL     1      26.933 -19.946  -4.528  0.00  0.00    -0.000 C 
BRANCH  32  33
ATOM     33  C   UNL     1      26.911 -21.468  -4.547  0.00  0.00    -0.000 C 
BRANCH  33  34
ATOM     34  C   UNL     1      27.636 -22.037  -3.331  0.00  0.00    -0.000 C 
BRANCH  34  35
ATOM     35  C   UNL     1      27.615 -23.562  -3.351  0.00  0.00    -0.000 C 
BRANCH  35  37
ATOM     36  C   UNL     1      28.319 -25.655  -2.156  0.00  0.00    +0.004 C 
ATOM     37  C   UNL     1      28.339 -24.137  -2.137  0.00  0.00    -0.003 C 
ENDBRANCH  35  37
ENDBRANCH  34  35
ENDBRANCH  33  34
ENDBRANCH  32  33
ENDBRANCH  31  32
ENDBRANCH  30  31
ENDBRANCH  29  30
ENDBRANCH  28  29
ENDBRANCH  27  28
ENDBRANCH  26  27
ENDBRANCH  25  26
ENDBRANCH  24  25
ENDBRANCH  23  24
ENDBRANCH  22  23
ENDBRANCH  21  22
ENDBRANCH  20  21
ENDBRANCH   1  20
TORSDOF 28
