REMARK  Name = 
REMARK  15 active torsions:
REMARK  status: ('A' for Active; 'I' for Inactive)
REMARK    1  A    between atoms: C_1  and  C_2
REMARK    2  A    between atoms: C_2  and  C_3
REMARK    3  A    between atoms: C_3  and  C_5
REMARK    4  A    between atoms: C_3  and  C_6
REMARK    5  A    between atoms: C_7  and  O_8
REMARK    6  A    between atoms: C_10  and  O_11
REMARK    7  A    between atoms: C_15  and  C_20
REMARK    8  A    between atoms: C_20  and  O_22
REMARK    9  A    between atoms: C_20  and  C_24
REMARK   10  A    between atoms: O_22  and  C_23
REMARK   11  A    between atoms: C_24  and  C_26
REMARK   12  A    between atoms: C_26  and  O_28
REMARK   13  A    between atoms: C_26  and  C_29
REMARK   14  A    between atoms: C_29  and  C_31
REMARK   15  A    between atoms: C_29  and  O_32
REMARK                            x       y       z     vdW  Elec       q    Type
REMARK                         _______ _______ _______ _____ _____    ______ ____
ROOT
ATOM      1  C   UNL     1       4.507   0.366   1.396  0.00  0.00    -0.002 A 
ATOM      2  C   UNL     1       5.238  -0.787   1.711  0.00  0.00    +0.008 A 
ATOM      3  C   UNL     1       6.627  -0.763   1.788  0.00  0.00    +0.009 A 
ATOM      4  C   UNL     1       7.344   0.405   1.521  0.00  0.00    -0.011 A 
ATOM      5  C   UNL     1       6.667   1.585   1.144  0.00  0.00    +0.066 A 
ATOM      6  C   UNL     1       7.467   2.727   0.834  0.00  0.00    +0.139 A 
ATOM      7  C   UNL     1       8.871   2.692   0.897  0.00  0.00    +0.063 A 
ATOM      8  C   UNL     1       9.721   3.857   0.473  0.00  0.00    +0.167 C 
ATOM      9  O   UNL     1       9.278   4.832  -0.123  0.00  0.00    -0.292 OA
ATOM     10  C   UNL     1      11.209   3.749   0.723  0.00  0.00    +0.086 C 
ATOM     11  C   UNL     1      11.704   2.345   0.367  0.00  0.00    +0.037 C 
ATOM     12  C   UNL     1      11.014   1.369   1.326  0.00  0.00    +0.043 C 
ATOM     13  C   UNL     1       9.512   1.500   1.275  0.00  0.00    -0.032 A 
ATOM     14  C   UNL     1       8.740   0.380   1.607  0.00  0.00    +0.013 A 
ATOM     15  C   UNL     1       5.240   1.530   1.085  0.00  0.00    +0.131 A 
ENDROOT
BRANCH   1  16
ATOM     16  C   UNL     1       2.981   0.316   1.383  0.00  0.00    +0.019 C 
ATOM     17  C   UNL     1       2.403  -0.594   2.480  0.00  0.00    +0.012 C 
BRANCH  16  19
ATOM     18  C   UNL     1       0.973  -0.007  -0.175  0.00  0.00    +0.004 C 
ATOM     19  C   UNL     1       2.486  -0.078  -0.023  0.00  0.00    +0.004 C 
ENDBRANCH  16  19
ENDBRANCH   1  16
BRANCH   6  20
ATOM     20  O   UNL     1       6.856   3.899   0.461  0.00  0.00    -0.505 OA
ATOM     21  H   UNL     1       5.891   3.743   0.461  0.00  0.00    +0.292 HD
ENDBRANCH   6  20
BRANCH  15  22
ATOM     22  O   UNL     1       4.597   2.686   0.694  0.00  0.00    -0.506 OA
ATOM     23  H   UNL     1       3.672   2.489   0.477  0.00  0.00    +0.292 HD
ENDBRANCH  15  22
BRANCH  11  24
ATOM     24  C   UNL     1      11.460   1.988  -1.131  0.00  0.00    +0.190 C 
BRANCH  24  25
ATOM     25  O   UNL     1      11.667   0.602  -1.399  0.00  0.00    -0.372 OA
ATOM     26  C   UNL     1      13.022   0.174  -1.442  0.00  0.00    +0.194 C 
ENDBRANCH  24  25
BRANCH  24  27
ATOM     27  C   UNL     1      12.216   2.927  -2.085  0.00  0.00    +0.193 C 
ATOM     28  O   UNL     1      13.285   3.448  -1.759  0.00  0.00    -0.292 OA
BRANCH  27  29
ATOM     29  C   UNL     1      11.561   3.152  -3.454  0.00  0.00    +0.211 C 
BRANCH  29  30
ATOM     30  C   UNL     1      12.618   3.484  -4.522  0.00  0.00    +0.147 C 
ATOM     31  C   UNL     1      13.617   2.360  -4.755  0.00  0.00    +0.041 C 
BRANCH  30  32
ATOM     32  O   UNL     1      11.947   3.734  -5.767  0.00  0.00    -0.389 OA
ATOM     33  H   UNL     1      11.248   4.383  -5.547  0.00  0.00    +0.210 HD
ENDBRANCH  30  32
ENDBRANCH  29  30
BRANCH  29  34
ATOM     34  O   UNL     1      10.627   4.238  -3.435  0.00  0.00    -0.382 OA
ATOM     35  H   UNL     1       9.900   4.036  -2.817  0.00  0.00    +0.210 HD
ENDBRANCH  29  34
ENDBRANCH  27  29
ENDBRANCH  24  27
ENDBRANCH  11  24
TORSDOF 11
