REMARK  Name = 
REMARK  9 active torsions:
REMARK  status: ('A' for Active; 'I' for Inactive)
REMARK    1  A    between atoms: O_1  and  C_2
REMARK    2  A    between atoms: C_2  and  C_4
REMARK    3  A    between atoms: C_5  and  C_29
REMARK    4  A    between atoms: C_7  and  O_8
REMARK    5  A    between atoms: O_8  and  C_9
REMARK    6  A    between atoms: C_10  and  N_11
REMARK    7  A    between atoms: C_12  and  C_14
REMARK    8  A    between atoms: C_16  and  N_20
REMARK    9  A    between atoms: C_29  and  O_30
REMARK                            x       y       z     vdW  Elec       q    Type
REMARK                         _______ _______ _______ _____ _____    ______ ____
ROOT
ATOM      1  C   UNL     1       6.255  -3.719   3.411  0.00  0.00    +0.150 A 
ATOM      2  C   UNL     1       6.930  -4.879   3.864  0.00  0.00    +0.048 A 
ATOM      3  C   UNL     1       8.178  -4.810   4.477  0.00  0.00    +0.004 A 
ATOM      4  C   UNL     1       8.735  -3.572   4.738  0.00  0.00    +0.002 A 
ATOM      5  C   UNL     1       8.058  -2.412   4.358  0.00  0.00    +0.027 A 
ATOM      6  C   UNL     1       6.820  -2.449   3.671  0.00  0.00    +0.076 A 
ENDROOT
BRANCH   6   7
ATOM      7  N   UNL     1       6.328  -1.156   3.316  0.00  0.00    -0.279 N 
ATOM      8  H   UNL     1       6.934  -0.402   3.607  0.00  0.00    +0.155 HD
ATOM      9  C   UNL     1       5.167  -0.795   2.663  0.00  0.00    +0.249 C 
ATOM     10  O   UNL     1       4.277  -1.557   2.305  0.00  0.00    -0.270 OA
BRANCH   9  11
ATOM     11  C   UNL     1       4.944   0.675   2.383  0.00  0.00    +0.043 A 
ATOM     12  C   UNL     1       3.698   1.013   1.818  0.00  0.00    +0.013 A 
ATOM     13  C   UNL     1       3.349   2.331   1.527  0.00  0.00    +0.007 A 
ATOM     14  C   UNL     1       4.242   3.359   1.806  0.00  0.00    +0.084 A 
ATOM     15  C   UNL     1       5.491   3.049   2.361  0.00  0.00    +0.274 A 
ATOM     16  C   UNL     1       5.858   1.715   2.640  0.00  0.00    +0.097 A 
BRANCH  15  17
ATOM     17  N   UNL     1       6.417   4.153   2.660  0.00  0.00    +0.080 N 
ATOM     18  O   UNL     1       6.061   5.304   2.384  0.00  0.00    +0.041 OA
ATOM     19  O   UNL     1       7.504   3.861   3.186  0.00  0.00    -0.576 OA
ENDBRANCH  15  17
ENDBRANCH   9  11
ENDBRANCH   6   7
BRANCH   1  20
ATOM     20  O   UNL     1       5.040  -3.860   2.752  0.00  0.00    -0.454 OA
BRANCH  20  24
ATOM     21  C   UNL     1       4.518  -7.219   0.302  0.00  0.00    +0.073 A 
ATOM     22  C   UNL     1       3.420  -6.634   0.966  0.00  0.00    +0.019 A 
ATOM     23  C   UNL     1       3.604  -5.520   1.799  0.00  0.00    +0.047 A 
ATOM     24  C   UNL     1       4.861  -4.924   1.885  0.00  0.00    +0.129 A 
ATOM     25  C   UNL     1       5.913  -5.454   1.140  0.00  0.00    +0.062 A 
ATOM     26  C   UNL     1       5.802  -6.697   0.500  0.00  0.00    +0.076 A 
BRANCH  21  27
ATOM     27  C   UNL     1       4.271  -8.366  -0.590  0.00  0.00    +0.338 C 
ATOM     28  O   UNL     1       5.009  -9.334  -0.645  0.00  0.00    -0.245 OA
BRANCH  27  29
ATOM     29  O   UNL     1       3.236  -8.183  -1.432  0.00  0.00    -0.477 OA
ATOM     30  H   UNL     1       2.833  -7.292  -1.434  0.00  0.00    +0.295 HD
ENDBRANCH  27  29
ENDBRANCH  21  27
BRANCH  26  31
ATOM     31  C   UNL     1       7.126  -7.373   0.323  0.00  0.00    +0.338 C 
ATOM     32  O   UNL     1       8.081  -7.004   0.997  0.00  0.00    -0.245 OA
BRANCH  31  33
ATOM     33  O   UNL     1       7.270  -8.352  -0.577  0.00  0.00    -0.477 OA
ATOM     34  H   UNL     1       6.468  -8.876  -0.803  0.00  0.00    +0.295 HD
ENDBRANCH  31  33
ENDBRANCH  26  31
ENDBRANCH  20  24
ENDBRANCH   1  20
TORSDOF 9
