REMARK  Name = 
REMARK  11 active torsions:
REMARK  status: ('A' for Active; 'I' for Inactive)
REMARK    1  A    between atoms: O_1  and  C_2
REMARK    2  A    between atoms: C_2  and  C_3
REMARK    3  A    between atoms: C_6  and  O_8
REMARK    4  A    between atoms: O_8  and  C_9
REMARK    5  A    between atoms: C_11  and  O_13
REMARK    6  A    between atoms: C_14  and  O_16
REMARK    7  A    between atoms: C_17  and  O_19
REMARK    8  A    between atoms: C_21  and  C_23
REMARK    9  A    between atoms: C_23  and  O_24
REMARK   10  A    between atoms: C_28  and  O_30
REMARK   11  A    between atoms: C_31  and  O_33
REMARK                            x       y       z     vdW  Elec       q    Type
REMARK                         _______ _______ _______ _____ _____    ______ ____
ROOT
ATOM      1  O   UNL     1       0.668   2.197   0.678  0.00  0.00    -0.340 OA
ENDROOT
BRANCH   1   7
ATOM      2  C   UNL     1       0.544   4.840  -1.289  0.00  0.00    +0.178 C 
ATOM      3  C   UNL     1       1.190   4.244  -2.554  0.00  0.00    +0.177 C 
ATOM      4  C   UNL     1       1.486   2.749  -2.433  0.00  0.00    +0.184 C 
ATOM      5  C   UNL     1       2.238   2.441  -1.157  0.00  0.00    +0.252 C 
ATOM      6  F   UNL     1       3.531   2.877  -1.302  0.00  0.00    -0.237 F 
ATOM      7  C   UNL     1       1.622   3.099   0.083  0.00  0.00    +0.288 C 
ATOM      8  O   UNL     1       1.156   4.432  -0.066  0.00  0.00    -0.340 OA
BRANCH   3   9
ATOM      9  O   UNL     1       2.402   4.983  -2.801  0.00  0.00    -0.386 OA
ATOM     10  H   UNL     1       3.014   4.441  -3.323  0.00  0.00    +0.210 HD
ENDBRANCH   3   9
BRANCH   4  11
ATOM     11  O   UNL     1       0.318   1.944  -2.570  0.00  0.00    -0.386 OA
ATOM     12  H   UNL     1      -0.339   2.245  -1.898  0.00  0.00    +0.210 HD
ENDBRANCH   4  11
BRANCH   2  13
ATOM     13  C   UNL     1      -0.980   4.694  -1.229  0.00  0.00    +0.190 C 
BRANCH  13  14
ATOM     14  O   UNL     1      -1.399   3.336  -1.247  0.00  0.00    -0.392 OA
ATOM     15  H   UNL     1      -2.373   3.351  -1.175  0.00  0.00    +0.210 HD
ENDBRANCH  13  14
ENDBRANCH   2  13
ENDBRANCH   1   7
BRANCH   1  16
ATOM     16  C   UNL     1       0.053   2.662   1.895  0.00  0.00    +0.183 C 
ATOM     17  C   UNL     1       0.903   2.462   3.184  0.00  0.00    +0.178 C 
ATOM     18  O   UNL     1       1.103   1.072   3.494  0.00  0.00    -0.341 OA
ATOM     19  C   UNL     1      -0.109   0.349   3.687  0.00  0.00    +0.279 C 
ATOM     20  C   UNL     1      -0.998   0.386   2.437  0.00  0.00    +0.201 C 
ATOM     21  C   UNL     1      -1.267   1.856   2.048  0.00  0.00    +0.179 C 
BRANCH  19  22
ATOM     22  O   UNL     1      -0.829   0.875   4.800  0.00  0.00    -0.365 OA
ATOM     23  H   UNL     1      -1.130   0.103   5.313  0.00  0.00    +0.213 HD
ENDBRANCH  19  22
BRANCH  20  24
ATOM     24  O   UNL     1      -0.397  -0.347   1.367  0.00  0.00    -0.384 OA
ATOM     25  H   UNL     1       0.326   0.209   1.012  0.00  0.00    +0.210 HD
ENDBRANCH  20  24
BRANCH  21  26
ATOM     26  O   UNL     1      -2.128   2.490   3.008  0.00  0.00    -0.386 OA
ATOM     27  H   UNL     1      -1.837   2.214   3.902  0.00  0.00    +0.210 HD
ENDBRANCH  21  26
BRANCH  17  28
ATOM     28  C   UNL     1       2.292   3.109   3.223  0.00  0.00    +0.190 C 
BRANCH  28  29
ATOM     29  O   UNL     1       2.295   4.468   2.818  0.00  0.00    -0.392 OA
ATOM     30  H   UNL     1       1.721   4.974   3.414  0.00  0.00    +0.210 HD
ENDBRANCH  28  29
ENDBRANCH  17  28
ENDBRANCH   1  16
TORSDOF 11
