REMARK  Name = 
REMARK  5 active torsions:
REMARK  status: ('A' for Active; 'I' for Inactive)
REMARK    1  A    between atoms: C_2  and  O_3
REMARK    2  A    between atoms: C_2  and  C_4
REMARK    3  A    between atoms: C_2  and  C_8
REMARK    4  A    between atoms: C_4  and  N_5
REMARK    5  A    between atoms: C_11  and  N_14
REMARK                            x       y       z     vdW  Elec       q    Type
REMARK                         _______ _______ _______ _____ _____    ______ ____
ROOT
ATOM      1  C   UNL     1       2.565   1.219   0.769  0.00  0.00    -0.017 A 
ATOM      2  C   UNL     1       3.538   1.040   1.768  0.00  0.00    +0.013 A 
ATOM      3  C   UNL     1       3.976   2.117   2.542  0.00  0.00    +0.084 A 
ATOM      4  C   UNL     1       3.433   3.387   2.329  0.00  0.00    +0.273 A 
ATOM      5  C   UNL     1       2.436   3.579   1.366  0.00  0.00    +0.084 A 
ATOM      6  C   UNL     1       2.000   2.495   0.601  0.00  0.00    +0.013 A 
ENDROOT
BRANCH   4   7
ATOM      7  N   UNL     1       3.908   4.531   3.116  0.00  0.00    +0.080 N 
ATOM      8  O   UNL     1       4.780   4.323   3.969  0.00  0.00    +0.041 OA
ATOM      9  O   UNL     1       3.417   5.643   2.868  0.00  0.00    -0.576 OA
ENDBRANCH   4   7
BRANCH   1  10
ATOM     10  C   UNL     1       2.120   0.028  -0.057  0.00  0.00    +0.173 C 
BRANCH  10  11
ATOM     11  O   UNL     1       1.063  -0.599   0.668  0.00  0.00    -0.385 OA
ATOM     12  H   UNL     1       0.223  -0.363   0.241  0.00  0.00    +0.210 HD
ENDBRANCH  10  11
BRANCH  10  13
ATOM     13  C   UNL     1       1.702   0.377  -1.504  0.00  0.00    +0.270 C 
BRANCH  13  14
ATOM     14  N   UNL     1       1.333  -0.841  -2.247  0.00  0.00    +0.079 NA
ATOM     15  N   UNL     1       2.248  -1.374  -2.899  0.00  0.00    -0.015 NA
ATOM     16  N   UNL     1       3.094  -1.852  -3.493  0.00  0.00    -0.328 NA
ENDBRANCH  13  14
ENDBRANCH  10  13
ENDBRANCH   1  10
TORSDOF 5
