REMARK  Name = 
REMARK  11 active torsions:
REMARK  status: ('A' for Active; 'I' for Inactive)
REMARK    1  A    between atoms: O_1  and  C_2
REMARK    2  A    between atoms: C_2  and  C_3
REMARK    3  A    between atoms: C_3  and  C_5
REMARK    4  A    between atoms: C_5  and  O_7
REMARK    5  A    between atoms: C_5  and  C_8
REMARK    6  A    between atoms: C_8  and  O_10
REMARK    7  A    between atoms: C_8  and  C_11
REMARK    8  A    between atoms: C_11  and  O_12
REMARK    9  A    between atoms: O_12  and  P_13
REMARK   10  A    between atoms: P_13  and  O_14
REMARK   11  A    between atoms: P_13  and  O_15
REMARK                            x       y       z     vdW  Elec       q    Type
REMARK                         _______ _______ _______ _____ _____    ______ ____
ROOT
ATOM      1  C   UNL     1       4.577   3.027  -1.087  0.00  0.00    +0.176 C 
ENDROOT
BRANCH   1   2
ATOM      2  O   UNL     1       3.941   3.726  -0.005  0.00  0.00    -0.386 OA
ATOM      3  H   UNL     1       4.492   3.551   0.782  0.00  0.00    +0.210 HD
ENDBRANCH   1   2
BRANCH   1   4
ATOM      4  C   UNL     1       3.861   3.321  -2.416  0.00  0.00    +0.213 C 
BRANCH   4   5
ATOM      5  C   UNL     1       3.769   4.835  -2.652  0.00  0.00    +0.189 C 
ATOM      6  O   UNL     1       4.680   5.459  -3.197  0.00  0.00    -0.292 OA
BRANCH   5   7
ATOM      7  C   UNL     1       2.511   5.531  -2.145  0.00  0.00    +0.232 C 
BRANCH   7   8
ATOM      8  O   UNL     1       1.335   4.947  -2.678  0.00  0.00    -0.387 OA
ATOM      9  H   UNL     1       0.580   5.446  -2.319  0.00  0.00    +0.210 HD
ENDBRANCH   7   8
ENDBRANCH   5   7
ENDBRANCH   4   5
BRANCH   4  10
ATOM     10  O   UNL     1       4.539   2.644  -3.472  0.00  0.00    -0.382 OA
ATOM     11  H   UNL     1       4.089   2.882  -4.302  0.00  0.00    +0.210 HD
ENDBRANCH   4  10
ENDBRANCH   1   4
BRANCH   1  12
ATOM     12  C   UNL     1       6.070   3.374  -1.101  0.00  0.00    +0.206 C 
BRANCH  12  13
ATOM     13  O   UNL     1       6.680   2.865   0.102  0.00  0.00    -0.284 OA
BRANCH  13  14
ATOM     14  P   UNL     1       8.363   3.262   0.137  0.00  0.00    +0.472 P 
ATOM     15  O   UNL     1       9.870   3.618   0.169  0.00  0.00    -0.228 OA
BRANCH  14  16
ATOM     16  O   UNL     1       8.555   1.703  -0.316  0.00  0.00    -0.303 OA
ATOM     17  H   UNL     1       8.405   1.165   0.482  0.00  0.00    +0.222 HD
ENDBRANCH  14  16
BRANCH  14  18
ATOM     18  O   UNL     1       8.251   2.908   1.734  0.00  0.00    -0.303 OA
ATOM     19  H   UNL     1       7.830   3.636   2.224  0.00  0.00    +0.222 HD
ENDBRANCH  14  18
ENDBRANCH  13  14
ENDBRANCH  12  13
ENDBRANCH   1  12
TORSDOF 11
