REMARK  Name = 
REMARK  2 active torsions:
REMARK  status: ('A' for Active; 'I' for Inactive)
REMARK    1  A    between atoms: N_1  and  C_2
REMARK    2  A    between atoms: C_4  and  N_5
REMARK                            x       y       z     vdW  Elec       q    Type
REMARK                         _______ _______ _______ _____ _____    ______ ____
ROOT
ATOM      1  C   UNL     1       2.487  -0.034  -0.072  0.00  0.00    +0.027 A 
ATOM      2  C   UNL     1       3.207   1.159  -0.084  0.00  0.00    +0.037 A 
ATOM      3  C   UNL     1       4.608   1.146  -0.069  0.00  0.00    +0.056 A 
ATOM      4  C   UNL     1       5.307  -0.064  -0.072  0.00  0.00    +0.074 A 
ATOM      5  C   UNL     1       6.792  -0.040  -0.038  0.00  0.00    +0.273 A 
ATOM      6  N   UNL     1       7.402   1.189  -0.116  0.00  0.00    -0.263 N 
ATOM      7  H   UNL     1       8.415   1.213  -0.053  0.00  0.00    +0.190 HD
ATOM      8  N   UNL     1       6.699   2.379  -0.106  0.00  0.00    -0.263 N 
ATOM      9  H   UNL     1       7.208   3.258  -0.108  0.00  0.00    +0.190 HD
ATOM     10  O   UNL     1       7.463  -1.062   0.076  0.00  0.00    -0.266 OA
ATOM     11  C   UNL     1       4.597  -1.281  -0.080  0.00  0.00    +0.040 A 
ATOM     12  C   UNL     1       5.330   2.434  -0.071  0.00  0.00    +0.271 A 
ATOM     13  O   UNL     1       4.736   3.506  -0.039  0.00  0.00    -0.266 OA
ATOM     14  C   UNL     1       3.193  -1.239  -0.135  0.00  0.00    +0.046 A 
ENDROOT
BRANCH   1  15
ATOM     15  N   UNL     1       1.100  -0.019  -0.248  0.00  0.00    -0.358 N 
ATOM     16  H   UNL     1       0.642   0.825   0.084  0.00  0.00    +0.142 HD
ATOM     17  H   UNL     1       0.627  -0.862   0.061  0.00  0.00    +0.142 HD
ENDBRANCH   1  15
BRANCH  11  18
ATOM     18  N   UNL     1       5.228  -2.525  -0.277  0.00  0.00    -0.357 N 
ATOM     19  H   UNL     1       6.224  -2.504  -0.031  0.00  0.00    +0.142 HD
ATOM     20  H   UNL     1       4.743  -3.321   0.124  0.00  0.00    +0.142 HD
ENDBRANCH  11  18
TORSDOF 2
