REMARK  Name = 
REMARK  13 active torsions:
REMARK  status: ('A' for Active; 'I' for Inactive)
REMARK    1  A    between atoms: C_1  and  O_2
REMARK    2  A    between atoms: O_2  and  C_3
REMARK    3  A    between atoms: C_3  and  N_4
REMARK    4  A    between atoms: C_3  and  C_19
REMARK    5  A    between atoms: C_3  and  C_30
REMARK    6  A    between atoms: C_5  and  C_7
REMARK    7  A    between atoms: C_7  and  C_9
REMARK    8  A    between atoms: C_7  and  C_12
REMARK    9  A    between atoms: C_9  and  O_10
REMARK   10  A    between atoms: C_15  and  O_16
REMARK   11  A    between atoms: CA_25  and  C_27
REMARK   12  A    between atoms: C_27  and  O_28
REMARK   13  A    between atoms: C_30  and  O_31
REMARK                            x       y       z     vdW  Elec       q    Type
REMARK                         _______ _______ _______ _____ _____    ______ ____
ROOT
ATOM      1  C   UNL     1       7.237   1.470   0.163  0.00  0.00    +0.282 C 
ENDROOT
BRANCH   1   2
ATOM      2  C   UNL     1       5.967   2.332  -0.311  0.00  0.00    +0.298 C 
ATOM      3  N   UNL     1       6.095   3.731   0.154  0.00  0.00    -0.240 NA
ATOM      4  CA  UNL     1       5.302   4.070   1.117  0.00  0.00    +0.150 C 
ATOM      5  C   UNL     1       4.251   3.213   1.731  0.00  0.00    +0.003 C 
ATOM      6  C   UNL     1       3.416   3.637   2.694  0.00  0.00    +0.017 C 
ATOM      7  C   UNL     1       4.146   1.834   1.163  0.00  0.00    +0.199 C 
ATOM      8  O   UNL     1       4.688   1.728  -0.140  0.00  0.00    -0.346 OA
BRANCH   4   9
ATOM      9  C   UNL     1       5.473   5.534   1.569  0.00  0.00    +0.355 C 
ATOM     10  OXT UNL     1       5.330   5.939   2.703  0.00  0.00    -0.243 OA
BRANCH   9  11
ATOM     11  O   UNL     1       5.839   6.290   0.514  0.00  0.00    -0.476 OA
ATOM     12  H   UNL     1       6.070   5.689  -0.233  0.00  0.00    +0.295 HD
ENDBRANCH   9  11
ENDBRANCH   4   9
ENDBRANCH   1   2
BRANCH   1  13
ATOM     13  N   UNL     1       8.497   2.184  -0.115  0.00  0.00    -0.274 N 
ATOM     14  H   UNL     1       9.173   2.190   0.641  0.00  0.00    +0.152 HD
ATOM     15  C   UNL     1       8.878   2.749  -1.295  0.00  0.00    +0.234 C 
ATOM     16  O   UNL     1       8.213   2.568  -2.317  0.00  0.00    -0.274 OA
BRANCH  15  17
ATOM     17  C   UNL     1      10.136   3.624  -1.286  0.00  0.00    +0.213 C 
BRANCH  17  18
ATOM     18  C   UNL     1       9.758   5.098  -1.350  0.00  0.00    -0.025 A 
ATOM     19  C   UNL     1       9.116   5.729  -0.272  0.00  0.00    +0.008 A 
ATOM     20  C   UNL     1       8.785   7.084  -0.341  0.00  0.00    +0.046 A 
ATOM     21  C   UNL     1       9.090   7.815  -1.481  0.00  0.00    +0.117 A 
ATOM     22  C   UNL     1       9.707   7.208  -2.568  0.00  0.00    +0.046 A 
ATOM     23  C   UNL     1      10.037   5.851  -2.503  0.00  0.00    +0.008 A 
BRANCH  21  24
ATOM     24  O   UNL     1       8.762   9.137  -1.493  0.00  0.00    -0.507 OA
ATOM     25  H   UNL     1       9.095   9.542  -2.310  0.00  0.00    +0.292 HD
ENDBRANCH  21  24
ENDBRANCH  17  18
BRANCH  17  26
ATOM     26  C   UNL     1      11.131   3.321  -0.176  0.00  0.00    +0.321 C 
ATOM     27  O   UNL     1      10.984   2.440   0.657  0.00  0.00    -0.250 OA
BRANCH  26  28
ATOM     28  O   UNL     1      12.247   4.086  -0.186  0.00  0.00    -0.480 OA
ATOM     29  H   UNL     1      12.246   4.807  -0.846  0.00  0.00    +0.295 HD
ENDBRANCH  26  28
ENDBRANCH  17  26
ENDBRANCH  15  17
ENDBRANCH   1  13
BRANCH   1  31
ATOM     30  C   UNL     1       8.168   0.580   2.245  0.00  0.00    +0.197 C 
ATOM     31  O   UNL     1       7.169   1.366   1.598  0.00  0.00    -0.347 OA
ENDBRANCH   1  31
BRANCH   1  32
ATOM     32  C   UNL     1       7.173   0.099  -0.612  0.00  0.00    +0.361 C 
ATOM     33  O   UNL     1       6.905  -0.978  -0.092  0.00  0.00    -0.246 OA
BRANCH  32  34
ATOM     34  O   UNL     1       7.426   0.165  -1.946  0.00  0.00    -0.477 OA
ATOM     35  H   UNL     1       7.604   1.074  -2.291  0.00  0.00    +0.295 HD
ENDBRANCH  32  34
ENDBRANCH   1  32
TORSDOF 12
