REMARK  Name = 
REMARK  13 active torsions:
REMARK  status: ('A' for Active; 'I' for Inactive)
REMARK    1  A    between atoms: CB_1  and  CA_2
REMARK    2  A    between atoms: CA_2  and  N_4
REMARK    3  A    between atoms: CA_2  and  C_20
REMARK    4  A    between atoms: N_4  and  C_5
REMARK    5  A    between atoms: C_5  and  C_6
REMARK    6  A    between atoms: C_7  and  O_8
REMARK    7  A    between atoms: C_9  and  C_10
REMARK    8  A    between atoms: C_13  and  C_14
REMARK    9  A    between atoms: C_14  and  O_15
REMARK   10  A    between atoms: O_15  and  P_16
REMARK   11  A    between atoms: P_16  and  O_17
REMARK   12  A    between atoms: P_16  and  O_18
REMARK   13  A    between atoms: C_20  and  O_21
REMARK                            x       y       z     vdW  Elec       q    Type
REMARK                         _______ _______ _______ _____ _____    ______ ____
ROOT
ATOM      1  C   UNK A   0       2.942  -0.428   3.723  0.00  0.00    +0.016 A 
ATOM      2  C   UNK A   0       2.724  -1.829   3.782  0.00  0.00    +0.005 A 
ATOM      3  C   UNK A   0       3.141  -2.501   4.935  0.00  0.00    +0.117 A 
ATOM      4  N   UNK A   0       3.727  -1.922   6.001  0.00  0.00    -0.256 NA
ATOM      5  C   UNK A   0       3.938  -0.588   5.944  0.00  0.00    +0.080 A 
ATOM      6  C   UNK A   0       4.530   0.018   7.181  0.00  0.00    +0.069 C 
ATOM      7  C   UNK A   0       3.575   0.180   4.830  0.00  0.00    +0.142 A 
ENDROOT
BRANCH   7   8
ATOM      8  O   UNK A   0       3.835   1.525   4.880  0.00  0.00    -0.505 OA
ATOM      9  H   UNK A   0       3.584   1.957   4.052  0.00  0.00    +0.292 HD
ENDBRANCH   7   8
BRANCH   1  10
ATOM     10  C   UNK A   0       2.470   0.417   2.553  0.00  0.00    +0.121 C 
BRANCH  10  11
ATOM     11  N   ALA A   1       3.580   0.899   1.723  0.00  0.00    -0.300 NA
ATOM     12  H   ALA A   1       4.277   1.388   2.285  0.00  0.00    +0.123 HD
BRANCH  11  14
ATOM     13  CB  ALA A   1       2.445   0.999  -0.506  0.00  0.00    +0.036 C 
ATOM     14  CA  ALA A   1       3.134   1.775   0.610  0.00  0.00    +0.160 C 
BRANCH  14  15
ATOM     15  C   ALA A   1       4.366   2.535   0.095  0.00  0.00    +0.322 C 
ATOM     16  OXT ALA A   1       4.830   3.541   0.618  0.00  0.00    -0.249 OA
BRANCH  15  17
ATOM     17  O   ALA A   1       5.023   1.930  -0.908  0.00  0.00    -0.480 OA
ATOM     18  H   ALA A   1       5.853   2.440  -1.006  0.00  0.00    +0.295 HD
ENDBRANCH  15  17
ENDBRANCH  14  15
ENDBRANCH  11  14
ENDBRANCH  10  11
ENDBRANCH   1  10
BRANCH   2  19
ATOM     19  C   UNK A   0       2.001  -2.663   2.747  0.00  0.00    +0.209 C 
BRANCH  19  20
ATOM     20  O   UNK A   0       2.411  -2.306   1.449  0.00  0.00    -0.282 OA
BRANCH  20  21
ATOM     21  P   UNK A   0       1.700  -3.180   0.136  0.00  0.00    +0.473 P 
ATOM     22  O   UNK A   0       1.063  -3.962  -1.039  0.00  0.00    -0.228 OA
BRANCH  21  23
ATOM     23  O   UNK A   0       2.602  -4.465   0.592  0.00  0.00    -0.303 OA
ATOM     24  H   UNK A   0       2.853  -4.919  -0.237  0.00  0.00    +0.222 HD
ENDBRANCH  21  23
BRANCH  21  25
ATOM     25  O   UNK A   0       2.905  -2.496  -0.730  0.00  0.00    -0.303 OA
ATOM     26  H   UNK A   0       3.677  -2.406  -0.138  0.00  0.00    +0.222 HD
ENDBRANCH  21  25
ENDBRANCH  20  21
ENDBRANCH  19  20
ENDBRANCH   2  19
TORSDOF 11
