REMARK  Name = 
REMARK  8 active torsions:
REMARK  status: ('A' for Active; 'I' for Inactive)
REMARK    1  A    between atoms: O_1  and  C_2
REMARK    2  A    between atoms: C_5  and  C_7
REMARK    3  A    between atoms: C_7  and  O_8
REMARK    4  A    between atoms: O_8  and  P_9
REMARK    5  A    between atoms: P_9  and  O_10
REMARK    6  A    between atoms: P_9  and  O_11
REMARK    7  A    between atoms: C_13  and  O_15
REMARK    8  A    between atoms: C_16  and  O_18
REMARK                            x       y       z     vdW  Elec       q    Type
REMARK                         _______ _______ _______ _____ _____    ______ ____
ROOT
ATOM      1  C   UNL     1       2.336   0.034   0.186  0.00  0.00    +0.279 C 
ATOM      2  C   UNL     1       2.900  -1.306   0.678  0.00  0.00    +0.201 C 
ATOM      3  C   UNL     1       4.111  -0.920   1.524  0.00  0.00    +0.179 C 
ATOM      4  C   UNL     1       4.265   0.588   1.319  0.00  0.00    +0.179 C 
ATOM      5  O   UNL     1       2.948   1.058   0.963  0.00  0.00    -0.341 OA
ENDROOT
BRANCH   1   6
ATOM      6  O   UNL     1       0.934   0.105   0.369  0.00  0.00    -0.365 OA
ATOM      7  H   UNL     1       0.673   0.938  -0.055  0.00  0.00    +0.213 HD
ENDBRANCH   1   6
BRANCH   2   8
ATOM      8  O   UNL     1       3.305  -2.127  -0.421  0.00  0.00    -0.384 OA
ATOM      9  H   UNL     1       3.422  -3.027  -0.063  0.00  0.00    +0.210 HD
ENDBRANCH   2   8
BRANCH   3  10
ATOM     10  O   UNL     1       3.841  -1.214   2.900  0.00  0.00    -0.386 OA
ATOM     11  H   UNL     1       3.119  -0.629   3.194  0.00  0.00    +0.210 HD
ENDBRANCH   3  10
BRANCH   4  12
ATOM     12  C   UNL     1       5.258   0.927   0.200  0.00  0.00    +0.206 C 
BRANCH  12  13
ATOM     13  O   UNL     1       5.335   2.345   0.063  0.00  0.00    -0.284 OA
BRANCH  13  14
ATOM     14  P   UNL     1       6.391   2.885  -1.196  0.00  0.00    +0.472 P 
ATOM     15  O   UNL     1       7.336   3.368  -2.323  0.00  0.00    -0.228 OA
BRANCH  14  16
ATOM     16  O   UNL     1       7.644   2.444  -0.246  0.00  0.00    -0.303 OA
ATOM     17  H   UNL     1       8.411   2.946  -0.588  0.00  0.00    +0.222 HD
ENDBRANCH  14  16
BRANCH  14  18
ATOM     18  O   UNL     1       6.159   4.385  -0.577  0.00  0.00    -0.303 OA
ATOM     19  H   UNL     1       5.371   4.808  -0.959  0.00  0.00    +0.222 HD
ENDBRANCH  14  18
ENDBRANCH  13  14
ENDBRANCH  12  13
ENDBRANCH   4  12
TORSDOF 8
