REMARK  Name = 
REMARK  9 active torsions:
REMARK  status: ('A' for Active; 'I' for Inactive)
REMARK    1  A    between atoms: O_2  and  C_3
REMARK    2  A    between atoms: C_3  and  C_5
REMARK    3  A    between atoms: C_5  and  C_6
REMARK    4  A    between atoms: C_6  and  C_7
REMARK    5  A    between atoms: C_7  and  C_8
REMARK    6  A    between atoms: C_8  and  C_9
REMARK    7  A    between atoms: C_9  and  C_10
REMARK    8  A    between atoms: C_10  and  N_11
REMARK    9  A    between atoms: N_11  and  C_14
REMARK                            x       y       z     vdW  Elec       q    Type
REMARK                         _______ _______ _______ _____ _____    ______ ____
ROOT
ATOM      1 CL   UNL     1      -0.452  -1.295  -0.188  0.00  0.00    +0.000 Cl
ENDROOT
TORSDOF 0
REMARK  Name = 
REMARK  9 active torsions:
REMARK  status: ('A' for Active; 'I' for Inactive)
REMARK    1  A    between atoms: O_2  and  C_3
REMARK    2  A    between atoms: C_3  and  C_5
REMARK    3  A    between atoms: C_5  and  C_6
REMARK    4  A    between atoms: C_6  and  C_7
REMARK    5  A    between atoms: C_7  and  C_8
REMARK    6  A    between atoms: C_8  and  C_9
REMARK    7  A    between atoms: C_9  and  C_10
REMARK    8  A    between atoms: C_10  and  N_11
REMARK    9  A    between atoms: N_11  and  C_14
REMARK                            x       y       z     vdW  Elec       q    Type
REMARK                         _______ _______ _______ _____ _____    ______ ____
ROOT
ATOM      1  C   UNL     1      11.396   0.761   4.315  0.00  0.00    +0.125 C 
ATOM      2  C   UNL     1      11.895  -0.578   4.875  0.00  0.00    +0.008 A 
ATOM      3  C   UNL     1      13.276  -0.889   4.971  0.00  0.00    -0.038 A 
ATOM      4  C   UNL     1      13.663  -2.152   5.478  0.00  0.00    +0.004 A 
ATOM      5  C   UNL     1      12.731  -3.119   5.833  0.00  0.00    +0.000 A 
ATOM      6  C   UNL     1      11.383  -2.846   5.698  0.00  0.00    +0.000 A 
ATOM      7  C   UNL     1      14.446   0.018   4.614  0.00  0.00    +0.040 C 
ATOM      8  C   UNL     1      14.203   1.266   3.766  0.00  0.00    +0.040 C 
ATOM      9  C   UNL     1      13.403   2.279   4.545  0.00  0.00    -0.038 A 
ATOM     10  C   UNL     1      14.015   3.473   4.958  0.00  0.00    +0.004 A 
ATOM     11  C   UNL     1      13.321   4.387   5.745  0.00  0.00    +0.000 A 
ATOM     12  C   UNL     1      12.031   4.094   6.166  0.00  0.00    +0.000 A 
ATOM     13  C   UNL     1      11.422   2.897   5.781  0.00  0.00    +0.010 A 
ATOM     14  C   UNL     1      10.972  -1.596   5.235  0.00  0.00    +0.010 A 
ATOM     15  C   UNL     1      12.073   1.994   4.916  0.00  0.00    +0.008 A 
ENDROOT
BRANCH   1  16
ATOM     16  N   UNL     1       9.894   0.874   4.294  0.00  0.00    +0.236 N 
ATOM     17  H   UNL     1       9.524   0.014   3.877  0.00  0.00    +0.202 HD
ATOM     18  H   UNL     1       9.565   0.901   5.265  0.00  0.00    +0.202 HD
BRANCH  16  19
ATOM     19  C   UNL     1       9.331   1.995   3.490  0.00  0.00    +0.130 C 
BRANCH  19  20
ATOM     20  C   UNL     1       7.831   1.998   3.700  0.00  0.00    +0.051 C 
BRANCH  20  21
ATOM     21  C   UNL     1       7.206   3.174   2.968  0.00  0.00    +0.005 C 
BRANCH  21  22
ATOM     22  C   UNL     1       5.697   3.168   3.156  0.00  0.00    +0.001 C 
BRANCH  22  23
ATOM     23  C   UNL     1       5.057   4.325   2.402  0.00  0.00    +0.011 C 
BRANCH  23  24
ATOM     24  C   UNL     1       3.544   4.295   2.575  0.00  0.00    +0.120 C 
BRANCH  24  25
ATOM     25  C   UNL     1       2.878   5.344   1.734  0.00  0.00    +0.305 C 
ATOM     26  O   UNL     1       3.414   6.212   1.072  0.00  0.00    -0.251 OA
BRANCH  25  27
ATOM     27  O   UNL     1       1.537   5.235   1.788  0.00  0.00    -0.481 OA
ATOM     28  H   UNL     1       1.195   5.893   1.149  0.00  0.00    +0.295 HD
ENDBRANCH  25  27
ENDBRANCH  24  25
ENDBRANCH  23  24
ENDBRANCH  22  23
ENDBRANCH  21  22
ENDBRANCH  20  21
ENDBRANCH  19  20
ENDBRANCH  16  19
ENDBRANCH   1  16
TORSDOF 9
