REMARK  Name = 
REMARK  32 active torsions:
REMARK  status: ('A' for Active; 'I' for Inactive)
REMARK    1  A    between atoms: C_1  and  C_2
REMARK    2  A    between atoms: C_2  and  C_4
REMARK    3  A    between atoms: C_2  and  C_7
REMARK    4  A    between atoms: C_4  and  O_5
REMARK    5  A    between atoms: C_7  and  S_9
REMARK    6  A    between atoms: S_9  and  C_10
REMARK    7  A    between atoms: C_10  and  C_11
REMARK    8  A    between atoms: C_11  and  N_12
REMARK    9  A    between atoms: C_13  and  C_15
REMARK   10  A    between atoms: C_15  and  C_16
REMARK   11  A    between atoms: C_16  and  N_17
REMARK   12  A    between atoms: C_18  and  C_20
REMARK   13  A    between atoms: C_20  and  O_22
REMARK   14  A    between atoms: C_20  and  C_23
REMARK   15  A    between atoms: C_23  and  C_24
REMARK   16  A    between atoms: C_23  and  C_25
REMARK   17  A    between atoms: C_23  and  C_26
REMARK   18  A    between atoms: C_26  and  O_27
REMARK   19  A    between atoms: O_27  and  P_28
REMARK   20  A    between atoms: P_28  and  O_29
REMARK   21  A    between atoms: P_28  and  O_31
REMARK   22  A    between atoms: O_31  and  P_32
REMARK   23  A    between atoms: P_32  and  O_33
REMARK   24  A    between atoms: P_32  and  O_35
REMARK   25  A    between atoms: O_35  and  C_36
REMARK   26  A    between atoms: C_36  and  C_37
REMARK   27  A    between atoms: C_40  and  N_52
REMARK   28  A    between atoms: C_42  and  O_44
REMARK   29  A    between atoms: C_45  and  O_47
REMARK   30  A    between atoms: O_47  and  P_48
REMARK   31  A    between atoms: P_48  and  O_49
REMARK   32  A    between atoms: P_48  and  O_50
REMARK                            x       y       z     vdW  Elec       q    Type
REMARK                         _______ _______ _______ _____ _____    ______ ____
ROOT
ATOM      1  P   UNL     1      20.345   4.742  24.682  0.00  0.00    +0.483 P 
ATOM      2  O   UNL     1      18.981   5.333  24.815  0.00  0.00    -0.227 OA
ENDROOT
BRANCH   1   3
ATOM      3  O   UNL     1      21.467   5.742  25.236  0.00  0.00    -0.302 OA
ATOM      4  H   UNL     1      21.209   6.149  26.083  0.00  0.00    +0.222 HD
ENDBRANCH   1   3
BRANCH   1   5
ATOM      5  O   UNL     1      20.793   4.347  23.209  0.00  0.00    -0.186 OA
BRANCH   5   6
ATOM      6  P   UNL     1      22.375   3.984  22.610  0.00  0.00    +0.483 P 
ATOM      7  O   UNL     1      21.969   2.526  22.386  0.00  0.00    -0.227 OA
BRANCH   6   8
ATOM      8  O   UNL     1      23.003   3.963  24.112  0.00  0.00    -0.302 OA
ATOM      9  H   UNL     1      22.779   3.091  24.475  0.00  0.00    +0.222 HD
ENDBRANCH   6   8
BRANCH   6  10
ATOM     10  O   UNL     1      23.957   3.622  22.010  0.00  0.00    -0.284 OA
BRANCH  10  11
ATOM     11  C   UNL     1      24.833   4.750  22.083  0.00  0.00    +0.206 C 
BRANCH  11  12
ATOM     12  C   UNL     1      26.230   4.358  21.606  0.00  0.00    +0.179 C 
ATOM     13  C   UNL     1      26.789   3.139  22.335  0.00  0.00    +0.194 C 
ATOM     14  C   UNL     1      26.352   1.941  21.492  0.00  0.00    +0.196 C 
ATOM     15  C   UNL     1      25.789   2.586  20.208  0.00  0.00    +0.253 C 
ATOM     16  O   UNL     1      26.150   3.980  20.218  0.00  0.00    -0.346 OA
BRANCH  15  17
ATOM     17  N   UNL     1      26.148   2.035  18.925  0.00  0.00    -0.286 N 
ATOM     18  C   UNL     1      27.305   1.424  18.540  0.00  0.00    +0.167 A 
ATOM     19  N   UNL     1      28.442   1.267  19.239  0.00  0.00    -0.216 NA
ATOM     20  C   UNL     1      29.342   0.551  18.534  0.00  0.00    +0.225 A 
ATOM     21  N   UNL     1      29.210   0.008  17.306  0.00  0.00    -0.219 NA
ATOM     22  C   UNL     1      28.043   0.187  16.649  0.00  0.00    +0.147 A 
ATOM     23  N   UNL     1      27.889  -0.395  15.401  0.00  0.00    -0.341 N 
ATOM     24  H   UNL     1      27.177   0.047  14.831  0.00  0.00    +0.144 HD
ATOM     25  H   UNL     1      28.774  -0.620  14.966  0.00  0.00    +0.144 HD
ATOM     26  C   UNL     1      27.038   0.949  17.264  0.00  0.00    +0.147 A 
ATOM     27  N   UNL     1      25.780   1.332  16.847  0.00  0.00    -0.231 NA
ATOM     28  C   UNL     1      25.279   2.002  17.857  0.00  0.00    +0.203 A 
ENDBRANCH  15  17
BRANCH  14  29
ATOM     29  O   UNL     1      25.371   1.194  22.229  0.00  0.00    -0.385 OA
ATOM     30  H   UNL     1      25.057   0.467  21.663  0.00  0.00    +0.210 HD
ENDBRANCH  14  29
BRANCH  13  31
ATOM     31  O   UNL     1      28.208   3.240  22.314  0.00  0.00    -0.278 OA
BRANCH  31  32
ATOM     32  P   UNL     1      29.037   2.438  23.417  0.00  0.00    +0.473 P 
ATOM     33  O   UNL     1      28.691   1.003  23.604  0.00  0.00    -0.228 OA
BRANCH  32  34
ATOM     34  O   UNL     1      30.553   2.717  23.025  0.00  0.00    -0.303 OA
ATOM     35  H   UNL     1      30.787   2.284  22.186  0.00  0.00    +0.222 HD
ENDBRANCH  32  34
BRANCH  32  36
ATOM     36  O   UNL     1      28.831   3.307  24.739  0.00  0.00    -0.303 OA
ATOM     37  H   UNL     1      28.290   2.836  25.396  0.00  0.00    +0.222 HD
ENDBRANCH  32  36
ENDBRANCH  31  32
ENDBRANCH  13  31
ENDBRANCH  11  12
ENDBRANCH  10  11
ENDBRANCH   6  10
ENDBRANCH   5   6
ENDBRANCH   1   5
BRANCH   1  38
ATOM     38  O   UNL     1      20.601   3.393  25.511  0.00  0.00    -0.286 OA
BRANCH  38  39
ATOM     39  C   UNL     1      20.223   3.321  26.874  0.00  0.00    +0.181 C 
BRANCH  39  40
ATOM     40  C   UNL     1      20.095   1.838  27.291  0.00  0.00    +0.024 C 
ATOM     41  C   UNL     1      19.814   1.766  28.806  0.00  0.00    +0.016 C 
ATOM     42  C   UNL     1      18.872   1.218  26.575  0.00  0.00    +0.016 C 
BRANCH  40  43
ATOM     43  C   UNL     1      21.377   1.044  26.882  0.00  0.00    +0.208 C 
BRANCH  43  46
ATOM     44  N   UNL     1      23.632   2.077  26.799  0.00  0.00    -0.313 N 
ATOM     45  H   UNL     1      23.606   1.929  25.802  0.00  0.00    +0.149 HD
ATOM     46  C   UNL     1      22.631   1.578  27.606  0.00  0.00    +0.242 C 
ATOM     47  O   UNL     1      22.759   1.536  28.827  0.00  0.00    -0.273 OA
BRANCH  44  48
ATOM     48  C   UNL     1      24.815   2.688  27.382  0.00  0.00    +0.113 C 
BRANCH  48  49
ATOM     49  C   UNL     1      25.694   1.695  28.135  0.00  0.00    +0.114 C 
BRANCH  49  52
ATOM     50  N   UNL     1      28.085   1.803  28.518  0.00  0.00    -0.314 N 
ATOM     51  H   UNL     1      28.120   0.892  28.075  0.00  0.00    +0.149 HD
ATOM     52  C   UNL     1      26.876   2.428  28.717  0.00  0.00    +0.215 C 
ATOM     53  O   UNL     1      26.768   3.495  29.313  0.00  0.00    -0.276 OA
BRANCH  50  54
ATOM     54  C   UNL     1      29.320   2.394  28.999  0.00  0.00    +0.115 C 
BRANCH  54  55
ATOM     55  C   UNL     1      29.464   2.341  30.525  0.00  0.00    +0.096 C 
BRANCH  55  56
ATOM     56  S   UNL     1      31.059   3.077  30.989  0.00  0.00    -0.086 S 
BRANCH  56  57
ATOM     57  C   UNL     1      31.016   2.885  32.740  0.00  0.00    +0.203 C 
ATOM     58  O   UNL     1      30.126   2.263  33.313  0.00  0.00    -0.284 OA
BRANCH  57  60
ATOM     59  C   UNL     1      33.358   2.488  33.443  0.00  0.00    +0.028 C 
ATOM     60  C   UNL     1      32.196   3.477  33.469  0.00  0.00    +0.171 C 
BRANCH  60  61
ATOM     61  C   UNL     1      31.931   3.878  34.901  0.00  0.00    +0.316 C 
ATOM     62  O   UNL     1      32.608   4.727  35.470  0.00  0.00    -0.250 OA
BRANCH  61  63
ATOM     63  O   UNL     1      30.966   3.203  35.556  0.00  0.00    -0.480 OA
ATOM     64  H   UNL     1      30.450   2.566  35.008  0.00  0.00    +0.295 HD
ENDBRANCH  61  63
ENDBRANCH  60  61
ENDBRANCH  57  60
ENDBRANCH  56  57
ENDBRANCH  55  56
ENDBRANCH  54  55
ENDBRANCH  50  54
ENDBRANCH  49  52
ENDBRANCH  48  49
ENDBRANCH  44  48
ENDBRANCH  43  46
BRANCH  43  65
ATOM     65  O   UNL     1      21.214  -0.344  27.173  0.00  0.00    -0.382 OA
ATOM     66  H   UNL     1      22.068  -0.780  27.011  0.00  0.00    +0.210 HD
ENDBRANCH  43  65
ENDBRANCH  40  43
ENDBRANCH  39  40
ENDBRANCH  38  39
ENDBRANCH   1  38
TORSDOF 29
