REMARK  Name = 
REMARK  3 active torsions:
REMARK  status: ('A' for Active; 'I' for Inactive)
REMARK    1  A    between atoms: C_1  and  C_2
REMARK    2  A    between atoms: C_5  and  O_6
REMARK    3  A    between atoms: C_8  and  C_9
REMARK                            x       y       z     vdW  Elec       q    Type
REMARK                         _______ _______ _______ _____ _____    ______ ____
ROOT
ATOM      1  C   UNL     1       1.034  -0.017  -0.012  0.00  0.00    +0.044 C 
ATOM      2  C   UNL     1       2.535  -0.037  -0.119  0.00  0.00    -0.047 A 
ATOM      3  C   UNL     1       3.248  -1.251  -0.202  0.00  0.00    -0.044 A 
ATOM      4  C   UNL     1       2.545  -2.580  -0.183  0.00  0.00    +0.044 C 
ATOM      5  C   UNL     1       4.647  -1.217  -0.321  0.00  0.00    +0.049 A 
ATOM      6  C   UNL     1       5.321  -0.002  -0.356  0.00  0.00    +0.117 A 
ATOM      7  C   UNL     1       4.629   1.198  -0.268  0.00  0.00    +0.045 A 
ATOM      8  C   UNL     1       3.239   1.178  -0.150  0.00  0.00    +0.007 A 
ENDROOT
BRANCH   6   9
ATOM      9  O   UNL     1       6.678  -0.032  -0.486  0.00  0.00    -0.507 OA
ATOM     10  H   UNL     1       7.001   0.882  -0.545  0.00  0.00    +0.292 HD
ENDBRANCH   6   9
TORSDOF 1
