REMARK  Name = 
REMARK  4 active torsions:
REMARK  status: ('A' for Active; 'I' for Inactive)
REMARK    1  A    between atoms: C_4  and  O_6
REMARK    2  A    between atoms: C_7  and  O_9
REMARK    3  A    between atoms: C_10  and  C_11
REMARK    4  A    between atoms: C_23  and  O_24
REMARK                            x       y       z     vdW  Elec       q    Type
REMARK                         _______ _______ _______ _____ _____    ______ ____
ROOT
ATOM      1  C   UNL     1      -0.000  -0.000  -0.000  0.00  0.00    +0.004 C 
ATOM      2  C   UNL     1      -0.000  -0.000  -0.000  0.00  0.00    +0.001 C 
ATOM      3  C   UNL     1      -0.000  -0.000   0.000  0.00  0.00    +0.023 C 
ATOM      4  C   UNL     1      -0.000  -0.000  -0.000  0.00  0.00    -0.041 A 
ATOM      5  C   UNL     1      -0.000  -0.000  -0.000  0.00  0.00    +0.008 A 
ATOM      6  C   UNL     1      -0.000  -0.000   0.000  0.00  0.00    +0.046 A 
ATOM      7  C   UNL     1      -0.000  -0.000  -0.000  0.00  0.00    +0.117 A 
ATOM      8  C   UNL     1      -0.000  -0.000  -0.000  0.00  0.00    +0.049 A 
ATOM      9  C   UNL     1      -0.000  -0.000  -0.000  0.00  0.00    -0.040 A 
ATOM     10  C   UNL     1      -0.000  -0.000  -0.000  0.00  0.00    +0.036 C 
ATOM     11  C   UNL     1      -0.000  -0.000   0.000  0.00  0.00    +0.009 C 
ATOM     12  C   UNL     1      -0.000  -0.000  -0.000  0.00  0.00    +0.010 C 
ATOM     13  C   UNL     1      -0.000  -0.000  -0.000  0.00  0.00    +0.009 C 
ATOM     14  C   UNL     1      -0.000  -0.000   0.000  0.00  0.00    -0.000 C 
ATOM     15  C   UNL     1      -0.000  -0.000  -0.000  0.00  0.00    +0.014 C 
ATOM     16  C   UNL     1      -0.000  -0.000  -0.000  0.00  0.00    +0.149 C 
ATOM     17  C   UNL     1      -0.000  -0.000  -0.000  0.00  0.00    +0.144 C 
ATOM     18  C   UNL     1      -0.000  -0.000  -0.000  0.00  0.00    +0.038 C 
ENDROOT
BRANCH   7  19
ATOM     19  O   UNL     1      -0.000  -0.000  -0.000  0.00  0.00    -0.507 OA
ATOM     20  H   UNL     1       0.000   0.000   0.000  0.00  0.00    +0.292 HD
ENDBRANCH   7  19
BRANCH  16  21
ATOM     21  O   UNL     1      -0.000  -0.000  -0.000  0.00  0.00    -0.389 OA
ATOM     22  H   UNL     1       0.000   0.000   0.000  0.00  0.00    +0.210 HD
ENDBRANCH  16  21
BRANCH  17  23
ATOM     23  O   UNL     1      -0.000  -0.000  -0.000  0.00  0.00    -0.389 OA
ATOM     24  H   UNL     1       0.000   0.000   0.000  0.00  0.00    +0.210 HD
ENDBRANCH  17  23
TORSDOF 3
