REMARK  Name = 
REMARK  5 active torsions:
REMARK  status: ('A' for Active; 'I' for Inactive)
REMARK    1  A    between atoms: C_2  and  O_3
REMARK    2  A    between atoms: N_5  and  C_6
REMARK    3  A    between atoms: C_6  and  C_7
REMARK    4  A    between atoms: C_18  and  S_20
REMARK    5  A    between atoms: S_20  and  N_21
REMARK                            x       y       z     vdW  Elec       q    Type
REMARK                         _______ _______ _______ _____ _____    ______ ____
ROOT
ATOM      1  C   UNL     1       2.044  -0.121   0.108  0.00  0.00    +0.163 C 
ATOM      2  C   UNL     1       2.487  -1.360  -0.621  0.00  0.00    +0.018 A 
ATOM      3  C   UNL     1       2.250  -2.723  -0.251  0.00  0.00    +0.044 A 
ATOM      4  C   UNL     1       2.815  -3.620  -1.142  0.00  0.00    +0.144 A 
ATOM      5  S   UNL     1       3.636  -2.814  -2.415  0.00  0.00    -0.048 S 
ATOM      6  C   UNL     1       3.224  -1.297  -1.785  0.00  0.00    +0.150 A 
ATOM      7  S   UNL     1       3.677   0.163  -2.673  0.00  0.00    +0.068 S 
ATOM      8  O   UNL     1       5.095   0.077  -2.926  0.00  0.00    -0.152 OA
ATOM      9  O   UNL     1       2.685   0.244  -3.719  0.00  0.00    -0.152 OA
ATOM     10  N   UNL     1       3.345   1.406  -1.557  0.00  0.00    -0.168 NA
ATOM     11  C   UNL     1       2.093   1.194  -0.743  0.00  0.00    +0.146 C 
ENDROOT
BRANCH   4  12
ATOM     12  S   UNL     1       2.858  -5.399  -1.184  0.00  0.00    +0.062 S 
ATOM     13  O   UNL     1       2.369  -5.779  -2.483  0.00  0.00    -0.153 OA
ATOM     14  O   UNL     1       2.233  -5.806   0.053  0.00  0.00    -0.153 OA
BRANCH  12  15
ATOM     15  N   UNL     1       4.474  -5.845  -1.088  0.00  0.00    -0.203 NA
ATOM     16  H   UNL     1       5.008  -5.550  -1.902  0.00  0.00    +0.144 HD
ATOM     17  H   UNL     1       4.886  -5.622  -0.185  0.00  0.00    +0.144 HD
ENDBRANCH  12  15
ENDBRANCH   4  12
BRANCH   1  18
ATOM     18  O   UNL     1       2.840   0.032   1.284  0.00  0.00    -0.386 OA
ATOM     19  H   UNL     1       2.338   0.592   1.903  0.00  0.00    +0.210 HD
ENDBRANCH   1  18
BRANCH  10  20
ATOM     20  C   UNL     1       4.511   1.968  -0.849  0.00  0.00    +0.151 C 
BRANCH  20  21
ATOM     21  C   UNL     1       4.210   3.388  -0.439  0.00  0.00    +0.005 A 
ATOM     22  S   UNL     1       4.385   3.871   1.196  0.00  0.00    -0.100 S 
ATOM     23  C   UNL     1       3.924   5.479   0.839  0.00  0.00    +0.045 A 
ATOM     24  C   UNL     1       3.642   5.652  -0.497  0.00  0.00    +0.008 A 
ATOM     25  C   UNL     1       3.811   4.446  -1.237  0.00  0.00    +0.012 A 
ENDBRANCH  20  21
ENDBRANCH  10  20
TORSDOF 5
