REMARK  Name = 
REMARK  8 active torsions:
REMARK  status: ('A' for Active; 'I' for Inactive)
REMARK    1  A    between atoms: O_1  and  C_2
REMARK    2  A    between atoms: C_5  and  N_16
REMARK    3  A    between atoms: C_8  and  C_10
REMARK    4  A    between atoms: C_10  and  O_11
REMARK    5  A    between atoms: O_11  and  P_12
REMARK    6  A    between atoms: P_12  and  O_13
REMARK    7  A    between atoms: P_12  and  O_14
REMARK    8  A    between atoms: C_19  and  O_21
REMARK                            x       y       z     vdW  Elec       q    Type
REMARK                         _______ _______ _______ _____ _____    ______ ____
ROOT
ATOM      1  C   UNL     1       2.348  -0.001  -0.116  0.00  0.00    +0.150 C 
ATOM      2  C   UNL     1       2.967  -1.197   0.609  0.00  0.00    +0.175 C 
ATOM      3  O   UNL     1       4.076  -0.695   1.390  0.00  0.00    -0.350 OA
ATOM      4  C   UNL     1       4.309   0.676   1.037  0.00  0.00    +0.217 C 
ATOM      5  C   UNL     1       2.934   1.187   0.610  0.00  0.00    +0.086 C 
ENDROOT
BRANCH   4   6
ATOM      6  N   UNL     1       5.352   0.772   0.005  0.00  0.00    -0.236 N 
ATOM      7  C   UNL     1       5.741   2.049  -0.372  0.00  0.00    +0.310 C 
ATOM      8  O   UNL     1       5.238   3.074   0.094  0.00  0.00    -0.252 OA
ATOM      9  N   UNL     1       6.705   2.142  -1.316  0.00  0.00    -0.270 N 
ATOM     10  H   UNL     1       7.027   3.077  -1.508  0.00  0.00    +0.153 HD
ATOM     11  C   UNL     1       7.462   1.071  -1.861  0.00  0.00    +0.229 C 
ATOM     12  C   UNL     1       7.039  -0.245  -1.316  0.00  0.00    +0.039 C 
ATOM     13  C   UNL     1       6.045  -0.350  -0.430  0.00  0.00    +0.082 C 
BRANCH  11  14
ATOM     14  O   UNL     1       8.802   1.332  -1.522  0.00  0.00    -0.371 OA
ATOM     15  H   UNL     1       9.301   0.507  -1.627  0.00  0.00    +0.212 HD
ENDBRANCH  11  14
ENDBRANCH   4   6
BRANCH   1  16
ATOM     16  O   UNL     1       2.736   0.009  -1.489  0.00  0.00    -0.389 OA
ATOM     17  H   UNL     1       3.694   0.185  -1.539  0.00  0.00    +0.210 HD
ENDBRANCH   1  16
BRANCH   2  18
ATOM     18  C   UNL     1       1.989  -1.887   1.552  0.00  0.00    +0.206 C 
BRANCH  18  19
ATOM     19  O   UNL     1       2.651  -2.999   2.161  0.00  0.00    -0.284 OA
BRANCH  19  20
ATOM     20  P   UNL     1       1.607  -3.854   3.243  0.00  0.00    +0.472 P 
ATOM     21  O   UNL     1       0.673  -4.620   4.212  0.00  0.00    -0.228 OA
BRANCH  20  22
ATOM     22  O   UNL     1       2.449  -3.035   4.378  0.00  0.00    -0.303 OA
ATOM     23  H   UNL     1       3.337  -2.850   4.019  0.00  0.00    +0.222 HD
ENDBRANCH  20  22
BRANCH  20  24
ATOM     24  O   UNL     1       2.675  -5.072   3.024  0.00  0.00    -0.303 OA
ATOM     25  H   UNL     1       2.745  -5.289   2.077  0.00  0.00    +0.222 HD
ENDBRANCH  20  24
ENDBRANCH  19  20
ENDBRANCH  18  19
ENDBRANCH   2  18
TORSDOF 8
