REMARK  Name = 
REMARK  5 active torsions:
REMARK  status: ('A' for Active; 'I' for Inactive)
REMARK    1  A    between atoms: C_2  and  C_4
REMARK    2  A    between atoms: C_6  and  C_22
REMARK    3  A    between atoms: C_8  and  C_10
REMARK    4  A    between atoms: C_13  and  C_16
REMARK    5  A    between atoms: C_22  and  O_23
REMARK                            x       y       z     vdW  Elec       q    Type
REMARK                         _______ _______ _______ _____ _____    ______ ____
ROOT
ATOM      1  C   UNL     1       3.208   1.452   0.367  0.00  0.00    +0.038 A 
ATOM      2  C   UNL     1       4.568   1.512   0.006  0.00  0.00    +0.021 A 
ATOM      3  C   UNL     1       5.076   2.563  -0.777  0.00  0.00    -0.016 A 
ATOM      4  C   UNL     1       4.161   3.568  -1.156  0.00  0.00    +0.023 A 
ATOM      5  C   UNL     1       2.814   3.544  -0.761  0.00  0.00    +0.060 A 
ATOM      6  C   UNL     1       2.329   2.474  -0.009  0.00  0.00    +0.028 A 
ENDROOT
BRANCH   3   7
ATOM      7  C   UNL     1       6.490   2.611  -1.234  0.00  0.00    -0.018 A 
ATOM      8  C   UNL     1       7.232   1.453  -1.514  0.00  0.00    +0.009 A 
ATOM      9  C   UNL     1       8.526   1.519  -2.065  0.00  0.00    +0.009 A 
ATOM     10  C   UNL     1       9.134   2.743  -2.386  0.00  0.00    -0.018 A 
ATOM     11  C   UNL     1       8.417   3.899  -2.042  0.00  0.00    +0.009 A 
ATOM     12  C   UNL     1       7.138   3.834  -1.469  0.00  0.00    +0.009 A 
BRANCH  10  13
ATOM     13  C   UNL     1      10.426   2.826  -3.119  0.00  0.00    -0.018 A 
ATOM     14  C   UNL     1      10.797   1.849  -4.063  0.00  0.00    +0.008 A 
ATOM     15  C   UNL     1      11.962   1.969  -4.830  0.00  0.00    +0.001 A 
ATOM     16  C   UNL     1      12.787   3.077  -4.676  0.00  0.00    +0.000 A 
ATOM     17  C   UNL     1      12.460   4.050  -3.739  0.00  0.00    +0.001 A 
ATOM     18  C   UNL     1      11.301   3.919  -2.964  0.00  0.00    +0.008 A 
ENDBRANCH  10  13
ENDBRANCH   3   7
BRANCH   1  22
ATOM     19  N   UNL     1       1.426  -0.072   1.039  0.00  0.00    -0.325 N 
ATOM     20  H   UNL     1       0.856   0.212   0.254  0.00  0.00    +0.145 HD
ATOM     21  H   UNL     1       1.169  -0.939   1.498  0.00  0.00    +0.145 HD
ATOM     22  C   UNL     1       2.738   0.290   1.163  0.00  0.00    +0.242 C 
ATOM     23  O   UNL     1       3.502  -0.346   1.878  0.00  0.00    -0.270 OA
ENDBRANCH   1  22
BRANCH   5  24
ATOM     24  C   UNL     1       1.936   4.648  -1.230  0.00  0.00    +0.337 C 
ATOM     25  O   UNL     1       2.144   5.257  -2.265  0.00  0.00    -0.245 OA
BRANCH  24  26
ATOM     26  O   UNL     1       0.908   4.931  -0.404  0.00  0.00    -0.477 OA
ATOM     27  H   UNL     1       0.960   4.546   0.489  0.00  0.00    +0.295 HD
ENDBRANCH  24  26
ENDBRANCH   5  24
TORSDOF 5
