REMARK  Name = 
REMARK  29 active torsions:
REMARK  status: ('A' for Active; 'I' for Inactive)
REMARK    1  A    between atoms: N_1  and  C_2
REMARK    2  A    between atoms: C_2  and  C_3
REMARK    3  A    between atoms: C_3  and  C_4
REMARK    4  A    between atoms: C_4  and  N_5
REMARK    5  A    between atoms: N_5  and  C_6
REMARK    6  A    between atoms: C_6  and  C_7
REMARK    7  A    between atoms: C_7  and  O_8
REMARK    8  A    between atoms: O_8  and  C_9
REMARK    9  A    between atoms: C_11  and  O_13
REMARK   10  A    between atoms: O_13  and  C_14
REMARK   11  A    between atoms: C_16  and  O_18
REMARK   12  A    between atoms: C_19  and  N_21
REMARK   13  A    between atoms: C_23  and  N_25
REMARK   14  A    between atoms: C_26  and  O_28
REMARK   15  A    between atoms: O_28  and  C_29
REMARK   16  A    between atoms: C_32  and  C_34
REMARK   17  A    between atoms: C_34  and  O_35
REMARK   18  A    between atoms: C_36  and  O_38
REMARK   19  A    between atoms: C_39  and  O_41
REMARK   20  A    between atoms: C_42  and  N_44
REMARK   21  A    between atoms: C_46  and  C_48
REMARK   22  A    between atoms: C_48  and  O_49
REMARK   23  A    between atoms: C_50  and  O_52
REMARK   24  A    between atoms: O_52  and  C_53
REMARK   25  A    between atoms: C_56  and  C_58
REMARK   26  A    between atoms: C_58  and  N_59
REMARK   27  A    between atoms: C_60  and  O_62
REMARK   28  A    between atoms: C_63  and  O_65
REMARK   29  A    between atoms: C_66  and  N_68
REMARK                            x       y       z     vdW  Elec       q    Type
REMARK                         _______ _______ _______ _____ _____    ______ ____
ROOT
ATOM      1  C   UNL     1       9.893   4.280   0.860  0.00  0.00    +0.205 C 
ATOM      2  C   UNL     1      10.325   2.874   0.292  0.00  0.00    +0.186 C 
ATOM      3  C   UNL     1       9.389   1.918   1.073  0.00  0.00    +0.178 C 
ATOM      4  O   UNL     1       8.648   2.723   2.004  0.00  0.00    -0.340 OA
ATOM      5  C   UNL     1       8.453   3.988   1.357  0.00  0.00    +0.282 C 
ENDROOT
BRANCH   3   6
ATOM      6  C   UNL     1      10.113   0.783   1.797  0.00  0.00    +0.190 C 
BRANCH   6   7
ATOM      7  O   UNL     1       9.186   0.005   2.560  0.00  0.00    -0.392 OA
ATOM      8  H   UNL     1       8.850   0.591   3.262  0.00  0.00    +0.210 HD
ENDBRANCH   6   7
ENDBRANCH   3   6
BRANCH   5   9
ATOM      9  O   UNL     1       7.997   4.972   2.285  0.00  0.00    -0.340 OA
BRANCH   9  10
ATOM     10  C   UNL     1       6.769   4.755   3.036  0.00  0.00    +0.182 C 
ATOM     11  C   UNL     1       5.404   4.722   2.251  0.00  0.00    +0.169 C 
ATOM     12  C   UNL     1       4.226   4.485   3.278  0.00  0.00    +0.084 C 
ATOM     13  C   UNL     1       4.449   3.266   4.194  0.00  0.00    +0.042 C 
ATOM     14  C   UNL     1       5.764   3.372   4.955  0.00  0.00    +0.084 C 
ATOM     15  C   UNL     1       6.916   3.519   3.965  0.00  0.00    +0.163 C 
BRANCH  14  16
ATOM     16  N   UNL     1       5.969   2.185   5.813  0.00  0.00    -0.325 NA
ATOM     17  H   UNL     1       6.056   1.350   5.224  0.00  0.00    +0.119 HD
ATOM     18  H   UNL     1       6.904   2.292   6.227  0.00  0.00    +0.119 HD
ENDBRANCH  14  16
BRANCH  12  19
ATOM     19  N   UNL     1       2.917   4.325   2.614  0.00  0.00    -0.325 NA
ATOM     20  H   UNL     1       2.867   3.424   2.142  0.00  0.00    +0.119 HD
ATOM     21  H   UNL     1       2.179   4.303   3.324  0.00  0.00    +0.119 HD
ENDBRANCH  12  19
BRANCH  15  22
ATOM     22  O   UNL     1       8.154   3.592   4.687  0.00  0.00    -0.388 OA
ATOM     23  H   UNL     1       8.841   3.719   4.004  0.00  0.00    +0.210 HD
ENDBRANCH  15  22
BRANCH  11  24
ATOM     24  O   UNL     1       5.090   5.951   1.516  0.00  0.00    -0.342 OA
BRANCH  24  25
ATOM     25  C   UNL     1       5.945   6.208   0.407  0.00  0.00    +0.270 C 
ATOM     26  C   UNL     1       5.792   7.569  -0.346  0.00  0.00    +0.139 C 
ATOM     27  C   UNL     1       4.608   7.579  -1.323  0.00  0.00    +0.167 C 
ATOM     28  C   UNL     1       4.645   6.336  -2.219  0.00  0.00    +0.176 C 
ATOM     29  C   UNL     1       4.765   5.076  -1.355  0.00  0.00    +0.178 C 
ATOM     30  O   UNL     1       5.934   5.126  -0.522  0.00  0.00    -0.342 OA
BRANCH  26  31
ATOM     31  N   UNL     1       5.789   8.799   0.474  0.00  0.00    -0.321 NA
ATOM     32  H   UNL     1       5.590   9.573  -0.172  0.00  0.00    +0.119 HD
ATOM     33  H   UNL     1       6.727   8.974   0.827  0.00  0.00    +0.119 HD
ENDBRANCH  26  31
BRANCH  28  34
ATOM     34  O   UNL     1       3.478   6.319  -3.051  0.00  0.00    -0.387 OA
ATOM     35  H   UNL     1       2.689   6.296  -2.479  0.00  0.00    +0.210 HD
ENDBRANCH  28  34
BRANCH  27  36
ATOM     36  O   UNL     1       4.705   8.759  -2.152  0.00  0.00    -0.387 OA
ATOM     37  H   UNL     1       4.023   8.668  -2.845  0.00  0.00    +0.210 HD
ENDBRANCH  27  36
BRANCH  29  38
ATOM     38  C   UNL     1       4.938   3.812  -2.209  0.00  0.00    +0.190 C 
BRANCH  38  39
ATOM     39  O   UNL     1       4.820   2.653  -1.379  0.00  0.00    -0.392 OA
ATOM     40  H   UNL     1       5.133   2.910  -0.494  0.00  0.00    +0.210 HD
ENDBRANCH  38  39
ENDBRANCH  29  38
ENDBRANCH  24  25
ENDBRANCH  11  24
ENDBRANCH   9  10
ENDBRANCH   5   9
BRANCH   2  41
ATOM     41  O   UNL     1      10.169   2.470  -1.076  0.00  0.00    -0.341 OA
BRANCH  41  42
ATOM     42  C   UNL     1      11.177   2.838  -2.035  0.00  0.00    +0.270 C 
ATOM     43  C   UNL     1      10.989   2.078  -3.423  0.00  0.00    +0.139 C 
ATOM     44  C   UNL     1      12.050   1.005  -3.764  0.00  0.00    +0.167 C 
ATOM     45  C   UNL     1      13.435   1.423  -3.302  0.00  0.00    +0.175 C 
ATOM     46  C   UNL     1      13.413   1.791  -1.816  0.00  0.00    +0.166 C 
ATOM     47  O   UNL     1      12.511   2.866  -1.525  0.00  0.00    -0.343 OA
BRANCH  43  48
ATOM     48  N   UNL     1       9.649   1.459  -3.662  0.00  0.00    -0.321 NA
ATOM     49  H   UNL     1       9.557   1.302  -4.664  0.00  0.00    +0.119 HD
ATOM     50  H   UNL     1       8.920   2.087  -3.360  0.00  0.00    +0.119 HD
ENDBRANCH  43  48
BRANCH  45  51
ATOM     51  O   UNL     1      14.394   0.402  -3.618  0.00  0.00    -0.387 OA
ATOM     52  H   UNL     1      14.172  -0.420  -3.146  0.00  0.00    +0.210 HD
ENDBRANCH  45  51
BRANCH  44  53
ATOM     53  O   UNL     1      12.083   0.803  -5.199  0.00  0.00    -0.387 OA
ATOM     54  H   UNL     1      12.893   0.290  -5.390  0.00  0.00    +0.210 HD
ENDBRANCH  44  53
BRANCH  46  55
ATOM     55  C   UNL     1      13.203   0.598  -0.859  0.00  0.00    +0.112 C 
BRANCH  55  56
ATOM     56  N   UNL     1      13.463   0.976   0.536  0.00  0.00    -0.328 NA
ATOM     57  H   UNL     1      14.448   1.228   0.632  0.00  0.00    +0.118 HD
ATOM     58  H   UNL     1      12.987   1.858   0.715  0.00  0.00    +0.118 HD
ENDBRANCH  55  56
ENDBRANCH  46  55
ENDBRANCH  41  42
ENDBRANCH   2  41
BRANCH   1  59
ATOM     59  O   UNL     1      10.183   5.415   0.047  0.00  0.00    -0.368 OA
BRANCH  59  60
ATOM     60  C   UNL     1       9.908   6.726   0.593  0.00  0.00    +0.175 C 
BRANCH  60  61
ATOM     61  C   UNL     1      10.595   7.244   1.894  0.00  0.00    +0.109 C 
BRANCH  61  62
ATOM     62  N   UNL     1      12.048   7.478   1.943  0.00  0.00    -0.314 NA
ATOM     63  H   UNL     1      12.292   7.639   2.924  0.00  0.00    +0.122 HD
BRANCH  62  64
ATOM     64  C   UNL     1      12.541   8.644   1.187  0.00  0.00    +0.082 C 
BRANCH  64  65
ATOM     65  C   UNL     1      14.017   8.880   1.581  0.00  0.00    +0.030 C 
BRANCH  65  66
ATOM     66  C   UNL     1      14.736   9.926   0.725  0.00  0.00    +0.079 C 
BRANCH  66  67
ATOM     67  N   UNL     1      16.127  10.058   1.164  0.00  0.00    -0.330 NA
ATOM     68  H   UNL     1      16.578   9.142   1.174  0.00  0.00    +0.118 HD
ATOM     69  H   UNL     1      16.650  10.621   0.495  0.00  0.00    +0.118 HD
ENDBRANCH  66  67
ENDBRANCH  65  66
ENDBRANCH  64  65
ENDBRANCH  62  64
ENDBRANCH  61  62
ENDBRANCH  60  61
ENDBRANCH  59  60
ENDBRANCH   1  59
TORSDOF 29
