REMARK  Name = 
REMARK  8 active torsions:
REMARK  status: ('A' for Active; 'I' for Inactive)
REMARK    1  A    between atoms: CA_2  and  N_3
REMARK    2  A    between atoms: CA_2  and  C_12
REMARK    3  A    between atoms: CA_2  and  C_14
REMARK    4  A    between atoms: C_4  and  C_6
REMARK    5  A    between atoms: C_6  and  C_7
REMARK    6  A    between atoms: CA_17  and  C_18
REMARK    7  A    between atoms: C_18  and  O_19
REMARK    8  A    between atoms: C_21  and  C_22
REMARK                            x       y       z     vdW  Elec       q    Type
REMARK                         _______ _______ _______ _____ _____    ______ ____
ROOT
ATOM      1  CA  UNL     1       4.286   1.073  -0.184  0.00  0.00    +0.166 C 
ENDROOT
BRANCH   1   2
ATOM      2  C   UNL     1       2.750   1.279  -0.207  0.00  0.00    +0.156 C 
ATOM      3  S   UNL     1       1.919   0.734  -1.719  0.00  0.00    -0.132 S 
ATOM      4  C   UNL     1       2.158  -1.042  -1.512  0.00  0.00    +0.103 C 
ATOM      5  C   UNL     1       1.889  -1.557  -0.120  0.00  0.00    -0.035 C 
ATOM      6  C   UNL     1       1.715  -3.058  -0.117  0.00  0.00    +0.042 C 
ATOM      7  CA  UNL     1       1.818  -0.754   0.965  0.00  0.00    +0.113 C 
ATOM      8  N   UNL     1       2.116   0.619   0.935  0.00  0.00    -0.325 N 
ATOM      9  H   UNL     1       1.319   1.153   1.294  0.00  0.00    +0.147 HD
BRANCH   7  10
ATOM     10  C   UNL     1       1.412  -1.283   2.332  0.00  0.00    +0.351 C 
ATOM     11  OXT UNL     1       0.719  -2.254   2.565  0.00  0.00    -0.244 OA
BRANCH  10  12
ATOM     12  O   UNL     1       1.872  -0.441   3.289  0.00  0.00    -0.476 OA
ATOM     13  H   UNL     1       2.489   0.199   2.872  0.00  0.00    +0.295 HD
ENDBRANCH  10  12
ENDBRANCH   7  10
ENDBRANCH   1   2
BRANCH   1  14
ATOM     14  N   UNL     1       4.900   1.675   1.012  0.00  0.00    -0.303 N 
ATOM     15  H   UNL     1       5.071   2.676   0.983  0.00  0.00    +0.149 HD
ATOM     16  C   UNL     1       5.475   0.911   1.998  0.00  0.00    +0.218 C 
ATOM     17  O   UNL     1       5.483  -0.316   1.951  0.00  0.00    -0.275 OA
BRANCH  16  18
ATOM     18  C   UNL     1       6.076   1.705   3.147  0.00  0.00    +0.138 C 
BRANCH  18  19
ATOM     19  C   UNL     1       5.423   1.291   4.429  0.00  0.00    -0.001 A 
ATOM     20  S   UNL     1       4.008   2.087   4.977  0.00  0.00    -0.101 S 
ATOM     21  C   UNL     1       3.900   1.077   6.353  0.00  0.00    +0.045 A 
ATOM     22  C   UNL     1       4.926   0.161   6.405  0.00  0.00    +0.008 A 
ATOM     23  C   UNL     1       5.808   0.286   5.294  0.00  0.00    +0.011 A 
ENDBRANCH  18  19
ENDBRANCH  16  18
ENDBRANCH   1  14
BRANCH   1  24
ATOM     24  C   UNL     1       4.940   1.748  -1.374  0.00  0.00    +0.248 C 
ATOM     25  O   UNL     1       5.368   2.901  -1.347  0.00  0.00    -0.299 OA
ENDBRANCH   1  24
TORSDOF 7
