REMARK  Name = 
REMARK  50 active torsions:
REMARK  status: ('A' for Active; 'I' for Inactive)
REMARK    1  A    between atoms: C_1  and  C_2
REMARK    2  A    between atoms: C_2  and  C_3
REMARK    3  A    between atoms: C_3  and  C_4
REMARK    4  A    between atoms: C_4  and  C_5
REMARK    5  A    between atoms: C_5  and  C_6
REMARK    6  A    between atoms: C_6  and  C_7
REMARK    7  A    between atoms: C_7  and  C_8
REMARK    8  A    between atoms: C_8  and  C_9
REMARK    9  A    between atoms: C_9  and  C_10
REMARK   10  A    between atoms: C_10  and  C_11
REMARK   11  A    between atoms: C_11  and  C_12
REMARK   12  A    between atoms: C_12  and  C_13
REMARK   13  A    between atoms: C_13  and  C_14
REMARK   14  A    between atoms: C_14  and  C_15
REMARK   15  A    between atoms: C_15  and  C_16
REMARK   16  A    between atoms: C_16  and  C_17
REMARK   17  A    between atoms: C_17  and  C_18
REMARK   18  A    between atoms: C_18  and  O_20
REMARK   19  A    between atoms: O_20  and  C_21
REMARK   20  A    between atoms: C_21  and  C_22
REMARK   21  A    between atoms: C_22  and  C_24
REMARK   22  A    between atoms: C_22  and  O_36
REMARK   23  A    between atoms: C_24  and  O_25
REMARK   24  A    between atoms: O_25  and  P_26
REMARK   25  A    between atoms: P_26  and  O_27
REMARK   26  A    between atoms: P_26  and  O_29
REMARK   27  A    between atoms: O_29  and  C_30
REMARK   28  A    between atoms: C_30  and  C_31
REMARK   29  A    between atoms: C_31  and  N_32
REMARK   30  A    between atoms: N_32  and  C_33
REMARK   31  A    between atoms: N_32  and  C_34
REMARK   32  A    between atoms: N_32  and  C_35
REMARK   33  A    between atoms: O_36  and  C_37
REMARK   34  A    between atoms: C_37  and  C_39
REMARK   35  A    between atoms: C_39  and  C_40
REMARK   36  A    between atoms: C_40  and  C_41
REMARK   37  A    between atoms: C_41  and  C_42
REMARK   38  A    between atoms: C_42  and  C_43
REMARK   39  A    between atoms: C_43  and  C_44
REMARK   40  A    between atoms: C_44  and  C_45
REMARK   41  A    between atoms: C_45  and  C_46
REMARK   42  A    between atoms: C_46  and  C_47
REMARK   43  A    between atoms: C_47  and  C_48
REMARK   44  A    between atoms: C_48  and  C_49
REMARK   45  A    between atoms: C_49  and  C_50
REMARK   46  A    between atoms: C_50  and  C_51
REMARK   47  A    between atoms: C_51  and  C_52
REMARK   48  A    between atoms: C_52  and  C_53
REMARK   49  A    between atoms: C_53  and  C_54
REMARK   50  A    between atoms: C_54  and  C_55
REMARK                            x       y       z     vdW  Elec       q    Type
REMARK                         _______ _______ _______ _____ _____    ______ ____
ROOT
ATOM      1  C   UNL     1      21.346  -3.632  13.597  0.00  0.00    +0.240 C 
ENDROOT
BRANCH   1   2
ATOM      2  C   UNL     1      20.849  -5.053  13.872  0.00  0.00    +0.220 C 
BRANCH   2   3
ATOM      3  O   UNL     1      21.339  -5.569  15.113  0.00  0.00    -0.283 OA
BRANCH   3   4
ATOM      4  P   UNL     1      20.886  -7.077  15.409  0.00  0.00    +0.475 P 
ATOM      5  O   UNL     1      20.820  -7.982  14.224  0.00  0.00    -0.227 OA
BRANCH   4   6
ATOM      6  O   UNL     1      19.483  -6.887  16.153  0.00  0.00    -0.302 OA
ATOM      7  H   UNL     1      19.515  -6.172  16.815  0.00  0.00    +0.222 HD
ENDBRANCH   4   6
BRANCH   4   8
ATOM      8  O   UNL     1      21.823  -7.627  16.594  0.00  0.00    -0.281 OA
BRANCH   8   9
ATOM      9  C   UNL     1      21.557  -8.942  17.084  0.00  0.00    +0.223 C 
BRANCH   9  10
ATOM     10  C   UNL     1      21.892 -10.042  16.056  0.00  0.00    +0.161 C 
BRANCH  10  11
ATOM     11  N   UNL     1      21.643 -11.487  16.537  0.00  0.00    +0.239 N 
ATOM     12  C   UNL     1      22.004 -12.425  15.375  0.00  0.00    +0.192 C 
ATOM     13  C   UNL     1      20.171 -11.707  16.871  0.00  0.00    +0.192 C 
ATOM     14  C   UNL     1      22.515 -11.843  17.728  0.00  0.00    +0.192 C 
ENDBRANCH  10  11
ENDBRANCH   9  10
ENDBRANCH   8   9
ENDBRANCH   4   8
ENDBRANCH   3   4
ENDBRANCH   2   3
ENDBRANCH   1   2
BRANCH   1  15
ATOM     15  C   UNL     1      20.792  -3.072  12.278  0.00  0.00    +0.279 C 
BRANCH  15  16
ATOM     16  O   UNL     1      19.374  -3.163  12.125  0.00  0.00    -0.461 OA
BRANCH  16  17
ATOM     17  C   UNL     1      18.714  -2.151  12.741  0.00  0.00    +0.307 C 
ATOM     18  O   UNL     1      18.908  -1.817  13.900  0.00  0.00    -0.251 OA
BRANCH  17  19
ATOM     19  C   UNL     1      17.797  -1.470  11.761  0.00  0.00    +0.120 C 
BRANCH  19  20
ATOM     20  C   UNL     1      17.727   0.014  12.089  0.00  0.00    +0.011 C 
BRANCH  20  21
ATOM     21  C   UNL     1      16.909   0.780  11.060  0.00  0.00    +0.001 C 
BRANCH  21  22
ATOM     22  C   UNL     1      16.844   2.254  11.443  0.00  0.00    +0.000 C 
BRANCH  22  23
ATOM     23  C   UNL     1      16.016   3.045  10.441  0.00  0.00    +0.000 C 
BRANCH  23  24
ATOM     24  C   UNL     1      15.955   4.513  10.845  0.00  0.00    +0.000 C 
BRANCH  24  25
ATOM     25  C   UNL     1      15.120   5.309   9.851  0.00  0.00    -0.000 C 
BRANCH  25  26
ATOM     26  C   UNL     1      15.058   6.777  10.254  0.00  0.00    -0.000 C 
BRANCH  26  27
ATOM     27  C   UNL     1      14.221   7.569   9.258  0.00  0.00    -0.000 C 
BRANCH  27  28
ATOM     28  C   UNL     1      14.154   9.038   9.655  0.00  0.00    -0.000 C 
BRANCH  28  29
ATOM     29  C   UNL     1      13.316   9.826   8.655  0.00  0.00    -0.000 C 
BRANCH  29  30
ATOM     30  C   UNL     1      13.247  11.296   9.050  0.00  0.00    -0.000 C 
BRANCH  30  31
ATOM     31  C   UNL     1      12.408  12.086   8.051  0.00  0.00    -0.000 C 
BRANCH  31  32
ATOM     32  C   UNL     1      12.337  13.558   8.446  0.00  0.00    -0.000 C 
BRANCH  32  33
ATOM     33  C   UNL     1      11.497  14.350   7.448  0.00  0.00    -0.000 C 
BRANCH  33  35
ATOM     34  C   UNL     1      10.591  16.612   6.842  0.00  0.00    +0.004 C 
ATOM     35  C   UNL     1      11.428  15.825   7.835  0.00  0.00    -0.003 C 
ENDBRANCH  33  35
ENDBRANCH  32  33
ENDBRANCH  31  32
ENDBRANCH  30  31
ENDBRANCH  29  30
ENDBRANCH  28  29
ENDBRANCH  27  28
ENDBRANCH  26  27
ENDBRANCH  25  26
ENDBRANCH  24  25
ENDBRANCH  23  24
ENDBRANCH  22  23
ENDBRANCH  21  22
ENDBRANCH  20  21
ENDBRANCH  19  20
ENDBRANCH  17  19
ENDBRANCH  16  17
ENDBRANCH  15  16
ENDBRANCH   1  15
BRANCH   1  36
ATOM     36  O   UNL     1      22.793  -3.517  13.620  0.00  0.00    -0.456 OA
BRANCH  36  37
ATOM     37  C   UNL     1      23.519  -4.200  12.698  0.00  0.00    +0.308 C 
ATOM     38  O   UNL     1      23.059  -4.945  11.842  0.00  0.00    -0.251 OA
BRANCH  37  39
ATOM     39  C   UNL     1      24.985  -3.898  12.825  0.00  0.00    +0.120 C 
BRANCH  39  40
ATOM     40  C   UNL     1      25.519  -4.227  14.211  0.00  0.00    +0.011 C 
BRANCH  40  41
ATOM     41  C   UNL     1      25.285  -5.691  14.587  0.00  0.00    +0.001 C 
BRANCH  41  42
ATOM     42  C   UNL     1      25.840  -5.979  15.976  0.00  0.00    +0.000 C 
BRANCH  42  43
ATOM     43  C   UNL     1      25.606  -7.433  16.369  0.00  0.00    +0.000 C 
BRANCH  43  44
ATOM     44  C   UNL     1      26.163  -7.704  17.762  0.00  0.00    +0.000 C 
BRANCH  44  45
ATOM     45  C   UNL     1      25.933  -9.155  18.166  0.00  0.00    -0.000 C 
BRANCH  45  46
ATOM     46  C   UNL     1      26.503  -9.424  19.555  0.00  0.00    -0.000 C 
BRANCH  46  47
ATOM     47  C   UNL     1      26.277 -10.877  19.958  0.00  0.00    -0.000 C 
BRANCH  47  48
ATOM     48  C   UNL     1      26.846 -11.150  21.346  0.00  0.00    -0.000 C 
BRANCH  48  49
ATOM     49  C   UNL     1      26.621 -12.604  21.745  0.00  0.00    -0.000 C 
BRANCH  49  50
ATOM     50  C   UNL     1      27.186 -12.881  23.135  0.00  0.00    -0.000 C 
BRANCH  50  51
ATOM     51  C   UNL     1      26.959 -14.337  23.533  0.00  0.00    -0.000 C 
BRANCH  51  52
ATOM     52  C   UNL     1      27.522 -14.619  24.924  0.00  0.00    -0.000 C 
BRANCH  52  53
ATOM     53  C   UNL     1      27.294 -16.076  25.319  0.00  0.00    -0.000 C 
BRANCH  53  54
ATOM     54  C   UNL     1      27.854 -16.366  26.709  0.00  0.00    -0.003 C 
ATOM     55  C   UNL     1      27.627 -17.817  27.101  0.00  0.00    +0.004 C 
ENDBRANCH  53  54
ENDBRANCH  52  53
ENDBRANCH  51  52
ENDBRANCH  50  51
ENDBRANCH  49  50
ENDBRANCH  48  49
ENDBRANCH  47  48
ENDBRANCH  46  47
ENDBRANCH  45  46
ENDBRANCH  44  45
ENDBRANCH  43  44
ENDBRANCH  42  43
ENDBRANCH  41  42
ENDBRANCH  40  41
ENDBRANCH  39  40
ENDBRANCH  37  39
ENDBRANCH  36  37
ENDBRANCH   1  36
TORSDOF 45
