REMARK  Name = 
REMARK  14 active torsions:
REMARK  status: ('A' for Active; 'I' for Inactive)
REMARK    1  A    between atoms: C_4  and  O_5
REMARK    2  A    between atoms: C_8  and  C_9
REMARK    3  A    between atoms: C_9  and  C_10
REMARK    4  A    between atoms: C_10  and  C_12
REMARK    5  A    between atoms: C_10  and  C_15
REMARK    6  A    between atoms: C_12  and  O_13
REMARK    7  A    between atoms: C_18  and  C_21
REMARK    8  A    between atoms: N_23  and  CA_24
REMARK    9  A    between atoms: CA_24  and  CB_26
REMARK   10  A    between atoms: CA_24  and  C_31
REMARK   11  A    between atoms: CB_26  and  CG_27
REMARK   12  A    between atoms: CG_27  and  CD_28
REMARK   13  A    between atoms: CD_28  and  OE1_29
REMARK   14  A    between atoms: C_31  and  O_32
REMARK                            x       y       z     vdW  Elec       q    Type
REMARK                         _______ _______ _______ _____ _____    ______ ____
ROOT
ATOM      1  C   UNK A   0       9.300  -2.565  -0.476  0.00  0.00    +0.132 C 
ENDROOT
BRANCH   1   2
ATOM      2  C   UNK A   0      10.822  -2.568  -0.330  0.00  0.00    -0.033 A 
ATOM      3  C   UNK A   0      11.532  -3.779  -0.321  0.00  0.00    +0.005 A 
ATOM      4  C   UNK A   0      12.917  -3.804  -0.491  0.00  0.00    +0.013 A 
ATOM      5  C   UNK A   0      13.624  -2.612  -0.670  0.00  0.00    +0.037 A 
ATOM      6  C   UNK A   0      12.934  -1.394  -0.577  0.00  0.00    +0.013 A 
ATOM      7  C   UNK A   0      11.544  -1.369  -0.407  0.00  0.00    +0.005 A 
BRANCH   5   8
ATOM      8  C   UNK A   0      15.046  -2.582  -1.134  0.00  0.00    +0.245 C 
ATOM      9  N   GLU A   1      15.703  -3.793  -1.280  0.00  0.00    -0.298 N 
ATOM     10  H   GLU A   1      15.365  -4.610  -0.786  0.00  0.00    +0.150 HD
ATOM     11  O   UNK A   0      15.563  -1.527  -1.479  0.00  0.00    -0.270 OA
BRANCH   9  12
ATOM     12  CA  GLU A   1      17.069  -3.860  -1.840  0.00  0.00    +0.182 C 
BRANCH  12  13
ATOM     13  C   GLU A   1      17.026  -3.910  -3.386  0.00  0.00    +0.325 C 
ATOM     14  OXT GLU A   1      18.018  -3.932  -4.102  0.00  0.00    -0.249 OA
BRANCH  13  15
ATOM     15  O   GLU A   1      15.777  -3.987  -3.904  0.00  0.00    -0.479 OA
ATOM     16  H   GLU A   1      15.119  -3.885  -3.189  0.00  0.00    +0.295 HD
ENDBRANCH  13  15
ENDBRANCH  12  13
BRANCH  12  17
ATOM     17  CB  GLU A   1      17.800  -5.085  -1.268  0.00  0.00    +0.045 C 
BRANCH  17  18
ATOM     18  CG  GLU A   1      19.264  -5.184  -1.705  0.00  0.00    +0.123 C 
BRANCH  18  19
ATOM     19  CD  GLU A   1      19.983  -6.340  -1.060  0.00  0.00    +0.305 C 
ATOM     20  OE2 GLU A   1      19.490  -7.109  -0.248  0.00  0.00    -0.251 OA
BRANCH  19  21
ATOM     21  OE1 GLU A   1      21.263  -6.447  -1.487  0.00  0.00    -0.481 OA
ATOM     22  HE1 GLU A   1      21.512  -5.784  -2.156  0.00  0.00    +0.295 HD
ENDBRANCH  19  21
ENDBRANCH  18  19
ENDBRANCH  17  18
ENDBRANCH  12  17
ENDBRANCH   9  12
ENDBRANCH   5   8
ENDBRANCH   1   2
BRANCH   1  23
ATOM     23  C   UNK A   0       8.644  -3.630   0.399  0.00  0.00    +0.313 C 
ATOM     24  O   UNK A   0       8.421  -4.782   0.051  0.00  0.00    -0.250 OA
BRANCH  23  25
ATOM     25  O   UNK A   0       8.389  -3.213   1.663  0.00  0.00    -0.480 OA
ATOM     26  H   UNK A   0       8.667  -2.296   1.849  0.00  0.00    +0.295 HD
ENDBRANCH  23  25
ENDBRANCH   1  23
BRANCH   1  27
ATOM     27  C   UNK A   0       8.983  -2.782  -1.973  0.00  0.00    +0.054 C 
BRANCH  27  36
ATOM     28  N   UNK A   0       1.801  -1.079  -4.482  0.00  0.00    -0.327 N 
ATOM     29  H   UNK A   0       1.511  -2.001  -4.783  0.00  0.00    +0.145 HD
ATOM     30  H   UNK A   0       1.686  -0.323  -5.139  0.00  0.00    +0.145 HD
ATOM     31  C   UNK A   0       3.102  -1.131  -4.033  0.00  0.00    +0.216 A 
ATOM     32  N   UNK A   0       3.569  -2.325  -3.653  0.00  0.00    -0.214 NA
ATOM     33  C   UNK A   0       4.839  -2.397  -3.232  0.00  0.00    +0.080 A 
ATOM     34  C   UNK A   0       5.675  -1.283  -3.182  0.00  0.00    +0.062 A 
ATOM     35  C   UNK A   0       7.014  -1.390  -2.739  0.00  0.00    +0.019 A 
ATOM     36  C   UNK A   0       7.535  -2.632  -2.366  0.00  0.00    -0.045 A 
ATOM     37  C   UNK A   0       6.695  -3.747  -2.419  0.00  0.00    +0.006 A 
ATOM     38  C   UNK A   0       5.068  -0.115  -3.618  0.00  0.00    +0.225 A 
ATOM     39  C   UNK A   0       5.368  -3.619  -2.841  0.00  0.00    +0.029 A 
ATOM     40  N   UNK A   0       3.810  -0.001  -4.054  0.00  0.00    -0.179 NA
BRANCH  38  41
ATOM     41  O   UNK A   0       5.755   1.060  -3.656  0.00  0.00    -0.492 OA
ATOM     42  H   UNK A   0       5.068   1.650  -4.015  0.00  0.00    +0.294 HD
ENDBRANCH  38  41
ENDBRANCH  27  36
ENDBRANCH   1  27
TORSDOF 14
