REMARK  Name = 
REMARK  5 active torsions:
REMARK  status: ('A' for Active; 'I' for Inactive)
REMARK    1  A    between atoms: C_1  and  N_2
REMARK    2  A    between atoms: C_5  and  C_6
REMARK    3  A    between atoms: C_7  and  C_9
REMARK    4  A    between atoms: N_14  and  C_15
REMARK    5  A    between atoms: C_18  and  O_19
REMARK                            x       y       z     vdW  Elec       q    Type
REMARK                         _______ _______ _______ _____ _____    ______ ____
ROOT
ATOM      1  C   UNL     1       3.276  -5.295  -0.652  0.00  0.00    +0.084 A 
ATOM      2  N   UNL     1       2.365  -5.542   0.316  0.00  0.00    -0.214 NA
ATOM      3  C   UNL     1       2.113  -6.824   0.622  0.00  0.00    +0.220 A 
ATOM      4  N   UNL     1       1.199  -7.043   1.650  0.00  0.00    -0.284 N 
ATOM      5  H   UNL     1       0.824  -6.163   1.971  0.00  0.00    +0.155 HD
ATOM      6  N   UNL     1       2.686  -7.854  -0.018  0.00  0.00    -0.223 NA
ATOM      7  C   UNL     1       3.566  -7.579  -0.989  0.00  0.00    +0.116 A 
ATOM      8  C   UNL     1       3.907  -6.304  -1.348  0.00  0.00    +0.049 A 
ENDROOT
BRANCH   1  14
ATOM      9  C   UNL     1       4.696   0.541  -2.421  0.00  0.00    +0.127 C 
ATOM     10  N   UNL     1       5.254  -0.754  -2.123  0.00  0.00    -0.327 N 
ATOM     11  H   UNL     1       6.095  -1.019  -2.620  0.00  0.00    +0.148 HD
ATOM     12  C   UNL     1       4.464  -1.724  -1.619  0.00  0.00    +0.159 A 
ATOM     13  S   UNL     1       5.022  -3.343  -1.588  0.00  0.00    -0.051 S 
ATOM     14  C   UNL     1       3.524  -3.872  -0.919  0.00  0.00    +0.062 A 
ATOM     15  C   UNL     1       2.724  -2.757  -0.697  0.00  0.00    +0.057 A 
ATOM     16  C   UNL     1       1.369  -2.731  -0.082  0.00  0.00    +0.067 C 
ATOM     17  N   UNL     1       3.261  -1.549  -1.128  0.00  0.00    -0.230 NA
ENDBRANCH   1  14
BRANCH   4  18
ATOM     18  C   UNL     1       1.015  -8.143   2.501  0.00  0.00    +0.034 A 
ATOM     19  C   UNL     1      -0.093  -8.164   3.363  0.00  0.00    +0.027 A 
ATOM     20  C   UNL     1      -0.344  -9.264   4.191  0.00  0.00    +0.047 A 
ATOM     21  C   UNL     1       0.505 -10.360   4.154  0.00  0.00    +0.117 A 
ATOM     22  C   UNL     1       1.601 -10.377   3.305  0.00  0.00    +0.047 A 
ATOM     23  C   UNL     1       1.844  -9.274   2.481  0.00  0.00    +0.027 A 
BRANCH  21  24
ATOM     24  O   UNL     1       0.226 -11.418   4.968  0.00  0.00    -0.507 OA
ATOM     25  H   UNL     1       0.879 -12.117   4.794  0.00  0.00    +0.292 HD
ENDBRANCH  21  24
ENDBRANCH   4  18
TORSDOF 3
