REMARK  Name = 
REMARK  2 active torsions:
REMARK  status: ('A' for Active; 'I' for Inactive)
REMARK    1  A    between atoms: C_13  and  S_16
REMARK    2  A    between atoms: S_16  and  N_19
REMARK                            x       y       z     vdW  Elec       q    Type
REMARK                         _______ _______ _______ _____ _____    ______ ____
ROOT
ATOM      1  O   UNL     1       0.868   0.047  -0.043  0.00  0.00    -0.286 OA
ATOM      2  C   UNL     1       2.092   0.052  -0.029  0.00  0.00    +0.200 A 
ATOM      3  C   UNL     1       2.860  -1.200  -0.029  0.00  0.00    +0.066 A 
ATOM      4  C   UNL     1       2.202  -2.434  -0.030  0.00  0.00    +0.044 A 
ATOM      5  C   UNL     1       2.963  -3.605  -0.034  0.00  0.00    +0.113 A 
ATOM      6  C   UNL     1       4.362  -3.549  -0.023  0.00  0.00    +0.033 A 
ATOM      7  C   UNL     1       5.004  -2.307  -0.022  0.00  0.00    +0.049 A 
ATOM      8  C   UNL     1       4.253  -1.129  -0.025  0.00  0.00    +0.139 A 
ATOM      9  O   UNL     1       4.959   0.050  -0.020  0.00  0.00    -0.455 OA
ATOM     10  C   UNL     1       4.253   1.229  -0.017  0.00  0.00    +0.139 A 
ATOM     11  C   UNL     1       5.002   2.408  -0.013  0.00  0.00    +0.047 A 
ATOM     12  C   UNL     1       4.356   3.648  -0.011  0.00  0.00    +0.004 A 
ATOM     13  C   UNL     1       2.962   3.713  -0.013  0.00  0.00    +0.001 A 
ATOM     14  C   UNL     1       2.210   2.539  -0.016  0.00  0.00    +0.015 A 
ATOM     15  C   UNL     1       2.862   1.302  -0.020  0.00  0.00    +0.065 A 
ENDROOT
BRANCH   5  16
ATOM     16  S   UNL     1       2.137  -5.183   0.016  0.00  0.00    +0.102 S 
ATOM     17  O   UNL     1       0.869  -4.979   0.695  0.00  0.00    -0.146 OA
ATOM     18  O   UNL     1       3.089  -6.139   0.548  0.00  0.00    -0.146 OA
BRANCH  16  19
ATOM     19  N   UNL     1       1.874  -5.519  -1.545  0.00  0.00    -0.089 NA
ATOM     20  C   UNL     1       0.877  -6.267  -1.836  0.00  0.00    +0.260 A 
ATOM     21  N   UNL     1      -0.126  -6.843  -1.116  0.00  0.00    -0.224 N 
ATOM     22  H   UNL     1      -0.343  -6.555  -0.166  0.00  0.00    +0.194 HD
ATOM     23  N   UNL     1      -1.067  -7.454  -1.892  0.00  0.00    -0.047 NA
ATOM     24  N   UNL     1      -0.658  -7.387  -3.095  0.00  0.00    -0.047 NA
ATOM     25  N   UNL     1       0.511  -6.691  -3.075  0.00  0.00    -0.224 N 
ATOM     26  H   UNL     1       1.001  -6.437  -3.920  0.00  0.00    +0.194 HD
ENDBRANCH  16  19
ENDBRANCH   5  16
TORSDOF 2
