REMARK  Name = 
REMARK  6 active torsions:
REMARK  status: ('A' for Active; 'I' for Inactive)
REMARK    1  A    between atoms: N_1  and  S_2
REMARK    2  A    between atoms: S_2  and  C_5
REMARK    3  A    between atoms: C_8  and  N_9
REMARK    4  A    between atoms: N_9  and  C_10
REMARK    5  A    between atoms: C_14  and  C_19
REMARK    6  A    between atoms: C_19  and  C_21
REMARK                            x       y       z     vdW  Elec       q    Type
REMARK                         _______ _______ _______ _____ _____    ______ ____
ROOT
ATOM      1  C   UNL     1       5.516   1.350   6.109  0.00  0.00    +0.142 A 
ATOM      2  N   UNL     1       5.399  -0.010   6.158  0.00  0.00    -0.213 NA
ATOM      3  C   UNL     1       6.124  -0.386   7.181  0.00  0.00    +0.140 A 
ATOM      4  N   UNL     1       6.720   0.698   7.810  0.00  0.00    -0.304 N 
ATOM      5  C   UNL     1       7.541   0.577   8.927  0.00  0.00    +0.104 A 
ATOM      6  C   UNL     1       7.775  -0.652   9.446  0.00  0.00    +0.039 A 
ATOM      7  C   UNL     1       7.219  -1.817   8.755  0.00  0.00    +0.017 A 
ATOM      8  C   UNL     1       6.398  -1.680   7.697  0.00  0.00    +0.047 A 
ATOM      9  C   UNL     1       6.305   1.826   7.130  0.00  0.00    +0.136 A 
ENDROOT
BRANCH   1  10
ATOM     10  N   UNL     1       4.893   2.075   5.158  0.00  0.00    -0.298 N 
ATOM     11  H   UNL     1       4.816   3.080   5.264  0.00  0.00    +0.154 HD
BRANCH  10  15
ATOM     12  C   UNL     1       3.849   0.779   1.278  0.00  0.00    +0.105 A 
ATOM     13  C   UNL     1       4.891   0.150   1.952  0.00  0.00    +0.030 A 
ATOM     14  C   UNL     1       5.227   0.575   3.237  0.00  0.00    +0.025 A 
ATOM     15  C   UNL     1       4.553   1.642   3.855  0.00  0.00    +0.033 A 
ATOM     16  C   UNL     1       3.476   2.230   3.177  0.00  0.00    +0.025 A 
ATOM     17  C   UNL     1       3.118   1.800   1.892  0.00  0.00    +0.030 A 
BRANCH  12  18
ATOM     18  S   UNL     1       3.496   0.315  -0.385  0.00  0.00    +0.056 S 
ATOM     19  O   UNL     1       4.484  -0.640  -0.846  0.00  0.00    -0.153 OA
ATOM     20  O   UNL     1       2.079   0.097  -0.530  0.00  0.00    -0.153 OA
BRANCH  18  21
ATOM     21  N   UNL     1       3.850   1.735  -1.215  0.00  0.00    -0.204 NA
ATOM     22  H   UNL     1       4.738   1.643  -1.706  0.00  0.00    +0.144 HD
ATOM     23  H   UNL     1       3.063   1.980  -1.817  0.00  0.00    +0.144 HD
ENDBRANCH  18  21
ENDBRANCH  12  18
ENDBRANCH  10  15
ENDBRANCH   1  10
BRANCH   6  24
ATOM     24  C   UNL     1       8.515  -0.716  10.746  0.00  0.00    +0.197 C 
ATOM     25  O   UNL     1       9.246   0.212  11.095  0.00  0.00    -0.287 OA
BRANCH  24  26
ATOM     26  C   UNL     1       8.337  -1.880  11.658  0.00  0.00    +0.059 A 
ATOM     27  C   UNL     1       7.062  -2.355  12.021  0.00  0.00    +0.053 A 
ATOM     28 CL   UNL     1       5.577  -1.609  11.532  0.00  0.00    -0.083 Cl
ATOM     29  C   UNL     1       6.925  -3.446  12.891  0.00  0.00    +0.021 A 
ATOM     30  C   UNL     1       8.044  -4.023  13.480  0.00  0.00    +0.003 A 
ATOM     31  C   UNL     1       9.308  -3.527  13.180  0.00  0.00    +0.021 A 
ATOM     32  C   UNL     1       9.462  -2.477  12.261  0.00  0.00    +0.053 A 
ATOM     33 CL   UNL     1      11.092  -2.010  11.914  0.00  0.00    -0.083 Cl
ENDBRANCH  24  26
ENDBRANCH   6  24
TORSDOF 6
