REMARK  Name = 
REMARK  3 active torsions:
REMARK  status: ('A' for Active; 'I' for Inactive)
REMARK    1  A    between atoms: N_1  and  C_2
REMARK    2  A    between atoms: C_2  and  C_7
REMARK    3  A    between atoms: C_7  and  O_8
REMARK                            x       y       z     vdW  Elec       q    Type
REMARK                         _______ _______ _______ _____ _____    ______ ____
ROOT
ATOM      1  C   UNL     1       2.509  -0.069  -0.129  0.00  0.00    +0.115 C 
ATOM      2  C   UNL     1       3.072  -1.309   0.571  0.00  0.00    +0.033 C 
ATOM      3  C   UNL     1       4.312  -0.838   1.337  0.00  0.00    +0.002 C 
ATOM      4  C   UNL     1       4.405   0.672   1.145  0.00  0.00    +0.002 C 
ATOM      5  C   UNL     1       3.007   1.104   0.716  0.00  0.00    +0.033 C 
ENDROOT
BRANCH   1   6
ATOM      6  N   UNL     1       1.017  -0.105  -0.200  0.00  0.00    -0.316 NA
ATOM      7  H   UNL     1       0.728  -1.081  -0.334  0.00  0.00    +0.119 HD
ATOM      8  H   UNL     1       0.645   0.136   0.724  0.00  0.00    +0.119 HD
ENDBRANCH   1   6
BRANCH   1   9
ATOM      9  C   UNL     1       3.041   0.042  -1.585  0.00  0.00    +0.325 C 
ATOM     10  O   UNL     1       4.207  -0.057  -1.935  0.00  0.00    -0.249 OA
BRANCH   9  11
ATOM     11  O   UNL     1       2.023   0.275  -2.457  0.00  0.00    -0.479 OA
ATOM     12  H   UNL     1       1.207   0.322  -1.897  0.00  0.00    +0.295 HD
ENDBRANCH   9  11
ENDBRANCH   1   9
TORSDOF 3
