REMARK  Name = 
REMARK  5 active torsions:
REMARK  status: ('A' for Active; 'I' for Inactive)
REMARK    1  A    between atoms: N_3  and  C_4
REMARK    2  A    between atoms: C_4  and  C_5
REMARK    3  A    between atoms: C_5  and  C_6
REMARK    4  A    between atoms: C_6  and  C_7
REMARK    5  A    between atoms: N_13  and  C_14
REMARK                            x       y       z     vdW  Elec       q    Type
REMARK                         _______ _______ _______ _____ _____    ______ ____
ROOT
ATOM      1  O   UNL     1       1.035  -0.096  -0.140  0.00  0.00    -0.253 OA
ATOM      2  C   UNL     1       2.252  -0.027  -0.041  0.00  0.00    +0.300 C 
ATOM      3  N   UNL     1       3.140  -0.495  -0.977  0.00  0.00    -0.297 N 
ATOM      4  H   UNL     1       4.048  -0.738  -0.613  0.00  0.00    +0.151 HD
ATOM      5  N   UNL     1       2.915   0.542   1.017  0.00  0.00    -0.299 N 
ATOM      6  H   UNL     1       3.875   0.810   0.862  0.00  0.00    +0.150 HD
ENDROOT
BRANCH   3   7
ATOM      7  C   UNL     1       2.700  -1.185  -2.186  0.00  0.00    +0.074 C 
ATOM      8  C   UNL     1       2.362  -2.660  -1.915  0.00  0.00    +0.022 C 
ATOM      9  C   UNL     1       3.604  -3.507  -1.633  0.00  0.00    +0.002 C 
ATOM     10  C   UNL     1       4.655  -3.362  -2.730  0.00  0.00    +0.000 C 
ATOM     11  C   UNL     1       5.011  -1.901  -2.985  0.00  0.00    +0.002 C 
ATOM     12  C   UNL     1       3.767  -1.062  -3.280  0.00  0.00    +0.022 C 
ENDBRANCH   3   7
BRANCH   5  13
ATOM     13  C   UNL     1       2.206   1.154   2.122  0.00  0.00    +0.106 C 
BRANCH  13  14
ATOM     14  C   UNL     1       1.872   0.127   3.199  0.00  0.00    +0.023 C 
BRANCH  14  15
ATOM     15  C   UNL     1       1.129   0.771   4.369  0.00  0.00    +0.036 C 
BRANCH  15  16
ATOM     16  C   UNL     1       0.794  -0.246   5.432  0.00  0.00    -0.047 A 
ATOM     17  C   UNL     1      -0.396  -0.981   5.357  0.00  0.00    +0.003 A 
ATOM     18  C   UNL     1      -0.689  -1.953   6.315  0.00  0.00    +0.000 A 
ATOM     19  C   UNL     1       0.207  -2.202   7.354  0.00  0.00    +0.000 A 
ATOM     20  C   UNL     1       1.394  -1.477   7.437  0.00  0.00    +0.000 A 
ATOM     21  C   UNL     1       1.689  -0.506   6.478  0.00  0.00    +0.003 A 
ENDBRANCH  15  16
ENDBRANCH  14  15
ENDBRANCH  13  14
ENDBRANCH   5  13
TORSDOF 5
