REMARK  Name = 
REMARK  11 active torsions:
REMARK  status: ('A' for Active; 'I' for Inactive)
REMARK    1  A    between atoms: O_1  and  C_2
REMARK    2  A    between atoms: C_2  and  C_4
REMARK    3  A    between atoms: C_4  and  C_5
REMARK    4  A    between atoms: C_5  and  C_6
REMARK    5  A    between atoms: C_6  and  C_8
REMARK    6  A    between atoms: C_8  and  C_9
REMARK    7  A    between atoms: C_9  and  C_10
REMARK    8  A    between atoms: C_10  and  C_12
REMARK    9  A    between atoms: C_12  and  C_13
REMARK   10  A    between atoms: C_13  and  C_14
REMARK   11  A    between atoms: C_14  and  O_15
REMARK                            x       y       z     vdW  Elec       q    Type
REMARK                         _______ _______ _______ _____ _____    ______ ____
ROOT
ATOM      1  C   UNL     1       6.990   1.139  -2.023  0.00  0.00    +0.082 C 
ENDROOT
BRANCH   1   2
ATOM      2  C   UNL     1       5.479   1.264  -2.005  0.00  0.00    +0.134 C 
ATOM      3  O   UNL     1       4.835   1.368  -3.049  0.00  0.00    -0.297 OA
BRANCH   2   4
ATOM      4  C   UNL     1       4.781   1.204  -0.664  0.00  0.00    +0.085 C 
BRANCH   4   5
ATOM      5  C   UNL     1       5.100   2.435   0.174  0.00  0.00    +0.128 C 
BRANCH   5   6
ATOM      6  C   UNL     1       4.362   2.425   1.485  0.00  0.00    +0.305 C 
ATOM      7  O   UNL     1       3.578   1.559   1.845  0.00  0.00    -0.251 OA
BRANCH   6   8
ATOM      8  O   UNL     1       4.678   3.489   2.261  0.00  0.00    -0.481 OA
ATOM      9  H   UNL     1       5.321   4.104   1.861  0.00  0.00    +0.295 HD
ENDBRANCH   6   8
ENDBRANCH   5   6
ENDBRANCH   4   5
ENDBRANCH   2   4
ENDBRANCH   1   2
BRANCH   1  10
ATOM     10  C   UNL     1       7.576   1.829  -3.248  0.00  0.00    +0.082 C 
BRANCH  10  11
ATOM     11  C   UNL     1       9.088   1.781  -3.235  0.00  0.00    +0.134 C 
ATOM     12  O   UNL     1       9.745   1.810  -2.189  0.00  0.00    -0.297 OA
BRANCH  11  13
ATOM     13  C   UNL     1       9.822   1.861  -4.547  0.00  0.00    +0.085 C 
BRANCH  13  14
ATOM     14  C   UNL     1      10.041   3.305  -4.955  0.00  0.00    +0.128 C 
BRANCH  14  15
ATOM     15  C   UNL     1      10.997   4.150  -4.136  0.00  0.00    +0.305 C 
ATOM     16  O   UNL     1      11.305   5.280  -4.503  0.00  0.00    -0.251 OA
BRANCH  15  17
ATOM     17  O   UNL     1      11.479   3.645  -2.990  0.00  0.00    -0.481 OA
ATOM     18  H   UNL     1      11.104   2.807  -2.640  0.00  0.00    +0.295 HD
ENDBRANCH  15  17
ENDBRANCH  14  15
ENDBRANCH  13  14
ENDBRANCH  11  13
ENDBRANCH  10  11
ENDBRANCH   1  10
TORSDOF 11
