REMARK  Name = 
REMARK  9 active torsions:
REMARK  status: ('A' for Active; 'I' for Inactive)
REMARK    1  A    between atoms: O_1  and  C_2
REMARK    2  A    between atoms: C_5  and  C_7
REMARK    3  A    between atoms: C_7  and  O_8
REMARK    4  A    between atoms: O_8  and  P_9
REMARK    5  A    between atoms: P_9  and  O_10
REMARK    6  A    between atoms: P_9  and  O_11
REMARK    7  A    between atoms: C_13  and  O_15
REMARK    8  A    between atoms: C_16  and  O_18
REMARK    9  A    between atoms: C_19  and  O_21
REMARK                            x       y       z     vdW  Elec       q    Type
REMARK                         _______ _______ _______ _____ _____    ______ ____
ROOT
ATOM      1  C   UNL     1       2.704   0.188   0.144  0.00  0.00    +0.279 C 
ATOM      2  C   UNL     1       3.267   1.291  -0.780  0.00  0.00    +0.201 C 
ATOM      3  C   UNL     1       2.856   1.029  -2.239  0.00  0.00    +0.179 C 
ATOM      4  C   UNL     1       3.215  -0.408  -2.638  0.00  0.00    +0.177 C 
ATOM      5  C   UNL     1       2.628  -1.441  -1.655  0.00  0.00    +0.179 C 
ATOM      6  O   UNL     1       2.970  -1.142  -0.294  0.00  0.00    -0.341 OA
ENDROOT
BRANCH   1   7
ATOM      7  O   UNL     1       1.300   0.359   0.290  0.00  0.00    -0.365 OA
ATOM      8  H   UNL     1       1.088  -0.025   1.160  0.00  0.00    +0.213 HD
ENDBRANCH   1   7
BRANCH   2   9
ATOM      9  O   UNL     1       4.692   1.389  -0.652  0.00  0.00    -0.384 OA
ATOM     10  H   UNL     1       5.083   0.806  -1.339  0.00  0.00    +0.210 HD
ENDBRANCH   2   9
BRANCH   3  11
ATOM     11  O   UNL     1       1.470   1.290  -2.466  0.00  0.00    -0.386 OA
ATOM     12  H   UNL     1       0.991   1.185  -1.619  0.00  0.00    +0.210 HD
ENDBRANCH   3  11
BRANCH   4  13
ATOM     13  O   UNL     1       4.657  -0.518  -2.627  0.00  0.00    -0.386 OA
ATOM     14  H   UNL     1       4.876  -1.433  -2.892  0.00  0.00    +0.210 HD
ENDBRANCH   4  13
BRANCH   5  15
ATOM     15  C   UNL     1       1.133  -1.741  -1.849  0.00  0.00    +0.206 C 
BRANCH  15  16
ATOM     16  O   UNL     1       0.888  -2.029  -3.216  0.00  0.00    -0.284 OA
BRANCH  16  17
ATOM     17  P   UNL     1      -0.502  -2.713  -3.595  0.00  0.00    +0.472 P 
ATOM     18  O   UNL     1      -1.744  -2.039  -3.127  0.00  0.00    -0.228 OA
BRANCH  17  19
ATOM     19  O   UNL     1      -0.369  -4.197  -3.023  0.00  0.00    -0.303 OA
ATOM     20  H   UNL     1      -1.261  -4.551  -2.824  0.00  0.00    +0.222 HD
ENDBRANCH  17  19
BRANCH  17  21
ATOM     21  O   UNL     1      -0.385  -2.976  -5.158  0.00  0.00    -0.303 OA
ATOM     22  H   UNL     1       0.456  -3.412  -5.377  0.00  0.00    +0.222 HD
ENDBRANCH  17  21
ENDBRANCH  16  17
ENDBRANCH  15  16
ENDBRANCH   5  15
TORSDOF 9
