REMARK  Name = 
REMARK  12 active torsions:
REMARK  status: ('A' for Active; 'I' for Inactive)
REMARK    1  A    between atoms: C_1  and  C_2
REMARK    2  A    between atoms: C_2  and  N_4
REMARK    3  A    between atoms: C_2  and  C_23
REMARK    4  A    between atoms: C_5  and  C_7
REMARK    5  A    between atoms: C_7  and  N_8
REMARK    6  A    between atoms: C_9  and  C_11
REMARK    7  A    between atoms: C_11  and  N_13
REMARK    8  A    between atoms: C_11  and  C_17
REMARK    9  A    between atoms: N_25  and  C_26
REMARK   10  A    between atoms: C_26  and  C_27
REMARK   11  A    between atoms: C_27  and  C_28
REMARK   12  A    between atoms: C_28  and  S_29
REMARK                            x       y       z     vdW  Elec       q    Type
REMARK                         _______ _______ _______ _____ _____    ______ ____
ROOT
ATOM      1  N   UNL     1       2.794  -0.457   4.856  0.00  0.00    -0.304 N 
ATOM      2  H   UNL     1       2.393   0.470   4.826  0.00  0.00    +0.149 HD
ATOM      3  C   UNL     1       2.544  -1.271   5.941  0.00  0.00    +0.251 C 
ATOM      4  O   UNL     1       2.660  -2.494   5.850  0.00  0.00    -0.272 OA
ENDROOT
BRANCH   1   5
ATOM      5  C   UNL     1       3.149  -1.044   3.575  0.00  0.00    +0.200 C 
BRANCH   5   8
ATOM      6  N   UNL     1       1.315  -2.578   3.074  0.00  0.00    -0.303 N 
ATOM      7  H   UNL     1       1.629  -3.087   3.905  0.00  0.00    +0.149 HD
ATOM      8  C   UNL     1       1.893  -1.369   2.773  0.00  0.00    +0.231 C 
ATOM      9  O   UNL     1       1.402  -0.570   1.978  0.00  0.00    -0.274 OA
BRANCH   6  11
ATOM     10  C   UNL     1       0.435  -3.713   1.090  0.00  0.00    +0.038 C 
ATOM     11  C   UNL     1       0.101  -3.038   2.418  0.00  0.00    +0.156 C 
BRANCH  11  12
ATOM     12  C   UNL     1      -0.653  -4.004   3.351  0.00  0.00    +0.233 C 
ATOM     13  N   UNL     1      -1.892  -4.404   2.884  0.00  0.00    -0.314 N 
ATOM     14  H   UNL     1      -2.312  -3.870   2.133  0.00  0.00    +0.149 HD
ATOM     15  O   UNL     1      -0.184  -4.391   4.419  0.00  0.00    -0.274 OA
BRANCH  13  16
ATOM     16  C   UNL     1      -2.751  -5.260   3.676  0.00  0.00    +0.105 C 
BRANCH  16  17
ATOM     17  C   UNL     1      -3.643  -6.143   2.807  0.00  0.00    +0.029 C 
BRANCH  17  18
ATOM     18  C   UNL     1      -2.822  -7.106   1.953  0.00  0.00    +0.067 C 
BRANCH  18  19
ATOM     19  S   UNL     1      -3.913  -8.175   0.970  0.00  0.00    -0.178 S 
ATOM     20  H   UNL     1      -4.451  -8.840   2.003  0.00  0.00    +0.102 HD
ENDBRANCH  18  19
ENDBRANCH  17  18
ENDBRANCH  16  17
ENDBRANCH  13  16
ENDBRANCH  11  12
ENDBRANCH   6  11
ENDBRANCH   5   8
ENDBRANCH   1   5
BRANCH   3  21
ATOM     21  C   UNL     1       2.264  -0.575   7.303  0.00  0.00    +0.233 C 
BRANCH  21  22
ATOM     22  N   UNL     1       3.557  -0.312   7.933  0.00  0.00    -0.265 N 
ATOM     23  H   UNL     1       4.181   0.276   7.402  0.00  0.00    +0.259 HD
ATOM     24  C   UNL     1       4.150  -1.091   8.860  0.00  0.00    +0.377 C 
ATOM     25  N   UNL     1       3.621  -1.930   9.670  0.00  0.00    -0.130 NA
ATOM     26  H   UNL     1       2.612  -1.965   9.534  0.00  0.00    +0.306 HD
ATOM     27  N   UNL     1       5.478  -0.884   8.929  0.00  0.00    -0.289 N 
ATOM     28  H   UNL     1       5.862  -1.537   9.606  0.00  0.00    +0.255 HD
ATOM     29  H   UNL     1       5.945  -1.023   8.043  0.00  0.00    +0.255 HD
ENDBRANCH  21  22
BRANCH  21  30
ATOM     30  C   UNL     1       1.444   0.744   7.234  0.00  0.00    +0.035 C 
ATOM     31  C   UNL     1       1.296   1.430   8.609  0.00  0.00    +0.007 C 
ATOM     32  C   UNL     1       0.464   0.609   9.588  0.00  0.00    +0.000 C 
ATOM     33  C   UNL     1      -0.898   0.212   9.023  0.00  0.00    +0.000 C 
ATOM     34  C   UNL     1      -0.869  -0.289   7.580  0.00  0.00    +0.000 C 
ATOM     35  C   UNL     1       0.030   0.539   6.662  0.00  0.00    +0.007 C 
ENDBRANCH  21  30
ENDBRANCH   3  21
TORSDOF 11
