REMARK  Name = 
REMARK  9 active torsions:
REMARK  status: ('A' for Active; 'I' for Inactive)
REMARK    1  A    between atoms: O_1  and  C_2
REMARK    2  A    between atoms: C_3  and  C_4
REMARK    3  A    between atoms: C_4  and  N_5
REMARK    4  A    between atoms: N_5  and  C_6
REMARK    5  A    between atoms: N_9  and  S_12
REMARK    6  A    between atoms: S_12  and  N_15
REMARK    7  A    between atoms: N_15  and  C_16
REMARK    8  A    between atoms: C_18  and  O_19
REMARK    9  A    between atoms: O_19  and  C_20
REMARK                            x       y       z     vdW  Elec       q    Type
REMARK                         _______ _______ _______ _____ _____    ______ ____
ROOT
ATOM      1  S   UNL     1       0.416   6.795   2.233  0.00  0.00    +0.112 S 
ATOM      2  O   UNL     1      -0.223   6.031   1.186  0.00  0.00    -0.138 OA
ATOM      3  O   UNL     1       0.253   8.224   2.328  0.00  0.00    -0.138 OA
ENDROOT
BRANCH   1   7
ATOM      4  C   UNL     1       2.330   4.508   0.073  0.00  0.00    +0.056 C 
ATOM      5  C   UNL     1       2.621   6.011  -0.193  0.00  0.00    +0.036 C 
ATOM      6  C   UNL     1       2.815   6.932   1.016  0.00  0.00    +0.112 C 
ATOM      7  N   UNL     1       2.078   6.470   2.218  0.00  0.00    -0.164 NA
ATOM      8  C   UNL     1       2.525   5.111   2.552  0.00  0.00    +0.112 C 
ATOM      9  C   UNL     1       2.029   4.120   1.533  0.00  0.00    +0.036 C 
BRANCH   4  10
ATOM     10  N   UNL     1       3.347   3.561  -0.473  0.00  0.00    -0.309 NA
ATOM     11  H   UNL     1       3.623   3.876  -1.408  0.00  0.00    +0.123 HD
BRANCH  10  12
ATOM     12  C   UNL     1       2.678   2.246  -0.657  0.00  0.00    +0.120 C 
BRANCH  12  18
ATOM     13  C   UNL     1       4.743   0.786  -0.298  0.00  0.00    +0.121 A 
ATOM     14  C   UNL     1       5.406  -0.423  -0.498  0.00  0.00    +0.046 A 
ATOM     15  C   UNL     1       4.920  -1.337  -1.435  0.00  0.00    +0.004 A 
ATOM     16  C   UNL     1       3.780  -1.034  -2.175  0.00  0.00    +0.001 A 
ATOM     17  C   UNL     1       3.117   0.173  -1.965  0.00  0.00    +0.008 A 
ATOM     18  C   UNL     1       3.583   1.099  -1.015  0.00  0.00    +0.008 A 
BRANCH  13  19
ATOM     19  O   UNL     1       5.249   1.635   0.647  0.00  0.00    -0.506 OA
ATOM     20  H   UNL     1       4.798   2.495   0.516  0.00  0.00    +0.292 HD
ENDBRANCH  13  19
ENDBRANCH  12  18
ENDBRANCH  10  12
ENDBRANCH   4  10
ENDBRANCH   1   7
BRANCH   1  21
ATOM     21  N   UNL     1       0.019   6.153   3.757  0.00  0.00    -0.206 N 
ATOM     22  H   UNL     1       0.214   6.895   4.430  0.00  0.00    +0.175 HD
BRANCH  21  23
ATOM     23  C   UNL     1      -1.316   5.642   3.869  0.00  0.00    +0.053 A 
ATOM     24  C   UNL     1      -2.382   6.509   4.109  0.00  0.00    +0.025 A 
ATOM     25  C   UNL     1      -3.686   6.015   4.142  0.00  0.00    +0.005 A 
ATOM     26  C   UNL     1      -3.931   4.666   3.898  0.00  0.00    +0.046 A 
ATOM     27  C   UNL     1      -2.869   3.811   3.583  0.00  0.00    +0.130 A 
ATOM     28  C   UNL     1      -1.554   4.288   3.615  0.00  0.00    +0.070 A 
BRANCH  27  29
ATOM     29  O   UNL     1      -3.039   2.477   3.270  0.00  0.00    -0.456 OA
BRANCH  29  30
ATOM     30  C   UNL     1      -4.090   2.113   2.452  0.00  0.00    +0.129 A 
ATOM     31  C   UNL     1      -4.627   0.840   2.669  0.00  0.00    +0.049 A 
ATOM     32  C   UNL     1      -5.690   0.383   1.886  0.00  0.00    +0.042 A 
ATOM     33  C   UNL     1      -6.206   1.200   0.886  0.00  0.00    +0.124 A 
ATOM     34  F   UNL     1      -7.230   0.766   0.141  0.00  0.00    -0.205 F 
ATOM     35  C   UNL     1      -5.665   2.457   0.641  0.00  0.00    +0.042 A 
ATOM     36  C   UNL     1      -4.590   2.908   1.411  0.00  0.00    +0.049 A 
ENDBRANCH  29  30
ENDBRANCH  27  29
ENDBRANCH  21  23
ENDBRANCH   1  21
TORSDOF 9
