REMARK  Name = 
REMARK  7 active torsions:
REMARK  status: ('A' for Active; 'I' for Inactive)
REMARK    1  A    between atoms: C_5  and  C_6
REMARK    2  A    between atoms: N_10  and  C_11
REMARK    3  A    between atoms: CA_19  and  C_37
REMARK    4  A    between atoms: CA_23  and  N_25
REMARK    5  A    between atoms: C_26  and  C_28
REMARK    6  A    between atoms: C_28  and  N_29
REMARK    7  A    between atoms: C_37  and  O_38
REMARK                            x       y       z     vdW  Elec       q    Type
REMARK                         _______ _______ _______ _____ _____    ______ ____
ROOT
ATOM      1  C   UNL     1      -2.221   9.420   9.182  0.00  0.00    +0.169 C 
ATOM      2  CA  UNL     1      -2.857   8.916  10.527  0.00  0.00    +0.191 C 
ATOM      3  C   UNL     1      -3.825   8.134   9.565  0.00  0.00    +0.244 C 
ATOM      4  O   UNL     1      -4.783   7.401   9.623  0.00  0.00    -0.273 OA
ATOM      5  N   UNL     1      -3.053   8.442   8.502  0.00  0.00    -0.249 N 
ATOM      6  CA  UNL     1      -2.951   8.137   7.168  0.00  0.00    +0.126 C 
ATOM      7  C   UNL     1      -1.791   8.395   6.506  0.00  0.00    -0.009 C 
ATOM      8  C   UNL     1      -0.562   9.041   7.133  0.00  0.00    +0.108 C 
ATOM      9  S   UNL     1      -0.481   8.975   8.932  0.00  0.00    -0.131 S 
ENDROOT
BRANCH   7  10
ATOM     10  C   UNL     1      -1.488   8.074   5.097  0.00  0.00    +0.015 C 
ATOM     11  C   UNL     1      -1.431   6.851   4.553  0.00  0.00    +0.016 C 
ATOM     12  C   UNL     1      -0.972   6.579   3.143  0.00  0.00    +0.243 C 
ATOM     13  O   UNL     1      -0.775   7.417   2.284  0.00  0.00    -0.270 OA
ATOM     14  N   UNL     1      -0.798   5.200   3.051  0.00  0.00    -0.293 N 
ATOM     15  C   UNL     1      -0.838   4.598   4.365  0.00  0.00    +0.113 C 
ATOM     16  C   UNL     1      -1.722   5.524   5.174  0.00  0.00    +0.059 C 
BRANCH  14  17
ATOM     17  C   UNL     1      -0.335   4.514   1.830  0.00  0.00    +0.091 C 
ATOM     18  C   UNL     1       1.136   4.768   1.463  0.00  0.00    +0.103 C 
ATOM     19  N   UNL     1       1.931   3.615   1.948  0.00  0.00    -0.314 NA
ATOM     20  H   UNL     1       2.414   3.199   1.150  0.00  0.00    +0.122 HD
ATOM     21  C   UNL     1       0.984   2.640   2.497  0.00  0.00    +0.083 C 
ATOM     22  C   UNL     1      -0.366   2.991   1.898  0.00  0.00    +0.039 C 
ENDBRANCH  14  17
ENDBRANCH   7  10
BRANCH   2  23
ATOM     23  N   UNL     1      -1.963   8.072  11.363  0.00  0.00    -0.296 N 
ATOM     24  H   UNL     1      -1.093   7.737  10.942  0.00  0.00    +0.150 HD
ATOM     25  C   UNL     1      -2.339   7.457  12.535  0.00  0.00    +0.270 C 
ATOM     26  O   UNL     1      -3.438   7.674  13.040  0.00  0.00    -0.268 OA
BRANCH  25  27
ATOM     27  C   UNL     1      -1.295   6.540  13.166  0.00  0.00    +0.211 C 
ATOM     28  C   UNL     1      -0.313   5.937  12.436  0.00  0.00    +0.174 A 
ATOM     29  N   UNL     1      -0.232   6.137  11.053  0.00  0.00    -0.204 NA
ATOM     30  C   UNL     1       0.747   5.427  10.585  0.00  0.00    +0.174 A 
ATOM     31  N   UNL     1       1.121   5.360   9.286  0.00  0.00    -0.336 N 
ATOM     32  H   UNL     1       0.799   6.139   8.724  0.00  0.00    +0.144 HD
ATOM     33  H   UNL     1       2.084   5.095   9.122  0.00  0.00    +0.144 HD
ATOM     34  S   UNL     1       1.654   4.518  11.787  0.00  0.00    +0.023 S 
ATOM     35  N   UNL     1       0.659   5.100  12.971  0.00  0.00    -0.306 N 
ATOM     36  H   UNL     1       0.696   4.902  13.966  0.00  0.00    +0.176 HD
BRANCH  27  37
ATOM     37  N   UNL     1      -1.429   6.289  14.477  0.00  0.00    -0.022 NA
ATOM     38  O   UNL     1      -1.492   7.296  15.193  0.00  0.00    -0.143 OA
ENDBRANCH  27  37
ENDBRANCH  25  27
ENDBRANCH   2  23
BRANCH   6  39
ATOM     39  C   UNL     1      -4.130   7.537   6.430  0.00  0.00    +0.352 C 
ATOM     40  OXT UNL     1      -4.277   7.636   5.219  0.00  0.00    -0.244 OA
BRANCH  39  41
ATOM     41  O   UNL     1      -5.044   6.875   7.161  0.00  0.00    -0.476 OA
ATOM     42  H   UNL     1      -4.976   6.908   8.142  0.00  0.00    +0.295 HD
ENDBRANCH  39  41
ENDBRANCH   6  39
TORSDOF 7
