REMARK  Name = 
REMARK  5 active torsions:
REMARK  status: ('A' for Active; 'I' for Inactive)
REMARK    1  A    between atoms: C_1  and  N_2
REMARK    2  A    between atoms: N_2  and  C_3
REMARK    3  A    between atoms: C_3  and  C_4
REMARK    4  A    between atoms: C_13  and  O_14
REMARK    5  A    between atoms: C_21  and  O_22
REMARK                            x       y       z     vdW  Elec       q    Type
REMARK                         _______ _______ _______ _____ _____    ______ ____
ROOT
ATOM      1  C   UNL     1       0.000   0.000   0.000  0.00  0.00    +0.193 C 
ATOM      2  N   UNL     1      -0.000  -0.000  -0.000  0.00  0.00    +0.248 N 
ATOM      3  C   UNL     1      -0.000  -0.000  -0.000  0.00  0.00    +0.104 C 
ATOM      4  C   UNL     1      -0.000  -0.000  -0.000  0.00  0.00    +0.123 C 
ATOM      5  C   UNL     1      -0.000  -0.000   0.000  0.00  0.00    +0.049 C 
ATOM      6  C   UNL     1      -0.000  -0.000  -0.000  0.00  0.00    +0.081 C 
ATOM      7  C   UNL     1      -0.000  -0.000   0.000  0.00  0.00    +0.175 C 
ATOM      8  O   UNL     1      -0.000  -0.000  -0.000  0.00  0.00    -0.293 OA
ATOM      9  C   UNL     1      -0.000  -0.000  -0.000  0.00  0.00    +0.253 C 
ATOM     10  O   UNL     1      -0.000  -0.000   0.000  0.00  0.00    -0.476 OA
ATOM     11  C   UNL     1      -0.000  -0.000  -0.000  0.00  0.00    +0.167 A 
ATOM     12  C   UNL     1      -0.000  -0.000  -0.000  0.00  0.00    +0.015 A 
ATOM     13  C   UNL     1      -0.000  -0.000  -0.000  0.00  0.00    -0.034 A 
ATOM     14  C   UNL     1      -0.000  -0.000  -0.000  0.00  0.00    +0.008 A 
ATOM     15  C   UNL     1      -0.000  -0.000  -0.000  0.00  0.00    +0.049 A 
ATOM     16  C   UNL     1      -0.000  -0.000  -0.000  0.00  0.00    +0.159 A 
ATOM     17  C   UNL     1      -0.000  -0.000   0.000  0.00  0.00    +0.082 C 
ATOM     18  C   UNL     1      -0.000  -0.000   0.000  0.00  0.00    +0.070 C 
ATOM     19  C   UNL     1      -0.000  -0.000  -0.000  0.00  0.00    +0.093 C 
ATOM     20  C   UNL     1      -0.000  -0.000  -0.000  0.00  0.00    +0.134 C 
ENDROOT
BRANCH  16  21
ATOM     21  O   UNL     1      -0.000  -0.000   0.000  0.00  0.00    -0.503 OA
ATOM     22  H   UNL     1       0.000   0.000   0.000  0.00  0.00    +0.292 HD
ENDBRANCH  16  21
BRANCH   4  23
ATOM     23  O   UNL     1      -0.000  -0.000  -0.000  0.00  0.00    -0.382 OA
ATOM     24  H   UNL     1       0.000   0.000   0.000  0.00  0.00    +0.210 HD
ENDBRANCH   4  23
BRANCH   2  25
ATOM     25  C   UNL     1      -0.000  -0.000   0.000  0.00  0.00    +0.161 C 
BRANCH  25  26
ATOM     26  C   UNL     1      -0.000  -0.000   0.000  0.00  0.00    +0.015 C 
ATOM     27  C   UNL     1      -0.000  -0.000  -0.000  0.00  0.00    +0.009 C 
ENDBRANCH  25  26
ENDBRANCH   2  25
TORSDOF 4
