REMARK  Name = 
REMARK  5 active torsions:
REMARK  status: ('A' for Active; 'I' for Inactive)
REMARK    1  A    between atoms: N_10  and  C1*_11
REMARK    2  A    between atoms: C4*_14  and  C5*_16
REMARK    3  A    between atoms: C5*_16  and  O5*_17
REMARK    4  A    between atoms: C3*_18  and  O3*_20
REMARK    5  A    between atoms: C2*_21  and  O2*_23
REMARK                            x       y       z     vdW  Elec       q    Type
REMARK                         _______ _______ _______ _____ _____    ______ ____
ROOT
ATOM      1  N   UNL     1       9.273  -2.151  -5.288  0.00  0.00    -0.341 N 
ATOM      2  H   UNL     1       8.664  -2.872  -5.661  0.00  0.00    +0.144 HD
ATOM      3  H   UNL     1       9.532  -1.383  -5.891  0.00  0.00    +0.144 HD
ATOM      4  C   UNL     1       8.876  -1.711  -4.031  0.00  0.00    +0.144 A 
ATOM      5  C   UNL     1       8.053  -2.479  -3.176  0.00  0.00    +0.128 A 
ATOM      6  N   UNL     1       7.452  -3.700  -3.397  0.00  0.00    -0.232 NA
ATOM      7  C   UNL     1       6.813  -3.976  -2.285  0.00  0.00    +0.202 A 
ATOM      8  N   UNL     1       7.010  -3.018  -1.323  0.00  0.00    -0.301 N 
ATOM      9  C   UNL     1       7.737  -1.998  -1.905  0.00  0.00    +0.076 A 
ATOM     10  C   UNL     1       8.168  -0.743  -1.476  0.00  0.00    +0.048 A 
ATOM     11  C   UNL     1       8.940  -0.044  -2.395  0.00  0.00    +0.115 A 
ATOM     12  N   UNL     1       9.294  -0.488  -3.624  0.00  0.00    -0.238 NA
ENDROOT
BRANCH   8  13
ATOM     13  C1* UNL     1       6.475  -3.075   0.033  0.00  0.00    +0.252 C 
ATOM     14  C2* UNL     1       6.432  -4.462   0.694  0.00  0.00    +0.195 C 
ATOM     15  C3* UNL     1       7.782  -4.588   1.400  0.00  0.00    +0.178 C 
ATOM     16  C4* UNL     1       8.374  -3.178   1.337  0.00  0.00    +0.177 C 
ATOM     17  O4* UNL     1       7.308  -2.302   0.934  0.00  0.00    -0.346 OA
BRANCH  14  18
ATOM     18  O2* UNL     1       5.366  -4.509   1.662  0.00  0.00    -0.385 OA
ATOM     19  H2* UNL     1       5.513  -3.801   2.318  0.00  0.00    +0.210 HD
ENDBRANCH  14  18
BRANCH  15  20
ATOM     20  O3* UNL     1       8.619  -5.507   0.703  0.00  0.00    -0.386 OA
ATOM     21  H3* UNL     1       9.435  -5.603   1.231  0.00  0.00    +0.210 HD
ENDBRANCH  15  20
BRANCH  16  22
ATOM     22  C5* UNL     1       8.983  -2.724   2.659  0.00  0.00    +0.190 C 
BRANCH  22  23
ATOM     23  O5* UNL     1      10.039  -3.596   3.043  0.00  0.00    -0.392 OA
ATOM     24  H5* UNL     1      10.851  -3.286   2.600  0.00  0.00    +0.210 HD
ENDBRANCH  22  23
ENDBRANCH  16  22
ENDBRANCH   8  13
TORSDOF 5
