REMARK  Name = 
REMARK  13 active torsions:
REMARK  status: ('A' for Active; 'I' for Inactive)
REMARK    1  A    between atoms: C_8  and  N_13
REMARK    2  A    between atoms: N_13  and  C_14
REMARK    3  A    between atoms: C_14  and  C_15
REMARK    4  A    between atoms: C_15  and  C_16
REMARK    5  A    between atoms: C_16  and  C_17
REMARK    6  A    between atoms: C_17  and  C_18
REMARK    7  A    between atoms: C_18  and  C_19
REMARK    8  A    between atoms: C_19  and  C_20
REMARK    9  A    between atoms: C_20  and  C_21
REMARK   10  A    between atoms: C_21  and  C_22
REMARK   11  A    between atoms: C_22  and  C_23
REMARK   12  A    between atoms: C_23  and  N_24
REMARK   13  A    between atoms: N_24  and  C_25
REMARK                            x       y       z     vdW  Elec       q    Type
REMARK                         _______ _______ _______ _____ _____    ______ ____
ROOT
ATOM      1  C   UNL     1       6.276  -7.782  -3.952  0.00  0.00    +0.000 C 
ENDROOT
BRANCH   1   2
ATOM      2  C   UNL     1       5.631  -6.734  -3.044  0.00  0.00    +0.000 C 
BRANCH   2   3
ATOM      3  C   UNL     1       5.337  -7.299  -1.654  0.00  0.00    +0.000 C 
BRANCH   3   4
ATOM      4  C   UNL     1       4.724  -6.254  -0.752  0.00  0.00    +0.001 C 
BRANCH   4   5
ATOM      5  C   UNL     1       4.409  -6.841   0.627  0.00  0.00    +0.015 C 
BRANCH   5   6
ATOM      6  C   UNL     1       3.858  -5.711   1.480  0.00  0.00    +0.081 C 
BRANCH   6   7
ATOM      7  N   UNL     1       3.591  -6.093   2.852  0.00  0.00    -0.309 NA
ATOM      8  H   UNL     1       4.451  -6.401   3.304  0.00  0.00    +0.123 HD
BRANCH   7  14
ATOM      9  O   UNL     1       6.414  -0.716   4.492  0.00  0.00    -0.268 OA
ATOM     10  C   UNL     1       5.574  -1.583   4.300  0.00  0.00    +0.249 A 
ATOM     11  C   UNL     1       5.133  -1.962   2.939  0.00  0.00    +0.070 A 
ATOM     12  C   UNL     1       4.240  -2.948   2.788  0.00  0.00    +0.012 A 
ATOM     13  C   UNL     1       3.784  -3.765   3.908  0.00  0.00    -0.011 A 
ATOM     14  C   UNL     1       2.954  -5.033   3.661  0.00  0.00    +0.086 C 
ATOM     15  C   UNL     1       2.576  -5.744   4.983  0.00  0.00    +0.024 C 
ATOM     16  C   UNL     1       2.227  -4.752   6.083  0.00  0.00    +0.008 C 
ATOM     17  C   UNL     1       3.438  -3.874   6.394  0.00  0.00    +0.053 C 
ATOM     18  C   UNL     1       4.052  -3.304   5.149  0.00  0.00    +0.024 A 
ATOM     19  N   UNL     1       4.924  -2.242   5.319  0.00  0.00    -0.326 N 
ATOM     20  H   UNL     1       5.174  -1.942   6.252  0.00  0.00    +0.169 HD
ENDBRANCH   7  14
ENDBRANCH   6   7
ENDBRANCH   5   6
ENDBRANCH   4   5
ENDBRANCH   3   4
ENDBRANCH   2   3
ENDBRANCH   1   2
BRANCH   1  21
ATOM     21  C   UNL     1       5.361  -8.987  -4.119  0.00  0.00    +0.000 C 
BRANCH  21  22
ATOM     22  C   UNL     1       5.970 -10.100  -4.961  0.00  0.00    +0.002 C 
BRANCH  22  23
ATOM     23  C   UNL     1       5.018 -11.305  -5.030  0.00  0.00    +0.019 C 
BRANCH  23  24
ATOM     24  C   UNL     1       3.701 -10.875  -5.665  0.00  0.00    +0.101 C 
BRANCH  24  25
ATOM     25  N   UNL     1       2.839 -12.005  -5.972  0.00  0.00    -0.343 N 
ATOM     26  H   UNL     1       2.797 -12.599  -5.151  0.00  0.00    +0.146 HD
BRANCH  25  27
ATOM     27  C   UNL     1       1.514 -11.723  -6.437  0.00  0.00    +0.041 A 
ATOM     28  C   UNL     1       0.442 -12.579  -6.001  0.00  0.00    +0.021 A 
ATOM     29  C   UNL     1      -0.849 -12.319  -6.508  0.00  0.00    +0.073 A 
ATOM     30  C   UNL     1      -1.914 -13.121  -6.112  0.00  0.00    +0.028 A 
ATOM     31  C   UNL     1      -1.764 -14.172  -5.207  0.00  0.00    +0.002 A 
ATOM     32  C   UNL     1      -0.513 -14.440  -4.682  0.00  0.00    +0.001 A 
ATOM     33  N   UNL     1      -1.113 -11.325  -7.365  0.00  0.00    -0.251 NA
ATOM     34  C   UNL     1      -0.100 -10.540  -7.798  0.00  0.00    +0.047 A 
ATOM     35  C   UNL     1      -0.500  -9.487  -8.807  0.00  0.00    +0.056 C 
ATOM     36  C   UNL     1       0.524  -8.371  -8.978  0.00  0.00    +0.006 C 
ATOM     37  C   UNL     1       1.887  -8.986  -9.211  0.00  0.00    +0.005 C 
ATOM     38  C   UNL     1       2.285  -9.812  -7.998  0.00  0.00    +0.039 C 
ATOM     39  C   UNL     1       0.573 -13.660  -5.078  0.00  0.00    +0.012 A 
ATOM     40  C   UNL     1       1.231 -10.719  -7.405  0.00  0.00    -0.005 A 
ENDBRANCH  25  27
ENDBRANCH  24  25
ENDBRANCH  23  24
ENDBRANCH  22  23
ENDBRANCH  21  22
ENDBRANCH   1  21
TORSDOF 13
