REMARK  Name = 
REMARK  5 active torsions:
REMARK  status: ('A' for Active; 'I' for Inactive)
REMARK    1  A    between atoms: O5*_1  and  C5*_2
REMARK    2  A    between atoms: C5*_2  and  C4*_3
REMARK    3  A    between atoms: C1*_6  and  N_14
REMARK    4  A    between atoms: C2*_8  and  O2*_10
REMARK    5  A    between atoms: C3*_11  and  O3*_13
REMARK                            x       y       z     vdW  Elec       q    Type
REMARK                         _______ _______ _______ _____ _____    ______ ____
ROOT
ATOM      1  C4* UNL     1       2.866  -1.250   0.784  0.00  0.00    +0.177 C 
ATOM      2  C3* UNL     1       3.113  -2.519  -0.033  0.00  0.00    +0.178 C 
ATOM      3  C2* UNL     1       2.756  -3.676   0.897  0.00  0.00    +0.195 C 
ATOM      4  C1* UNL     1       2.295  -2.987   2.191  0.00  0.00    +0.257 C 
ATOM      5  O4* UNL     1       1.948  -1.639   1.834  0.00  0.00    -0.346 OA
ENDROOT
BRANCH   4   6
ATOM      6  N   UNL     1       1.106  -3.594   2.780  0.00  0.00    -0.244 N 
ATOM      7  C   UNL     1       1.026  -4.889   3.238  0.00  0.00    +0.216 A 
ATOM      8  N   UNL     1       2.000  -5.851   3.163  0.00  0.00    -0.212 NA
ATOM      9  C   UNL     1       1.593  -7.011   3.720  0.00  0.00    +0.223 A 
ATOM     10  N   UNL     1       0.379  -7.266   4.278  0.00  0.00    -0.237 NA
ATOM     11  C   UNL     1      -0.565  -6.283   4.320  0.00  0.00    +0.194 A 
ATOM     12  C   UNL     1      -0.238  -5.046   3.788  0.00  0.00    +0.268 A 
ATOM     13  N   UNL     1      -0.872  -3.833   3.639  0.00  0.00    -0.192 N 
ATOM     14  H   UNL     1      -1.817  -3.611   3.944  0.00  0.00    +0.455 HD
ATOM     15  C   UNL     1      -0.041  -2.959   3.050  0.00  0.00    +0.411 A 
ENDBRANCH   4   6
BRANCH   2  16
ATOM     16  O3* UNL     1       2.231  -2.570  -1.168  0.00  0.00    -0.386 OA
ATOM     17  H3* UNL     1       1.428  -2.052  -0.995  0.00  0.00    +0.210 HD
ENDBRANCH   2  16
BRANCH   3  18
ATOM     18  O2* UNL     1       3.876  -4.537   1.092  0.00  0.00    -0.385 OA
ATOM     19  H2* UNL     1       3.551  -5.455   1.126  0.00  0.00    +0.210 HD
ENDBRANCH   3  18
BRANCH   1  20
ATOM     20  C5* UNL     1       4.149  -0.649   1.382  0.00  0.00    +0.190 C 
BRANCH  20  21
ATOM     21  O5* UNL     1       4.810  -1.589   2.218  0.00  0.00    -0.392 OA
ATOM     22  H5* UNL     1       5.650  -1.181   2.505  0.00  0.00    +0.210 HD
ENDBRANCH  20  21
ENDBRANCH   1  20
TORSDOF 5
