REMARK  Name = 
REMARK  14 active torsions:
REMARK  status: ('A' for Active; 'I' for Inactive)
REMARK    1  A    between atoms: O_1  and  C_2
REMARK    2  A    between atoms: C_4  and  O_6
REMARK    3  A    between atoms: C_7  and  N_26
REMARK    4  A    between atoms: C_10  and  C_12
REMARK    5  A    between atoms: C_12  and  O_13
REMARK    6  A    between atoms: O_13  and  P_14
REMARK    7  A    between atoms: P_14  and  O_15
REMARK    8  A    between atoms: P_14  and  O_17
REMARK    9  A    between atoms: O_17  and  P_18
REMARK   10  A    between atoms: P_18  and  O_19
REMARK   11  A    between atoms: P_18  and  O_21
REMARK   12  A    between atoms: O_21  and  P_22
REMARK   13  A    between atoms: P_22  and  O_23
REMARK   14  A    between atoms: P_22  and  O_24
REMARK                            x       y       z     vdW  Elec       q    Type
REMARK                         _______ _______ _______ _____ _____    ______ ____
ROOT
ATOM      1  C   UNL     1       6.733  -4.589  -2.758  0.00  0.00    +0.178 C 
ATOM      2  C   UNL     1       6.361  -4.829  -1.290  0.00  0.00    +0.178 C 
ATOM      3  O   UNL     1       7.170  -5.974  -0.868  0.00  0.00    -0.346 OA
ATOM      4  C   UNL     1       8.149  -6.297  -1.910  0.00  0.00    +0.255 C 
ATOM      5  C   UNL     1       8.173  -5.059  -2.833  0.00  0.00    +0.195 C 
ENDROOT
BRANCH   4   6
ATOM      6  N   UNL     1       7.832  -7.614  -2.532  0.00  0.00    -0.271 N 
ATOM      7  C   UNL     1       8.463  -7.983  -3.713  0.00  0.00    +0.331 A 
ATOM      8  O   UNL     1       9.297  -7.307  -4.313  0.00  0.00    -0.246 OA
ATOM      9  N   UNL     1       8.132  -9.221  -4.218  0.00  0.00    -0.275 N 
ATOM     10  H   UNL     1       8.583  -9.494  -5.077  0.00  0.00    +0.173 HD
ATOM     11  C   UNL     1       7.483 -10.205  -3.535  0.00  0.00    +0.254 A 
ATOM     12  O   UNL     1       7.399 -11.361  -3.935  0.00  0.00    -0.268 OA
ATOM     13  C   UNL     1       6.911  -9.804  -2.246  0.00  0.00    +0.088 A 
ATOM     14  C   UNL     1       7.112  -8.553  -1.808  0.00  0.00    +0.098 A 
ENDBRANCH   4   6
BRANCH   1  15
ATOM     15  O   UNL     1       5.972  -5.442  -3.633  0.00  0.00    -0.386 OA
ATOM     16  H   UNL     1       5.029  -5.335  -3.421  0.00  0.00    +0.210 HD
ENDBRANCH   1  15
BRANCH   5  17
ATOM     17  O   UNL     1       9.037  -4.048  -2.288  0.00  0.00    -0.385 OA
ATOM     18  H   UNL     1       9.667  -3.802  -2.989  0.00  0.00    +0.210 HD
ENDBRANCH   5  17
BRANCH   2  19
ATOM     19  C   UNL     1       6.584  -3.649  -0.282  0.00  0.00    +0.206 C 
BRANCH  19  20
ATOM     20  O   UNL     1       5.882  -2.402  -0.458  0.00  0.00    -0.284 OA
BRANCH  20  21
ATOM     21  P   UNL     1       4.246  -2.307  -0.312  0.00  0.00    +0.483 P 
ATOM     22  O   UNL     1       3.720  -1.017  -0.926  0.00  0.00    -0.227 OA
BRANCH  21  23
ATOM     23  O   UNL     1       4.196  -2.951  -1.917  0.00  0.00    -0.302 OA
ATOM     24  H   UNL     1       4.293  -2.137  -2.460  0.00  0.00    +0.222 HD
ENDBRANCH  21  23
BRANCH  21  25
ATOM     25  O   UNL     1       4.297  -1.663   1.293  0.00  0.00    -0.186 OA
BRANCH  25  26
ATOM     26  P   UNL     1       4.947  -0.231   1.637  0.00  0.00    +0.492 P 
ATOM     27  O   UNL     1       6.004  -0.268   2.691  0.00  0.00    -0.226 OA
BRANCH  26  28
ATOM     28  O   UNL     1       3.662   0.550   2.211  0.00  0.00    -0.302 OA
ATOM     29  H   UNL     1       3.720   0.638   3.179  0.00  0.00    +0.222 HD
ENDBRANCH  26  28
BRANCH  26  30
ATOM     30  O   UNL     1       5.267   0.581   0.325  0.00  0.00    -0.186 OA
BRANCH  30  31
ATOM     31  P   UNL     1       6.388   1.613  -0.053  0.00  0.00    +0.481 P 
ATOM     32  O   UNL     1       7.777   1.112  -0.248  0.00  0.00    -0.227 OA
BRANCH  31  33
ATOM     33  O   UNL     1       6.341   2.782   1.032  0.00  0.00    -0.302 OA
ATOM     34  H   UNL     1       7.255   3.008   1.293  0.00  0.00    +0.222 HD
ENDBRANCH  31  33
BRANCH  31  35
ATOM     35  O   UNL     1       5.812   2.407  -1.315  0.00  0.00    -0.302 OA
ATOM     36  H   UNL     1       5.017   2.916  -1.072  0.00  0.00    +0.222 HD
ENDBRANCH  31  35
ENDBRANCH  30  31
ENDBRANCH  26  30
ENDBRANCH  25  26
ENDBRANCH  21  25
ENDBRANCH  20  21
ENDBRANCH  19  20
ENDBRANCH   2  19
TORSDOF 14
