REMARK  Name = 
REMARK  8 active torsions:
REMARK  status: ('A' for Active; 'I' for Inactive)
REMARK    1  A    between atoms: O_1  and  C_2
REMARK    2  A    between atoms: C_5  and  C_7
REMARK    3  A    between atoms: C_7  and  O_8
REMARK    4  A    between atoms: O_8  and  P_9
REMARK    5  A    between atoms: P_9  and  O_10
REMARK    6  A    between atoms: P_9  and  O_11
REMARK    7  A    between atoms: C_13  and  O_15
REMARK    8  A    between atoms: C_16  and  O_18
REMARK                            x       y       z     vdW  Elec       q    Type
REMARK                         _______ _______ _______ _____ _____    ______ ____
ROOT
ATOM      1  C   UNL     1       2.448  -0.004   0.114  0.00  0.00    +0.279 C 
ATOM      2  C   UNL     1       3.001  -1.340   0.626  0.00  0.00    +0.201 C 
ATOM      3  C   UNL     1       4.222  -0.952   1.456  0.00  0.00    +0.179 C 
ATOM      4  C   UNL     1       4.380   0.555   1.241  0.00  0.00    +0.179 C 
ATOM      5  O   UNL     1       3.066   1.026   0.875  0.00  0.00    -0.341 OA
ENDROOT
BRANCH   1   6
ATOM      6  O   UNL     1       1.048   0.071   0.298  0.00  0.00    -0.365 OA
ATOM      7  H   UNL     1       0.774   0.873  -0.178  0.00  0.00    +0.213 HD
ENDBRANCH   1   6
BRANCH   2   8
ATOM      8  O   UNL     1       3.389  -2.183  -0.464  0.00  0.00    -0.384 OA
ATOM      9  H   UNL     1       3.497  -3.078  -0.090  0.00  0.00    +0.210 HD
ENDBRANCH   2   8
BRANCH   3  10
ATOM     10  O   UNL     1       3.965  -1.240   2.837  0.00  0.00    -0.386 OA
ATOM     11  H   UNL     1       3.235  -0.663   3.132  0.00  0.00    +0.210 HD
ENDBRANCH   3  10
BRANCH   4  12
ATOM     12  C   UNL     1       5.379   0.876   0.123  0.00  0.00    +0.206 C 
BRANCH  12  13
ATOM     13  O   UNL     1       5.445   2.291  -0.044  0.00  0.00    -0.284 OA
BRANCH  13  14
ATOM     14  P   UNL     1       6.501   2.807  -1.312  0.00  0.00    +0.472 P 
ATOM     15  O   UNL     1       7.447   3.270  -2.448  0.00  0.00    -0.228 OA
BRANCH  14  16
ATOM     16  O   UNL     1       7.748   2.456  -0.314  0.00  0.00    -0.303 OA
ATOM     17  H   UNL     1       8.414   3.149  -0.491  0.00  0.00    +0.222 HD
ENDBRANCH  14  16
BRANCH  14  18
ATOM     18  O   UNL     1       6.244   4.312  -0.723  0.00  0.00    -0.303 OA
ATOM     19  H   UNL     1       5.392   4.672  -1.024  0.00  0.00    +0.222 HD
ENDBRANCH  14  18
ENDBRANCH  13  14
ENDBRANCH  12  13
ENDBRANCH   4  12
TORSDOF 8
