REMARK  Name = 
REMARK  6 active torsions:
REMARK  status: ('A' for Active; 'I' for Inactive)
REMARK    1  A    between atoms: C_2  and  C_3
REMARK    2  A    between atoms: C_2  and  N_4
REMARK    3  A    between atoms: C_2  and  C_7
REMARK    4  A    between atoms: N_4  and  C_5
REMARK    5  A    between atoms: N_4  and  C_6
REMARK    6  A    between atoms: C_9  and  O_10
REMARK                            x       y       z     vdW  Elec       q    Type
REMARK                         _______ _______ _______ _____ _____    ______ ____
ROOT
ATOM      1  C   UNL     1       2.644   0.540   1.387  0.00  0.00    -0.027 A 
ATOM      2  C   UNL     1       1.716   1.063   2.305  0.00  0.00    +0.005 A 
ATOM      3  C   UNL     1       2.132   1.518   3.558  0.00  0.00    +0.004 A 
ATOM      4  C   UNL     1       3.476   1.449   3.913  0.00  0.00    +0.045 A 
ATOM      5  C   UNL     1       4.399   0.930   3.013  0.00  0.00    +0.117 A 
ATOM      6  C   UNL     1       3.999   0.481   1.757  0.00  0.00    +0.050 A 
ENDROOT
BRANCH   1   7
ATOM      7  C   UNL     1       2.174   0.086   0.004  0.00  0.00    +0.083 C 
ATOM      8  C   UNL     1       2.495  -1.414  -0.148  0.00  0.00    +0.029 C 
BRANCH   7   9
ATOM      9  N   UNL     1       2.760   0.900  -1.097  0.00  0.00    -0.302 NA
ATOM     10  C   UNL     1       2.531   2.339  -0.894  0.00  0.00    +0.105 C 
ATOM     11  C   UNL     1       2.193   0.530  -2.401  0.00  0.00    +0.105 C 
ENDBRANCH   7   9
ENDBRANCH   1   7
BRANCH   5  12
ATOM     12  O   UNL     1       5.706   0.881   3.400  0.00  0.00    -0.507 OA
ATOM     13  H   UNL     1       6.221   0.487   2.676  0.00  0.00    +0.292 HD
ENDBRANCH   5  12
TORSDOF 3
