REMARK  Name = 
REMARK  6 active torsions:
REMARK  status: ('A' for Active; 'I' for Inactive)
REMARK    1  A    between atoms: C_1  and  C_2
REMARK    2  A    between atoms: C_2  and  C_3
REMARK    3  A    between atoms: C_3  and  C_4
REMARK    4  A    between atoms: C_4  and  C_5
REMARK    5  A    between atoms: CA_15  and  C_16
REMARK    6  A    between atoms: C_16  and  O_17
REMARK                            x       y       z     vdW  Elec       q    Type
REMARK                         _______ _______ _______ _____ _____    ______ ____
ROOT
ATOM      1  C   UNL     1       3.260  -0.226  -1.523  0.00  0.00    +0.038 C 
ATOM      2  C   UNL     1       2.620  -0.154  -0.133  0.00  0.00    +0.071 C 
ATOM      3  CA  UNL     1       3.052   1.178   0.555  0.00  0.00    +0.068 C 
ATOM      4  N   UNL     1       3.798   1.262   1.624  0.00  0.00    -0.243 NA
ATOM      5  C   UNL     1       4.242   0.072   2.186  0.00  0.00    +0.168 A 
ATOM      6  C   UNL     1       5.130   0.122   3.392  0.00  0.00    +0.280 A 
ATOM      7  N   UNL     1       5.518  -1.085   3.899  0.00  0.00    -0.293 N 
ATOM      8  H   UNL     1       6.140  -1.055   4.688  0.00  0.00    +0.172 HD
ATOM      9  C   UNL     1       5.166  -2.263   3.328  0.00  0.00    +0.195 A 
ATOM     10  N   UNL     1       4.403  -2.334   2.290  0.00  0.00    -0.199 NA
ATOM     11  N   UNL     1       5.640  -3.394   3.906  0.00  0.00    -0.329 N 
ATOM     12  H   UNL     1       5.153  -4.225   3.578  0.00  0.00    +0.145 HD
ATOM     13  H   UNL     1       5.783  -3.383   4.905  0.00  0.00    +0.145 HD
ATOM     14  O   UNL     1       5.499   1.168   3.918  0.00  0.00    -0.265 OA
ATOM     15  C   UNL     1       3.939  -1.168   1.734  0.00  0.00    +0.154 A 
ATOM     16  N   UNL     1       3.105  -1.284   0.647  0.00  0.00    -0.317 N 
ATOM     17  H   UNL     1       3.087  -2.221   0.260  0.00  0.00    +0.148 HD
ENDROOT
BRANCH   2  18
ATOM     18  C   UNL     1       1.078  -0.240  -0.154  0.00  0.00    +0.036 C 
BRANCH  18  19
ATOM     19  C   UNL     1       0.521  -1.534  -0.764  0.00  0.00    +0.037 C 
BRANCH  19  20
ATOM     20  C   UNL     1      -0.985  -1.556  -0.701  0.00  0.00    -0.047 A 
ATOM     21  C   UNL     1      -1.639  -2.073   0.424  0.00  0.00    +0.003 A 
ATOM     22  C   UNL     1      -3.032  -2.061   0.497  0.00  0.00    +0.000 A 
ATOM     23  C   UNL     1      -3.779  -1.526  -0.550  0.00  0.00    +0.000 A 
ATOM     24  C   UNL     1      -3.136  -1.008  -1.673  0.00  0.00    +0.000 A 
ATOM     25  C   UNL     1      -1.744  -1.022  -1.750  0.00  0.00    +0.003 A 
ENDBRANCH  19  20
ENDBRANCH  18  19
ENDBRANCH   2  18
BRANCH   3  26
ATOM     26  C   UNL     1       2.558   2.495  -0.060  0.00  0.00    +0.208 C 
BRANCH  26  27
ATOM     27  O   UNL     1       3.615   3.346  -0.458  0.00  0.00    -0.389 OA
ATOM     28  H   UNL     1       4.085   3.596   0.360  0.00  0.00    +0.210 HD
ENDBRANCH  26  27
ENDBRANCH   3  26
TORSDOF 5
