REMARK  Name = 
REMARK  10 active torsions:
REMARK  status: ('A' for Active; 'I' for Inactive)
REMARK    1  A    between atoms: C_1  and  C_2
REMARK    2  A    between atoms: C_3  and  C_4
REMARK    3  A    between atoms: C_5  and  O_6
REMARK    4  A    between atoms: O_6  and  C_7
REMARK    5  A    between atoms: C_7  and  C_8
REMARK    6  A    between atoms: C_8  and  C_9
REMARK    7  A    between atoms: C_9  and  C_10
REMARK    8  A    between atoms: C_10  and  O_11
REMARK    9  A    between atoms: C_15  and  N_16
REMARK   10  A    between atoms: C_20  and  C_22
REMARK                            x       y       z     vdW  Elec       q    Type
REMARK                         _______ _______ _______ _____ _____    ______ ____
ROOT
ATOM      1  C   UNL     1       0.730   0.173  -0.061  0.00  0.00    +0.046 C 
ATOM      2  C   UNL     1       2.239   0.096   0.016  0.00  0.00    -0.023 A 
ATOM      3  C   UNL     1       2.887  -1.164  -0.117  0.00  0.00    +0.038 A 
ATOM      4  C   UNL     1       4.273  -1.214  -0.182  0.00  0.00    +0.027 A 
ATOM      5  C   UNL     1       5.022  -0.051  -0.163  0.00  0.00    +0.048 A 
ATOM      6  C   UNL     1       4.413   1.198  -0.052  0.00  0.00    +0.124 A 
ATOM      7  C   UNL     1       3.023   1.272   0.167  0.00  0.00    -0.004 A 
ATOM      8  C   UNL     1       2.407   2.596   0.559  0.00  0.00    +0.048 C 
ENDROOT
BRANCH   3   9
ATOM      9  N   UNL     1       2.129  -2.350  -0.150  0.00  0.00    -0.269 N 
ATOM     10  H   UNL     1       1.122  -2.251  -0.047  0.00  0.00    +0.156 HD
ATOM     11  C   UNL     1       2.559  -3.656  -0.250  0.00  0.00    +0.310 C 
ATOM     12  N   UNL     1       1.567  -4.608  -0.133  0.00  0.00    -0.236 N 
ATOM     13  H   UNL     1       1.929  -5.548  -0.162  0.00  0.00    +0.159 HD
ATOM     14  C   UNL     1       0.236  -4.380   0.146  0.00  0.00    +0.253 C 
ATOM     15  O   UNL     1      -0.252  -3.253   0.126  0.00  0.00    -0.270 OA
ATOM     16  O   UNL     1       3.714  -4.049  -0.401  0.00  0.00    -0.252 OA
BRANCH  14  17
ATOM     17  C   UNL     1      -0.648  -5.518   0.490  0.00  0.00    +0.055 A 
ATOM     18  C   UNL     1      -0.490  -6.853   0.105  0.00  0.00    +0.054 A 
ATOM     19 CL   UNL     1       0.864  -7.435  -0.795  0.00  0.00    -0.083 Cl
ATOM     20  C   UNL     1      -1.483  -7.793   0.424  0.00  0.00    +0.040 A 
ATOM     21  C   UNL     1      -2.618  -7.404   1.134  0.00  0.00    +0.042 A 
ATOM     22 CL   UNL     1      -3.851  -8.550   1.481  0.00  0.00    -0.083 Cl
ATOM     23  C   UNL     1      -2.770  -6.089   1.555  0.00  0.00    +0.021 A 
ATOM     24  C   UNL     1      -1.788  -5.155   1.236  0.00  0.00    +0.016 A 
ENDBRANCH  14  17
ENDBRANCH   3   9
BRANCH   6  25
ATOM     25  O   UNL     1       5.131   2.369  -0.189  0.00  0.00    -0.492 OA
BRANCH  25  26
ATOM     26  C   UNL     1       6.347   2.201  -0.940  0.00  0.00    +0.229 C 
BRANCH  26  27
ATOM     27  C   UNL     1       6.832   3.512  -1.539  0.00  0.00    +0.052 C 
BRANCH  27  28
ATOM     28  C   UNL     1       5.778   4.122  -2.455  0.00  0.00    +0.124 C 
BRANCH  28  29
ATOM     29  C   UNL     1       6.300   5.334  -3.183  0.00  0.00    +0.305 C 
ATOM     30  O   UNL     1       7.440   5.765  -3.119  0.00  0.00    -0.251 OA
BRANCH  29  31
ATOM     31  O   UNL     1       5.349   5.907  -3.957  0.00  0.00    -0.481 OA
ATOM     32  H   UNL     1       4.488   5.449  -3.911  0.00  0.00    +0.295 HD
ENDBRANCH  29  31
ENDBRANCH  28  29
ENDBRANCH  27  28
ENDBRANCH  26  27
ENDBRANCH  25  26
ENDBRANCH   6  25
TORSDOF 8
