REMARK  Name = 
REMARK  8 active torsions:
REMARK  status: ('A' for Active; 'I' for Inactive)
REMARK    1  A    between atoms: N_8  and  C_9
REMARK    2  A    between atoms: C_9  and  C_10
REMARK    3  A    between atoms: C_10  and  C_11
REMARK    4  A    between atoms: C_11  and  C_12
REMARK    5  A    between atoms: C_12  and  C_13
REMARK    6  A    between atoms: C_13  and  P_16
REMARK    7  A    between atoms: P_16  and  O_17
REMARK    8  A    between atoms: P_16  and  O_18
REMARK                            x       y       z     vdW  Elec       q    Type
REMARK                         _______ _______ _______ _____ _____    ______ ____
ROOT
ATOM      1  N   UNL     1       1.721  -0.237  -2.305  0.00  0.00    -0.329 N 
ATOM      2  H   UNL     1       1.090   0.546  -2.200  0.00  0.00    +0.145 HD
ATOM      3  H   UNL     1       1.254  -1.135  -2.229  0.00  0.00    +0.145 HD
ATOM      4  C   UNL     1       2.874  -0.201  -1.592  0.00  0.00    +0.195 A 
ATOM      5  N   UNL     1       3.422   1.048  -1.383  0.00  0.00    -0.293 N 
ATOM      6  H   UNL     1       2.995   1.861  -1.792  0.00  0.00    +0.172 HD
ATOM      7  C   UNL     1       4.599   1.287  -0.685  0.00  0.00    +0.280 A 
ATOM      8  O   UNL     1       5.048   2.420  -0.537  0.00  0.00    -0.265 OA
ATOM      9  C   UNL     1       5.189   0.067  -0.180  0.00  0.00    +0.172 A 
ATOM     10  N   UNL     1       6.328  -0.138   0.552  0.00  0.00    -0.229 NA
ATOM     11  C   UNL     1       6.377  -1.445   0.718  0.00  0.00    +0.201 A 
ATOM     12  N   UNL     1       5.319  -2.086   0.125  0.00  0.00    -0.315 N 
ATOM     13  C   UNL     1       4.545  -1.120  -0.456  0.00  0.00    +0.169 A 
ATOM     14  N   UNL     1       3.395  -1.310  -1.141  0.00  0.00    -0.196 NA
ENDROOT
BRANCH  12  15
ATOM     15  C   UNL     1       5.043  -3.511   0.108  0.00  0.00    +0.125 C 
BRANCH  15  16
ATOM     16  C   UNL     1       6.301  -4.368   0.065  0.00  0.00    +0.022 C 
BRANCH  16  17
ATOM     17  C   UNL     1       6.025  -5.875   0.018  0.00  0.00    +0.008 C 
BRANCH  17  18
ATOM     18  C   UNL     1       7.377  -6.577   0.053  0.00  0.00    +0.089 C 
BRANCH  18  19
ATOM     19  C   UNL     1       7.348  -8.092   0.001  0.00  0.00    +0.346 C 
ATOM     20  F   UNL     1       6.826  -8.540  -1.169  0.00  0.00    -0.192 F 
ATOM     21  F   UNL     1       6.647  -8.648   1.011  0.00  0.00    -0.192 F 
BRANCH  19  22
ATOM     22  P   UNL     1       8.949  -8.978   0.051  0.00  0.00    +0.396 P 
ATOM     23  O   UNL     1      10.303  -9.728   0.093  0.00  0.00    -0.253 OA
BRANCH  22  24
ATOM     24  O   UNL     1       9.464  -7.969   1.251  0.00  0.00    -0.320 OA
ATOM     25  H   UNL     1      10.422  -8.158   1.348  0.00  0.00    +0.220 HD
ENDBRANCH  22  24
BRANCH  22  26
ATOM     26  O   UNL     1       9.435  -8.037  -1.226  0.00  0.00    -0.320 OA
ATOM     27  H   UNL     1       8.977  -8.265  -2.060  0.00  0.00    +0.220 HD
ENDBRANCH  22  26
ENDBRANCH  19  22
ENDBRANCH  18  19
ENDBRANCH  17  18
ENDBRANCH  16  17
ENDBRANCH  15  16
ENDBRANCH  12  15
TORSDOF 8
