REMARK  Name = 
REMARK  25 active torsions:
REMARK  status: ('A' for Active; 'I' for Inactive)
REMARK    1  A    between atoms: O_1  and  C_2
REMARK    2  A    between atoms: C_2  and  C_4
REMARK    3  A    between atoms: C_4  and  N_5
REMARK    4  A    between atoms: N_5  and  C_6
REMARK    5  A    between atoms: N_5  and  C_20
REMARK    6  A    between atoms: C_6  and  C_7
REMARK    7  A    between atoms: C_7  and  N_8
REMARK    8  A    between atoms: N_8  and  C_9
REMARK    9  A    between atoms: N_8  and  C_13
REMARK   10  A    between atoms: C_9  and  C_10
REMARK   11  A    between atoms: C_10  and  O_11
REMARK   12  A    between atoms: C_13  and  C_14
REMARK   13  A    between atoms: N_16  and  C_17
REMARK   14  A    between atoms: C_17  and  C_18
REMARK   15  A    between atoms: C_18  and  S_19
REMARK   16  A    between atoms: C_20  and  C_21
REMARK   17  A    between atoms: C_21  and  N_22
REMARK   18  A    between atoms: N_22  and  C_23
REMARK   19  A    between atoms: N_22  and  C_27
REMARK   20  A    between atoms: C_23  and  C_24
REMARK   21  A    between atoms: C_24  and  O_25
REMARK   22  A    between atoms: C_27  and  C_28
REMARK   23  A    between atoms: N_30  and  C_31
REMARK   24  A    between atoms: C_31  and  C_32
REMARK   25  A    between atoms: C_32  and  S_33
REMARK                            x       y       z     vdW  Elec       q    Type
REMARK                         _______ _______ _______ _____ _____    ______ ____
ROOT
ATOM      1  N   UNL     1       4.408   0.422  -0.862  0.00  0.00    -0.290 NA
ENDROOT
BRANCH   1   2
ATOM      2  C   UNL     1       2.936   0.514  -1.181  0.00  0.00    +0.205 C 
BRANCH   2   3
ATOM      3  C   UNL     1       2.056   0.237   0.037  0.00  0.00    +0.319 C 
ATOM      4  O   UNL     1       0.927  -0.225  -0.015  0.00  0.00    -0.250 OA
BRANCH   3   5
ATOM      5  O   UNL     1       2.645   0.613   1.200  0.00  0.00    -0.480 OA
ATOM      6  H   UNL     1       3.550   0.934   0.997  0.00  0.00    +0.295 HD
ENDBRANCH   3   5
ENDBRANCH   2   3
ENDBRANCH   1   2
BRANCH   1   7
ATOM      7  C   UNL     1       5.178   0.740  -2.111  0.00  0.00    +0.100 C 
BRANCH   7   8
ATOM      8  C   UNL     1       4.989   2.139  -2.761  0.00  0.00    +0.101 C 
BRANCH   8   9
ATOM      9  N   UNL     1       5.776   2.345  -4.017  0.00  0.00    -0.283 NA
BRANCH   9  10
ATOM     10  C   UNL     1       5.409   1.370  -5.084  0.00  0.00    +0.205 C 
BRANCH  10  11
ATOM     11  C   UNL     1       3.946   1.411  -5.502  0.00  0.00    +0.319 C 
ATOM     12  O   UNL     1       3.066   0.797  -4.915  0.00  0.00    -0.250 OA
BRANCH  11  13
ATOM     13  O   UNL     1       3.684   2.228  -6.545  0.00  0.00    -0.480 OA
ATOM     14  H   UNL     1       4.443   2.726  -6.915  0.00  0.00    +0.295 HD
ENDBRANCH  11  13
ENDBRANCH  10  11
ENDBRANCH   9  10
BRANCH   9  15
ATOM     15  C   UNL     1       5.590   3.757  -4.453  0.00  0.00    +0.181 C 
BRANCH  15  16
ATOM     16  C   UNL     1       6.331   4.077  -5.755  0.00  0.00    +0.227 C 
ATOM     17  N   UNL     1       7.583   3.526  -5.871  0.00  0.00    -0.313 N 
ATOM     18  H   UNL     1       7.917   2.943  -5.108  0.00  0.00    +0.149 HD
ATOM     19  O   UNL     1       5.806   4.734  -6.649  0.00  0.00    -0.274 OA
BRANCH  17  20
ATOM     20  C   UNL     1       8.421   3.724  -7.043  0.00  0.00    +0.114 C 
BRANCH  20  21
ATOM     21  C   UNL     1       9.367   4.913  -6.893  0.00  0.00    +0.084 C 
BRANCH  21  22
ATOM     22  S   UNL     1      10.541   4.652  -5.524  0.00  0.00    -0.177 S 
ATOM     23  H   UNL     1       9.616   4.576  -4.556  0.00  0.00    +0.102 HD
ENDBRANCH  21  22
ENDBRANCH  20  21
ENDBRANCH  17  20
ENDBRANCH  15  16
ENDBRANCH   9  15
ENDBRANCH   8   9
ENDBRANCH   7   8
ENDBRANCH   1   7
BRANCH   1  24
ATOM     24  C   UNL     1       4.724  -0.997  -0.475  0.00  0.00    +0.100 C 
BRANCH  24  25
ATOM     25  C   UNL     1       6.207  -1.245  -0.073  0.00  0.00    +0.101 C 
BRANCH  25  26
ATOM     26  N   UNL     1       6.545  -2.629   0.395  0.00  0.00    -0.283 NA
BRANCH  26  27
ATOM     27  C   UNL     1       6.248  -3.606  -0.711  0.00  0.00    +0.205 C 
BRANCH  27  28
ATOM     28  C   UNL     1       6.453  -5.045  -0.257  0.00  0.00    +0.319 C 
ATOM     29  O   UNL     1       6.752  -5.972  -0.994  0.00  0.00    -0.250 OA
BRANCH  28  30
ATOM     30  O   UNL     1       6.217  -5.202   1.073  0.00  0.00    -0.480 OA
ATOM     31  H   UNL     1       5.992  -4.321   1.439  0.00  0.00    +0.295 HD
ENDBRANCH  28  30
ENDBRANCH  27  28
ENDBRANCH  26  27
BRANCH  26  32
ATOM     32  C   UNL     1       8.034  -2.665   0.648  0.00  0.00    +0.181 C 
BRANCH  32  33
ATOM     33  C   UNL     1       8.452  -1.688   1.751  0.00  0.00    +0.227 C 
ATOM     34  N   UNL     1       7.874  -1.933   2.977  0.00  0.00    -0.313 N 
ATOM     35  H   UNL     1       7.116  -2.601   3.029  0.00  0.00    +0.149 HD
ATOM     36  O   UNL     1       9.233  -0.763   1.545  0.00  0.00    -0.274 OA
BRANCH  34  37
ATOM     37  C   UNL     1       8.114  -1.070   4.121  0.00  0.00    +0.114 C 
BRANCH  37  38
ATOM     38  C   UNL     1       7.189   0.147   4.161  0.00  0.00    +0.084 C 
BRANCH  38  39
ATOM     39  S   UNL     1       5.443  -0.339   4.359  0.00  0.00    -0.177 S 
ATOM     40  H   UNL     1       5.348  -1.039   3.221  0.00  0.00    +0.102 HD
ENDBRANCH  38  39
ENDBRANCH  37  38
ENDBRANCH  34  37
ENDBRANCH  32  33
ENDBRANCH  26  32
ENDBRANCH  25  26
ENDBRANCH  24  25
ENDBRANCH   1  24
TORSDOF 25
