REMARK  Name = 
REMARK  3 active torsions:
REMARK  status: ('A' for Active; 'I' for Inactive)
REMARK    1  A    between atoms: N_4  and  C_5
REMARK    2  A    between atoms: C_5  and  N_6
REMARK    3  A    between atoms: C_5  and  C_10
REMARK                            x       y       z     vdW  Elec       q    Type
REMARK                         _______ _______ _______ _____ _____    ______ ____
ROOT
ATOM      1  C   UNL     1       4.375   0.865  -0.633  0.00  0.00    +0.209 C 
ENDROOT
BRANCH   1   6
ATOM      2  N   UNL     1       0.787   0.819  -0.008  0.00  0.00    -0.313 N 
ATOM      3  H   UNL     1       0.516   1.098  -0.938  0.00  0.00    +0.146 HD
ATOM      4  H   UNL     1       0.134   0.967   0.746  0.00  0.00    +0.146 HD
ATOM      5  C   UNL     1       2.098   0.887   0.333  0.00  0.00    +0.299 C 
ATOM      6  N   UNL     1       2.915   0.759  -0.743  0.00  0.00    -0.276 N 
ATOM      7  H   UNL     1       2.621   1.293  -1.554  0.00  0.00    +0.152 HD
ATOM      8  O   UNL     1       2.439   0.900   1.507  0.00  0.00    -0.253 OA
ENDBRANCH   1   6
BRANCH   1   9
ATOM      9  N   UNL     1       4.970  -0.353  -1.195  0.00  0.00    -0.276 N 
ATOM     10  H   UNL     1       5.712  -0.174  -1.864  0.00  0.00    +0.152 HD
ATOM     11  C   UNL     1       4.888  -1.620  -0.755  0.00  0.00    +0.299 C 
ATOM     12  O   UNL     1       5.514  -2.538  -1.272  0.00  0.00    -0.253 OA
ATOM     13  N   UNL     1       4.075  -1.845   0.294  0.00  0.00    -0.313 N 
ATOM     14  H   UNL     1       3.862  -2.810   0.489  0.00  0.00    +0.146 HD
ATOM     15  H   UNL     1       3.348  -1.165   0.473  0.00  0.00    +0.146 HD
ENDBRANCH   1   9
BRANCH   1  16
ATOM     16  C   UNL     1       4.900   2.174  -1.395  0.00  0.00    +0.080 C 
ATOM     17  O   UNL     1       6.158   2.296  -1.467  0.00  0.00    -0.546 OA
ATOM     18  O   UNL     1       3.980   2.876  -1.922  0.00  0.00    -0.546 OA
ENDBRANCH   1  16
TORSDOF 3
