REMARK  Name = 
REMARK  14 active torsions:
REMARK  status: ('A' for Active; 'I' for Inactive)
REMARK    1  A    between atoms: C_2  and  O_3
REMARK    2  A    between atoms: C_2  and  C_4
REMARK    3  A    between atoms: C_2  and  C_13
REMARK    4  A    between atoms: C_4  and  O_5
REMARK    5  A    between atoms: O_5  and  C_6
REMARK    6  A    between atoms: C_6  and  C_8
REMARK    7  A    between atoms: C_8  and  C_9
REMARK    8  A    between atoms: C_9  and  C_10
REMARK    9  A    between atoms: C_10  and  C_11
REMARK   10  A    between atoms: C_11  and  C_12
REMARK   11  A    between atoms: C_13  and  O_14
REMARK   12  A    between atoms: O_14  and  P_15
REMARK   13  A    between atoms: P_15  and  O_16
REMARK   14  A    between atoms: P_15  and  O_17
REMARK                            x       y       z     vdW  Elec       q    Type
REMARK                         _______ _______ _______ _____ _____    ______ ____
ROOT
ATOM      1  C   UNL     1       2.959  -0.387   1.659  0.00  0.00    +0.178 C 
ENDROOT
BRANCH   1   2
ATOM      2  O   UNL     1       3.886  -1.334   1.105  0.00  0.00    -0.386 OA
ATOM      3  H   UNL     1       3.653  -1.486   0.175  0.00  0.00    +0.210 HD
ENDBRANCH   1   2
BRANCH   1   4
ATOM      4  C   UNL     1       1.521  -0.768   1.304  0.00  0.00    +0.207 C 
BRANCH   4   5
ATOM      5  O   UNL     1       1.238  -2.063   1.818  0.00  0.00    -0.284 OA
BRANCH   5   6
ATOM      6  P   UNL     1      -0.224  -2.656   1.570  0.00  0.00    +0.472 P 
ATOM      7  O   UNL     1      -0.465  -4.045   2.051  0.00  0.00    -0.228 OA
BRANCH   6   8
ATOM      8  O   UNL     1      -0.461  -2.481   0.004  0.00  0.00    -0.303 OA
ATOM      9  H   UNL     1      -0.106  -3.245  -0.486  0.00  0.00    +0.222 HD
ENDBRANCH   6   8
BRANCH   6  10
ATOM     10  O   UNL     1      -1.207  -1.578   2.219  0.00  0.00    -0.303 OA
ATOM     11  H   UNL     1      -1.343  -1.771   3.165  0.00  0.00    +0.222 HD
ENDBRANCH   6  10
ENDBRANCH   5   6
ENDBRANCH   4   5
ENDBRANCH   1   4
BRANCH   1  12
ATOM     12  C   UNL     1       3.312   1.006   1.124  0.00  0.00    +0.265 C 
BRANCH  12  13
ATOM     13  O   UNL     1       2.460   2.064   1.580  0.00  0.00    -0.462 OA
BRANCH  13  14
ATOM     14  C   UNL     1       2.687   2.461   2.861  0.00  0.00    +0.307 C 
ATOM     15  O   UNL     1       3.329   1.825   3.684  0.00  0.00    -0.251 OA
BRANCH  14  16
ATOM     16  C   UNL     1       2.070   3.813   3.118  0.00  0.00    +0.120 C 
BRANCH  16  17
ATOM     17  C   UNL     1       2.962   4.589   4.085  0.00  0.00    +0.011 C 
BRANCH  17  18
ATOM     18  C   UNL     1       2.473   6.014   4.321  0.00  0.00    +0.000 C 
BRANCH  18  19
ATOM     19  C   UNL     1       3.405   6.741   5.291  0.00  0.00    -0.003 C 
ATOM     20  C   UNL     1       2.943   8.163   5.554  0.00  0.00    +0.004 C 
ENDBRANCH  18  19
ENDBRANCH  17  18
ENDBRANCH  16  17
ENDBRANCH  14  16
ENDBRANCH  13  14
ENDBRANCH  12  13
ENDBRANCH   1  12
TORSDOF 13
