REMARK  Name = 
REMARK  3 active torsions:
REMARK  status: ('A' for Active; 'I' for Inactive)
REMARK    1  A    between atoms: O_1  and  C_2
REMARK    2  A    between atoms: C_3  and  O_4
REMARK    3  A    between atoms: O_4  and  C_5
REMARK                            x       y       z     vdW  Elec       q    Type
REMARK                         _______ _______ _______ _____ _____    ______ ____
ROOT
ATOM      1  C   UNL     1       2.506   0.168  -0.021  0.00  0.00    +0.160 A 
ATOM      2  C   UNL     1       3.041  -1.113  -0.125  0.00  0.00    +0.069 A 
ATOM      3  C   UNL     1       4.419  -1.283  -0.020  0.00  0.00    +0.045 A 
ATOM      4 CL   UNL     1       5.106  -2.849  -0.203  0.00  0.00    -0.083 Cl
ATOM      5  C   UNL     1       5.253  -0.190   0.227  0.00  0.00    +0.024 A 
ATOM      6  C   UNL     1       4.706   1.089   0.354  0.00  0.00    +0.051 A 
ATOM      7  C   UNL     1       3.334   1.277   0.172  0.00  0.00    +0.170 A 
ENDROOT
BRANCH   1   8
ATOM      8  O   UNL     1       1.150   0.303  -0.130  0.00  0.00    -0.503 OA
ATOM      9  H   UNL     1       0.951   1.249  -0.012  0.00  0.00    +0.292 HD
ENDBRANCH   1   8
BRANCH   7  10
ATOM     10  O   UNL     1       2.733   2.516   0.221  0.00  0.00    -0.452 OA
BRANCH  10  11
ATOM     11  C   UNL     1       3.312   3.572  -0.452  0.00  0.00    +0.129 A 
ATOM     12  C   UNL     1       2.976   4.846   0.013  0.00  0.00    +0.048 A 
ATOM     13  C   UNL     1       3.511   5.984  -0.598  0.00  0.00    +0.023 A 
ATOM     14  C   UNL     1       4.386   5.844  -1.674  0.00  0.00    +0.041 A 
ATOM     15 CL   UNL     1       5.067   7.239  -2.413  0.00  0.00    -0.084 Cl
ATOM     16  C   UNL     1       4.707   4.579  -2.160  0.00  0.00    +0.023 A 
ATOM     17  C   UNL     1       4.148   3.444  -1.567  0.00  0.00    +0.048 A 
ENDBRANCH  10  11
ENDBRANCH   7  10
TORSDOF 3
