REMARK  Name = 
REMARK  31 active torsions:
REMARK  status: ('A' for Active; 'I' for Inactive)
REMARK    1  A    between atoms: C_1  and  C_2
REMARK    2  A    between atoms: C_2  and  C_3
REMARK    3  A    between atoms: C_3  and  O_5
REMARK    4  A    between atoms: C_3  and  C_7
REMARK    5  A    between atoms: O_5  and  C_6
REMARK    6  A    between atoms: C_7  and  C_9
REMARK    7  A    between atoms: C_7  and  C_10
REMARK    8  A    between atoms: C_10  and  C_12
REMARK    9  A    between atoms: C_12  and  C_13
REMARK   10  A    between atoms: C_13  and  C_14
REMARK   11  A    between atoms: C_14  and  C_16
REMARK   12  A    between atoms: C_14  and  C_17
REMARK   13  A    between atoms: C_17  and  O_19
REMARK   14  A    between atoms: C_17  and  C_21
REMARK   15  A    between atoms: O_19  and  C_20
REMARK   16  A    between atoms: C_21  and  C_23
REMARK   17  A    between atoms: C_21  and  C_24
REMARK   18  A    between atoms: C_32  and  C_33
REMARK   19  A    between atoms: C_35  and  O_77
REMARK   20  A    between atoms: C_46  and  C_48
REMARK   21  A    between atoms: C_49  and  O_75
REMARK   22  A    between atoms: C_52  and  O_54
REMARK   23  A    between atoms: O_54  and  C_55
REMARK   24  A    between atoms: C_58  and  C_60
REMARK   25  A    between atoms: C_61  and  O_73
REMARK   26  A    between atoms: C_64  and  O_66
REMARK   27  A    between atoms: O_66  and  C_67
REMARK   28  A    between atoms: C_70  and  C_72
REMARK   29  A    between atoms: O_73  and  C_74
REMARK   30  A    between atoms: O_75  and  C_76
REMARK   31  A    between atoms: O_77  and  C_78
REMARK                            x       y       z     vdW  Elec       q    Type
REMARK                         _______ _______ _______ _____ _____    ______ ____
ROOT
ATOM      1  C   UNL     1      10.438  15.348   5.797  0.00  0.00    +0.189 C 
ATOM      2  C   UNL     1      10.278  13.784   5.581  0.00  0.00    +0.049 C 
ATOM      3  C   UNL     1       9.477  13.461   4.344  0.00  0.00    +0.015 C 
ATOM      4  C   UNL     1      11.567  12.931   5.665  0.00  0.00    -0.022 C 
ATOM      5  C   UNL     1      12.109  11.747   5.280  0.00  0.00    +0.000 C 
ATOM      6  C   UNL     1      11.425  10.393   5.380  0.00  0.00    +0.143 C 
ATOM      7  C   UNL     1      11.307   9.499   4.136  0.00  0.00    +0.068 C 
ATOM      8  C   UNL     1      10.026   9.775   3.351  0.00  0.00    +0.127 C 
ATOM      9  C   UNL     1       8.666   9.431   4.159  0.00  0.00    +0.037 C 
ATOM     10  C   UNL     1       8.543   7.904   4.236  0.00  0.00    +0.014 C 
ATOM     11  C   UNL     1       8.301  10.044   5.554  0.00  0.00    -0.023 C 
ATOM     12  C   UNL     1       7.778   9.511   6.701  0.00  0.00    +0.000 C 
ATOM     13  C   UNL     1       7.612  10.135   8.154  0.00  0.00    +0.143 C 
ATOM     14  C   UNL     1       6.532   9.489   9.094  0.00  0.00    +0.067 C 
ATOM     15  C   UNL     1       6.571   9.780  10.665  0.00  0.00    +0.127 C 
ATOM     16  C   UNL     1       7.506   8.872  11.551  0.00  0.00    +0.056 C 
ATOM     17  C   UNL     1       7.068   7.396  11.443  0.00  0.00    +0.014 C 
ATOM     18  C   UNL     1       8.983   9.041  11.129  0.00  0.00    +0.186 C 
ATOM     19  C   UNL     1      10.109   8.433  12.000  0.00  0.00    +0.076 C 
ATOM     20  C   UNL     1      11.227   7.840  11.171  0.00  0.00    -0.057 C 
ATOM     21  C   UNL     1      10.992   7.353   9.948  0.00  0.00    +0.091 C 
ATOM     22  C   UNL     1       9.708   7.497   9.289  0.00  0.00    +0.332 C 
ATOM     23  O   UNL     1       9.400   6.845   8.305  0.00  0.00    -0.246 OA
ATOM     24  C   UNL     1      12.646   7.783  11.694  0.00  0.00    +0.063 C 
ATOM     25  C   UNL     1      13.556   9.046  11.664  0.00  0.00    +0.126 C 
ATOM     26  C   UNL     1      13.786   9.837  10.320  0.00  0.00    +0.062 C 
ATOM     27  C   UNL     1      12.985  11.100   9.968  0.00  0.00    -0.070 C 
ATOM     28  C   UNL     1      11.506  11.002  10.163  0.00  0.00    +0.039 C 
ATOM     29  C   UNL     1      13.501  12.228   9.410  0.00  0.00    -0.001 C 
ATOM     30  C   UNL     1      12.659  13.398   9.157  0.00  0.00    +0.007 C 
ATOM     31  C   UNL     1      12.800  14.405   8.276  0.00  0.00    +0.091 C 
ATOM     32  C   UNL     1      11.514  15.125   7.958  0.00  0.00    +0.332 C 
ATOM     33  O   UNL     1      10.495  15.027   8.623  0.00  0.00    -0.246 OA
ATOM     34  O   UNL     1       8.952   8.448   9.791  0.00  0.00    -0.458 OA
ATOM     35  O   UNL     1      11.558  15.634   6.703  0.00  0.00    -0.457 OA
ENDROOT
BRANCH   1  36
ATOM     36  C   UNL     1       9.140  16.310   5.938  0.00  0.00    +0.056 C 
ATOM     37  C   UNL     1       8.197  16.199   4.724  0.00  0.00    +0.014 C 
BRANCH  36  38
ATOM     38  C   UNL     1       8.321  16.719   7.264  0.00  0.00    +0.127 C 
BRANCH  38  39
ATOM     39  O   UNL     1       7.464  17.795   6.810  0.00  0.00    -0.379 OA
ATOM     40  C   UNL     1       7.054  18.752   7.767  0.00  0.00    +0.194 C 
ENDBRANCH  38  39
BRANCH  38  41
ATOM     41  C   UNL     1       7.487  15.737   8.173  0.00  0.00    +0.016 C 
ATOM     42  C   UNL     1       7.240  16.359   9.591  0.00  0.00    +0.010 C 
BRANCH  41  43
ATOM     43  C   UNL     1       6.093  15.135   7.773  0.00  0.00    +0.013 C 
BRANCH  43  44
ATOM     44  C   UNL     1       5.889  14.427   6.430  0.00  0.00    +0.075 C 
BRANCH  44  45
ATOM     45  C   UNL     1       4.592  13.615   6.335  0.00  0.00    +0.139 C 
ATOM     46  O   UNL     1       3.570  14.027   6.881  0.00  0.00    -0.297 OA
BRANCH  45  47
ATOM     47  C   UNL     1       4.549  12.278   5.557  0.00  0.00    +0.081 C 
ATOM     48  C   UNL     1       4.963  11.184   6.499  0.00  0.00    +0.018 C 
BRANCH  47  49
ATOM     49  C   UNL     1       5.363  12.225   4.242  0.00  0.00    +0.128 C 
BRANCH  49  50
ATOM     50  O   UNL     1       4.903  13.200   3.303  0.00  0.00    -0.379 OA
ATOM     51  C   UNL     1       3.524  13.078   2.973  0.00  0.00    +0.194 C 
ENDBRANCH  49  50
BRANCH  49  53
ATOM     52  C   UNL     1       5.933  10.833   2.155  0.00  0.00    +0.006 C 
ATOM     53  C   UNL     1       5.391  10.820   3.580  0.00  0.00    +0.029 C 
ENDBRANCH  49  53
ENDBRANCH  47  49
ENDBRANCH  45  47
ENDBRANCH  44  45
ENDBRANCH  43  44
ENDBRANCH  41  43
ENDBRANCH  38  41
ENDBRANCH  36  38
ENDBRANCH   1  36
BRANCH  25  54
ATOM     54  O   UNL     1      13.203   9.889  12.764  0.00  0.00    -0.379 OA
ATOM     55  C   UNL     1      14.341  10.535  13.322  0.00  0.00    +0.194 C 
ENDBRANCH  25  54
BRANCH  15  56
ATOM     56  O   UNL     1       6.828  11.173  10.906  0.00  0.00    -0.379 OA
ATOM     57  C   UNL     1       6.536  11.633  12.221  0.00  0.00    +0.194 C 
ENDBRANCH  15  56
BRANCH  13  58
ATOM     58  O   UNL     1       7.326  11.521   8.198  0.00  0.00    -0.376 OA
ATOM     59  C   UNL     1       8.405  12.293   7.781  0.00  0.00    +0.194 C 
ENDBRANCH  13  58
BRANCH   8  60
ATOM     60  O   UNL     1      10.259  11.088   2.843  0.00  0.00    -0.379 OA
ATOM     61  C   UNL     1       9.479  11.583   1.781  0.00  0.00    +0.194 C 
ENDBRANCH   8  60
BRANCH   6  62
ATOM     62  O   UNL     1      11.960   9.703   6.527  0.00  0.00    -0.376 OA
ATOM     63  C   UNL     1      12.994   8.761   6.314  0.00  0.00    +0.194 C 
ENDBRANCH   6  62
TORSDOF 16
