REMARK  Name = 
REMARK  33 active torsions:
REMARK  status: ('A' for Active; 'I' for Inactive)
REMARK    1  A    between atoms: C_1  and  O_2
REMARK    2  A    between atoms: O_2  and  C_3
REMARK    3  A    between atoms: C_3  and  C_5
REMARK    4  A    between atoms: C_3  and  C_12
REMARK    5  A    between atoms: C_5  and  C_6
REMARK    6  A    between atoms: C_7  and  N_8
REMARK    7  A    between atoms: N_8  and  C_9
REMARK    8  A    between atoms: C_12  and  C_14
REMARK    9  A    between atoms: C_12  and  C_15
REMARK   10  A    between atoms: C_15  and  C_17
REMARK   11  A    between atoms: C_17  and  C_18
REMARK   12  A    between atoms: C_18  and  C_19
REMARK   13  A    between atoms: C_19  and  C_21
REMARK   14  A    between atoms: C_19  and  C_22
REMARK   15  A    between atoms: C_22  and  O_24
REMARK   16  A    between atoms: C_22  and  C_26
REMARK   17  A    between atoms: O_24  and  C_25
REMARK   18  A    between atoms: C_26  and  C_28
REMARK   19  A    between atoms: C_26  and  C_29
REMARK   20  A    between atoms: C_37  and  C_38
REMARK   21  A    between atoms: C_40  and  O_82
REMARK   22  A    between atoms: C_51  and  C_53
REMARK   23  A    between atoms: C_54  and  O_80
REMARK   24  A    between atoms: C_57  and  O_59
REMARK   25  A    between atoms: O_59  and  C_60
REMARK   26  A    between atoms: C_63  and  C_65
REMARK   27  A    between atoms: C_66  and  O_78
REMARK   28  A    between atoms: C_69  and  O_71
REMARK   29  A    between atoms: O_71  and  C_72
REMARK   30  A    between atoms: C_75  and  C_77
REMARK   31  A    between atoms: O_78  and  C_79
REMARK   32  A    between atoms: O_80  and  C_81
REMARK   33  A    between atoms: O_82  and  C_83
REMARK                            x       y       z     vdW  Elec       q    Type
REMARK                         _______ _______ _______ _____ _____    ______ ____
ROOT
ATOM      1  C   UNL     1      22.487 -15.451   9.632  0.00  0.00    +0.189 C 
ATOM      2  C   UNL     1      20.843 -16.209   9.673  0.00  0.00    +0.049 C 
ATOM      3  C   UNL     1      21.000 -17.514  10.479  0.00  0.00    +0.015 C 
ATOM      4  C   UNL     1      19.348 -15.498  10.062  0.00  0.00    -0.022 C 
ATOM      5  C   UNL     1      17.955 -15.532   9.832  0.00  0.00    +0.000 C 
ATOM      6  C   UNL     1      16.817 -16.294   8.949  0.00  0.00    +0.143 C 
ATOM      7  C   UNL     1      15.225 -16.860   8.960  0.00  0.00    +0.068 C 
ATOM      8  C   UNL     1      14.857 -18.252   8.080  0.00  0.00    +0.127 C 
ATOM      9  C   UNL     1      15.416 -18.836   6.596  0.00  0.00    +0.037 C 
ATOM     10  C   UNL     1      14.627 -18.376   5.339  0.00  0.00    +0.014 C 
ATOM     11  C   UNL     1      16.939 -18.834   6.423  0.00  0.00    -0.023 C 
ATOM     12  C   UNL     1      17.673 -18.421   5.354  0.00  0.00    +0.000 C 
ATOM     13  C   UNL     1      18.834 -17.438   5.564  0.00  0.00    +0.143 C 
ATOM     14  C   UNL     1      19.837 -17.077   4.440  0.00  0.00    +0.067 C 
ATOM     15  C   UNL     1      20.575 -15.672   4.411  0.00  0.00    +0.127 C 
ATOM     16  C   UNL     1      19.947 -14.209   4.558  0.00  0.00    +0.056 C 
ATOM     17  C   UNL     1      19.565 -13.772   3.130  0.00  0.00    +0.014 C 
ATOM     18  C   UNL     1      18.732 -14.078   5.513  0.00  0.00    +0.186 C 
ATOM     19  C   UNL     1      18.365 -12.773   6.272  0.00  0.00    +0.076 C 
ATOM     20  C   UNL     1      17.132 -12.060   5.797  0.00  0.00    -0.057 C 
ATOM     21  C   UNL     1      16.230 -12.740   5.085  0.00  0.00    +0.091 C 
ATOM     22  C   UNL     1      16.489 -13.953   4.400  0.00  0.00    +0.332 C 
ATOM     23  O   UNL     1      15.715 -14.478   3.669  0.00  0.00    -0.246 OA
ATOM     24  C   UNL     1      16.865 -10.599   6.048  0.00  0.00    +0.063 C 
ATOM     25  C   UNL     1      17.778  -9.578   5.305  0.00  0.00    +0.126 C 
ATOM     26  C   UNL     1      19.017  -9.098   6.132  0.00  0.00    +0.062 C 
ATOM     27  C   UNL     1      20.255  -9.978   6.251  0.00  0.00    -0.070 C 
ATOM     28  C   UNL     1      20.721 -10.663   4.978  0.00  0.00    +0.039 C 
ATOM     29  C   UNL     1      20.789 -10.176   7.474  0.00  0.00    -0.001 C 
ATOM     30  C   UNL     1      21.485 -11.375   7.823  0.00  0.00    +0.007 C 
ATOM     31  C   UNL     1      21.867 -11.811   9.043  0.00  0.00    +0.091 C 
ATOM     32  C   UNL     1      21.616 -13.271   9.143  0.00  0.00    +0.332 C 
ATOM     33  O   UNL     1      20.628 -13.702   8.615  0.00  0.00    -0.246 OA
ATOM     34  O   UNL     1      17.674 -14.570   4.576  0.00  0.00    -0.458 OA
ATOM     35  O   UNL     1      22.587 -13.980   9.729  0.00  0.00    -0.457 OA
ENDROOT
BRANCH   6  36
ATOM     36  O   UNL     1      16.616 -15.230   7.992  0.00  0.00    -0.376 OA
ATOM     37  C   UNL     1      16.183 -15.810   6.820  0.00  0.00    +0.194 C 
ENDBRANCH   6  36
BRANCH  25  38
ATOM     38  O   UNL     1      18.185  -9.982   3.990  0.00  0.00    -0.379 OA
ATOM     39  C   UNL     1      17.161 -10.235   3.042  0.00  0.00    +0.194 C 
ENDBRANCH  25  38
BRANCH  15  40
ATOM     40  O   UNL     1      21.764 -15.694   5.186  0.00  0.00    -0.379 OA
ATOM     41  C   UNL     1      21.484 -15.575   6.547  0.00  0.00    +0.194 C 
ENDBRANCH  15  40
BRANCH  13  42
ATOM     42  O   UNL     1      19.334 -17.520   6.888  0.00  0.00    -0.376 OA
ATOM     43  C   UNL     1      20.070 -18.687   7.213  0.00  0.00    +0.194 C 
ENDBRANCH  13  42
BRANCH   8  44
ATOM     44  O   UNL     1      15.134 -19.246   9.090  0.00  0.00    -0.379 OA
ATOM     45  C   UNL     1      14.485 -20.489   8.902  0.00  0.00    +0.194 C 
ENDBRANCH   8  44
BRANCH   1  46
ATOM     46  C   UNL     1      23.932 -16.034   8.814  0.00  0.00    +0.056 C 
ATOM     47  C   UNL     1      24.120 -17.569   8.930  0.00  0.00    +0.014 C 
BRANCH  46  48
ATOM     48  C   UNL     1      24.599 -15.683   7.326  0.00  0.00    +0.127 C 
BRANCH  48  49
ATOM     49  O   UNL     1      24.027 -16.563   6.335  0.00  0.00    -0.379 OA
ATOM     50  C   UNL     1      24.487 -16.452   4.991  0.00  0.00    +0.194 C 
ENDBRANCH  48  49
BRANCH  48  51
ATOM     51  C   UNL     1      24.952 -14.240   6.802  0.00  0.00    +0.016 C 
ATOM     52  C   UNL     1      23.785 -13.331   6.526  0.00  0.00    +0.010 C 
BRANCH  51  53
ATOM     53  C   UNL     1      25.970 -13.485   7.667  0.00  0.00    +0.013 C 
BRANCH  53  54
ATOM     54  C   UNL     1      27.319 -14.178   7.598  0.00  0.00    +0.075 C 
BRANCH  54  55
ATOM     55  C   UNL     1      28.377 -13.454   8.389  0.00  0.00    +0.139 C 
ATOM     56  O   UNL     1      28.781 -12.342   8.047  0.00  0.00    -0.297 OA
BRANCH  55  57
ATOM     57  C   UNL     1      28.948 -14.167   9.605  0.00  0.00    +0.081 C 
ATOM     58  C   UNL     1      29.664 -15.441   9.146  0.00  0.00    +0.018 C 
BRANCH  57  59
ATOM     59  C   UNL     1      27.840 -14.412  10.657  0.00  0.00    +0.132 C 
BRANCH  59  61
ATOM     60  C   UNL     1      27.726 -12.080  11.374  0.00  0.00    +0.194 C 
ATOM     61  O   UNL     1      27.050 -13.238  10.906  0.00  0.00    -0.379 OA
ENDBRANCH  59  61
BRANCH  59  62
ATOM     62  C   UNL     1      28.418 -15.022  11.949  0.00  0.00    +0.060 C 
BRANCH  62  63
ATOM     63  C   UNL     1      27.415 -15.259  13.047  0.00  0.00    -0.009 C 
ATOM     64  C   UNL     1      27.170 -16.467  13.575  0.00  0.00    +0.073 C 
BRANCH  64  65
ATOM     65  N   UNL     1      26.387 -16.739  14.685  0.00  0.00    -0.284 N 
ATOM     66  C   UNL     1      26.237 -18.048  15.146  0.00  0.00    +0.332 C 
ATOM     67  O   UNL     1      25.628 -18.391  16.153  0.00  0.00    -0.279 OA
ATOM     68  C   UNL     1      25.771 -15.712  15.509  0.00  0.00    +0.137 C 
ENDBRANCH  64  65
ENDBRANCH  62  63
ENDBRANCH  59  62
ENDBRANCH  57  59
ENDBRANCH  55  57
ENDBRANCH  54  55
ENDBRANCH  53  54
ENDBRANCH  51  53
ENDBRANCH  48  51
ENDBRANCH  46  48
ENDBRANCH   1  46
TORSDOF 18
