REMARK  Name = 
REMARK  12 active torsions:
REMARK  status: ('A' for Active; 'I' for Inactive)
REMARK    1  A    between atoms: C_1  and  C_2
REMARK    2  A    between atoms: C_2  and  C_37
REMARK    3  A    between atoms: C_8  and  O_10
REMARK    4  A    between atoms: O_10  and  C_11
REMARK    5  A    between atoms: C_13  and  O_15
REMARK    6  A    between atoms: C_16  and  O_18
REMARK    7  A    between atoms: C_19  and  O_21
REMARK    8  A    between atoms: C_23  and  C_25
REMARK    9  A    between atoms: C_25  and  O_26
REMARK   10  A    between atoms: C_28  and  O_30
REMARK   11  A    between atoms: C_31  and  O_33
REMARK   12  A    between atoms: C_37  and  O_38
REMARK                            x       y       z     vdW  Elec       q    Type
REMARK                         _______ _______ _______ _____ _____    ______ ____
ROOT
ATOM      1  C   UNL     1       3.027  -0.342   1.337  0.00  0.00    +0.087 C 
ATOM      2  C   UNL     1       2.467  -0.091  -0.067  0.00  0.00    +0.268 C 
ATOM      3  O   UNL     1       2.907   1.227  -0.431  0.00  0.00    -0.331 OA
ATOM      4  C   UNL     1       2.610   1.518  -1.804  0.00  0.00    +0.184 C 
ATOM      5  C   UNL     1       3.281   0.495  -2.716  0.00  0.00    +0.178 C 
ATOM      6  O   UNL     1       2.985   0.751  -4.086  0.00  0.00    -0.340 OA
ATOM      7  C   UNL     1       3.474   2.029  -4.519  0.00  0.00    +0.282 C 
ATOM      8  C   UNL     1       2.850   3.169  -3.672  0.00  0.00    +0.201 C 
ATOM      9  C   UNL     1       2.786  -0.880  -2.284  0.00  0.00    +0.198 C 
ATOM     10  C   UNL     1       3.110   2.917  -2.176  0.00  0.00    +0.179 C 
ATOM     11  O   UNL     1       3.063  -1.083  -0.900  0.00  0.00    -0.337 OA
ENDROOT
BRANCH   2  12
ATOM     12  C   UNL     1       0.907  -0.155   0.087  0.00  0.00    +0.365 C 
ATOM     13  O   UNL     1       0.223  -1.158  -0.044  0.00  0.00    -0.245 OA
BRANCH  12  14
ATOM     14  O   UNL     1       0.364   1.062   0.378  0.00  0.00    -0.477 OA
ATOM     15  H   UNL     1       1.049   1.770   0.367  0.00  0.00    +0.295 HD
ENDBRANCH  12  14
ENDBRANCH   2  12
BRANCH   8  16
ATOM     16  O   UNL     1       1.433   3.254  -3.898  0.00  0.00    -0.384 OA
ATOM     17  H   UNL     1       1.250   2.903  -4.791  0.00  0.00    +0.210 HD
ENDBRANCH   8  16
BRANCH  10  18
ATOM     18  O   UNL     1       2.462   3.886  -1.343  0.00  0.00    -0.386 OA
ATOM     19  H   UNL     1       2.464   4.739  -1.812  0.00  0.00    +0.210 HD
ENDBRANCH  10  18
BRANCH   7  20
ATOM     20  O   UNL     1       3.143   2.118  -5.910  0.00  0.00    -0.340 OA
BRANCH  20  21
ATOM     21  C   UNL     1       3.462   3.342  -6.601  0.00  0.00    +0.192 C 
ATOM     22  C   UNL     1       2.890   3.192  -8.031  0.00  0.00    +0.260 C 
ATOM     23  O   UNL     1       3.661   2.338  -8.881  0.00  0.00    -0.332 OA
ATOM     24  C   UNL     1       5.064   2.562  -8.907  0.00  0.00    +0.280 C 
ATOM     25  C   UNL     1       5.700   2.588  -7.512  0.00  0.00    +0.201 C 
ATOM     26  C   UNL     1       4.976   3.616  -6.637  0.00  0.00    +0.180 C 
BRANCH  22  27
ATOM     27  C   UNL     1       2.488   4.562  -8.602  0.00  0.00    +0.337 C 
ATOM     28  O   UNL     1       1.815   5.378  -7.992  0.00  0.00    -0.248 OA
BRANCH  27  29
ATOM     29  O   UNL     1       2.925   4.787  -9.858  0.00  0.00    -0.479 OA
ATOM     30  H   UNL     1       3.541   4.079 -10.151  0.00  0.00    +0.295 HD
ENDBRANCH  27  29
ENDBRANCH  22  27
BRANCH  24  31
ATOM     31  O   UNL     1       5.301   3.781  -9.595  0.00  0.00    -0.365 OA
ATOM     32  H   UNL     1       6.214   3.729  -9.941  0.00  0.00    +0.213 HD
ENDBRANCH  24  31
BRANCH  25  33
ATOM     33  O   UNL     1       5.664   1.291  -6.911  0.00  0.00    -0.384 OA
ATOM     34  H   UNL     1       4.729   0.999  -6.866  0.00  0.00    +0.210 HD
ENDBRANCH  25  33
BRANCH  26  35
ATOM     35  O   UNL     1       5.237   4.958  -7.051  0.00  0.00    -0.386 OA
ATOM     36  H   UNL     1       5.120   5.044  -8.019  0.00  0.00    +0.210 HD
ENDBRANCH  26  35
ENDBRANCH  20  21
ENDBRANCH   7  20
TORSDOF 11
