REMARK  Name = 
REMARK  11 active torsions:
REMARK  status: ('A' for Active; 'I' for Inactive)
REMARK    1  A    between atoms: C_1  and  N_2
REMARK    2  A    between atoms: N_2  and  C_3
REMARK    3  A    between atoms: N_2  and  C_4
REMARK    4  A    between atoms: C_13  and  S_14
REMARK    5  A    between atoms: S_14  and  N_17
REMARK    6  A    between atoms: N_17  and  C_18
REMARK    7  A    between atoms: C_18  and  C_19
REMARK    8  A    between atoms: C_19  and  C_20
REMARK    9  A    between atoms: C_20  and  C_21
REMARK   10  A    between atoms: C_21  and  N_22
REMARK   11  A    between atoms: C_23  and  C_25
REMARK                            x       y       z     vdW  Elec       q    Type
REMARK                         _______ _______ _______ _____ _____    ______ ____
ROOT
ATOM      1  N   UNL     1       3.657  -7.425  -1.775  0.00  0.00    -0.190 NA
ATOM      2  H   UNL     1       2.641  -7.480  -1.849  0.00  0.00    +0.148 HD
ENDROOT
BRANCH   1   3
ATOM      3  S   UNL     1       4.209  -5.843  -2.065  0.00  0.00    +0.059 S 
ATOM      4  O   UNL     1       3.412  -4.943  -1.271  0.00  0.00    -0.153 OA
ATOM      5  O   UNL     1       5.648  -5.869  -1.954  0.00  0.00    -0.153 OA
BRANCH   3  11
ATOM      6  C   UNL     1       0.817  -5.495  -6.149  0.00  0.00    +0.037 A 
ATOM      7  C   UNL     1       2.164  -5.486  -5.641  0.00  0.00    +0.005 A 
ATOM      8  C   UNL     1       3.283  -5.331  -6.495  0.00  0.00    +0.010 A 
ATOM      9  C   UNL     1       4.600  -5.339  -6.036  0.00  0.00    +0.003 A 
ATOM     10  C   UNL     1       4.850  -5.488  -4.684  0.00  0.00    +0.029 A 
ATOM     11  C   UNL     1       3.779  -5.611  -3.791  0.00  0.00    +0.113 A 
ATOM     12  C   UNL     1       2.420  -5.585  -4.237  0.00  0.00    +0.010 A 
ATOM     13  C   UNL     1       1.303  -5.629  -3.371  0.00  0.00    +0.010 A 
ATOM     14  C   UNL     1      -0.000  -5.614  -3.848  0.00  0.00    +0.002 A 
ATOM     15  C   UNL     1      -0.235  -5.561  -5.215  0.00  0.00    +0.024 A 
BRANCH   6  17
ATOM     16  C   UNL     1      -0.724  -4.777  -7.939  0.00  0.00    +0.129 C 
ATOM     17  N   UNL     1       0.540  -5.404  -7.537  0.00  0.00    -0.336 N 
ATOM     18  C   UNL     1       0.939  -6.559  -8.350  0.00  0.00    +0.129 C 
ENDBRANCH   6  17
ENDBRANCH   3  11
ENDBRANCH   1   3
BRANCH   1  19
ATOM     19  C   UNL     1       4.391  -8.501  -2.456  0.00  0.00    +0.106 C 
BRANCH  19  20
ATOM     20  C   UNL     1       3.820  -9.855  -2.043  0.00  0.00    +0.018 C 
BRANCH  20  21
ATOM     21  C   UNL     1       4.601 -10.982  -2.720  0.00  0.00    +0.020 C 
BRANCH  21  22
ATOM     22  C   UNL     1       4.073 -12.360  -2.332  0.00  0.00    +0.104 C 
BRANCH  22  23
ATOM     23  N   UNL     1       4.783 -13.413  -3.034  0.00  0.00    -0.315 N 
ATOM     24  H   UNL     1       5.631 -13.781  -2.624  0.00  0.00    +0.149 HD
ATOM     25  C   UNL     1       4.398 -13.820  -4.293  0.00  0.00    +0.219 C 
ATOM     26  O   UNL     1       3.435 -13.315  -4.867  0.00  0.00    -0.275 OA
BRANCH  25  27
ATOM     27  C   UNL     1       5.254 -14.925  -4.937  0.00  0.00    +0.048 C 
ATOM     28  C   UNL     1       4.641 -15.298  -6.313  0.00  0.00    +0.019 C 
ATOM     29  C   UNL     1       5.460 -16.396  -7.004  0.00  0.00    -0.009 C 
ATOM     30  C   UNL     1       6.896 -15.890  -7.215  0.00  0.00    +0.007 C 
ATOM     31  C   UNL     1       7.536 -15.546  -5.860  0.00  0.00    -0.009 C 
ATOM     32  C   UNL     1       7.550 -16.806  -4.978  0.00  0.00    +0.007 C 
ATOM     33  C   UNL     1       6.113 -17.307  -4.750  0.00  0.00    -0.009 C 
ATOM     34  C   UNL     1       5.479 -17.644  -6.109  0.00  0.00    +0.007 C 
ATOM     35  C   UNL     1       6.708 -14.447  -5.165  0.00  0.00    +0.019 C 
ATOM     36  C   UNL     1       5.291 -16.201  -4.061  0.00  0.00    +0.019 C 
ENDBRANCH  25  27
ENDBRANCH  22  23
ENDBRANCH  21  22
ENDBRANCH  20  21
ENDBRANCH  19  20
ENDBRANCH   1  19
TORSDOF 9
