REMARK  Name = 
REMARK  4 active torsions:
REMARK  status: ('A' for Active; 'I' for Inactive)
REMARK    1  A    between atoms: O_1  and  C_2
REMARK    2  A    between atoms: C_5  and  C_8
REMARK    3  A    between atoms: C_8  and  C_18
REMARK    4  A    between atoms: C_21  and  O_22
REMARK                            x       y       z     vdW  Elec       q    Type
REMARK                         _______ _______ _______ _____ _____    ______ ____
ROOT
ATOM      1  C   UNL     1       6.517  -0.051  -0.799  0.00  0.00    +0.124 C 
ATOM      2  C   UNL     1       7.225  -1.320  -0.304  0.00  0.00    -0.003 A 
ATOM      3  C   UNL     1       8.168  -0.998   0.672  0.00  0.00    +0.038 A 
ATOM      4  C   UNL     1       8.911  -1.955   1.334  0.00  0.00    +0.023 A 
ATOM      5  C   UNL     1       8.668  -3.293   1.016  0.00  0.00    +0.002 A 
ATOM      6  C   UNL     1       7.730  -3.637   0.029  0.00  0.00    +0.000 A 
ATOM      7  N   UNL     1       8.218   0.369   0.868  0.00  0.00    -0.284 N 
ATOM      8  H   UNL     1       8.829   0.853   1.509  0.00  0.00    +0.155 HD
ATOM      9  C   UNL     1       7.025  -2.648  -0.661  0.00  0.00    +0.007 A 
ATOM     10  C   UNL     1       7.297   1.035   0.065  0.00  0.00    +0.237 C 
ATOM     11  O   UNL     1       7.174   2.253   0.040  0.00  0.00    -0.274 OA
ENDROOT
BRANCH   1  15
ATOM     12  C   UNL     1       2.222   0.138   0.022  0.00  0.00    +0.117 A 
ATOM     13  C   UNL     1       2.914  -1.024   0.304  0.00  0.00    +0.046 A 
ATOM     14  C   UNL     1       4.294  -1.078   0.096  0.00  0.00    +0.009 A 
ATOM     15  C   UNL     1       5.007   0.021  -0.422  0.00  0.00    -0.024 A 
ATOM     16  C   UNL     1       4.276   1.204  -0.662  0.00  0.00    +0.009 A 
ATOM     17  C   UNL     1       2.894   1.263  -0.440  0.00  0.00    +0.046 A 
BRANCH  12  18
ATOM     18  O   UNL     1       0.873   0.130   0.209  0.00  0.00    -0.507 OA
ATOM     19  H   UNL     1       0.517   0.983  -0.087  0.00  0.00    +0.292 HD
ENDBRANCH  12  18
ENDBRANCH   1  15
BRANCH   1  20
ATOM     20  C   UNL     1       6.775   0.143  -2.317  0.00  0.00    -0.024 A 
ATOM     21  C   UNL     1       5.840  -0.302  -3.274  0.00  0.00    +0.009 A 
ATOM     22  C   UNL     1       6.063  -0.123  -4.642  0.00  0.00    +0.046 A 
ATOM     23  C   UNL     1       7.231   0.483  -5.078  0.00  0.00    +0.117 A 
ATOM     24  C   UNL     1       8.195   0.896  -4.168  0.00  0.00    +0.046 A 
ATOM     25  C   UNL     1       7.970   0.720  -2.797  0.00  0.00    +0.009 A 
BRANCH  23  26
ATOM     26  O   UNL     1       7.395   0.658  -6.420  0.00  0.00    -0.507 OA
ATOM     27  H   UNL     1       8.190   1.196  -6.566  0.00  0.00    +0.292 HD
ENDBRANCH  23  26
ENDBRANCH   1  20
TORSDOF 4
