REMARK  Name = 
REMARK  17 active torsions:
REMARK  status: ('A' for Active; 'I' for Inactive)
REMARK    1  A    between atoms: C_1  and  N_2
REMARK    2  A    between atoms: C_3  and  C_5
REMARK    3  A    between atoms: C_5  and  C_7
REMARK    4  A    between atoms: C_5  and  C_8
REMARK    5  A    between atoms: N_10  and  C_11
REMARK    6  A    between atoms: C_15  and  O_17
REMARK    7  A    between atoms: C_18  and  C_20
REMARK    8  A    between atoms: C_22  and  O_23
REMARK    9  A    between atoms: C_24  and  C_25
REMARK   10  A    between atoms: C_25  and  C_27
REMARK   11  A    between atoms: C_28  and  C_29
REMARK   12  A    between atoms: C_29  and  C_30
REMARK   13  A    between atoms: C_31  and  C_32
REMARK   14  A    between atoms: C_32  and  C_34
REMARK   15  A    between atoms: C_32  and  C_35
REMARK   16  A    between atoms: C_38  and  C_39
REMARK   17  A    between atoms: C_48  and  C_50
REMARK                            x       y       z     vdW  Elec       q    Type
REMARK                         _______ _______ _______ _____ _____    ______ ____
ROOT
ATOM      1  C   UNL     1      -0.000  -0.000  -0.000  0.00  0.00    +0.162 C 
ATOM      2  C   UNL     1      -0.000  -0.000   0.000  0.00  0.00    +0.193 C 
ATOM      3  O   UNL     1      -0.000  -0.000  -0.000  0.00  0.00    -0.290 OA
ATOM      4  C   UNL     1      -0.000  -0.000  -0.000  0.00  0.00    +0.123 C 
ATOM      5  C   UNL     1      -0.000  -0.000  -0.000  0.00  0.00    +0.197 C 
ATOM      6  N   UNL     1      -0.000  -0.000  -0.000  0.00  0.00    -0.264 N 
ENDROOT
BRANCH   6   7
ATOM      7  C   UNL     1      -0.000  -0.000  -0.000  0.00  0.00    +0.209 C 
ATOM      8  O   UNL     1      -0.000  -0.000  -0.000  0.00  0.00    -0.353 OA
ATOM      9  C   UNL     1      -0.000  -0.000  -0.000  0.00  0.00    +0.146 C 
ATOM     10  C   UNL     1      -0.000  -0.000   0.000  0.00  0.00    +0.040 C 
ATOM     11  C   UNL     1      -0.000  -0.000  -0.000  0.00  0.00    +0.143 C 
ATOM     12  C   UNL     1      -0.000  -0.000  -0.000  0.00  0.00    +0.038 C 
ATOM     13  C   UNL     1      -0.000  -0.000  -0.000  0.00  0.00    +0.054 C 
BRANCH  11  14
ATOM     14  O   UNL     1      -0.000  -0.000  -0.000  0.00  0.00    -0.389 OA
ATOM     15  H   UNL     1      -0.000  -0.000  -0.000  0.00  0.00    +0.210 HD
ENDBRANCH  11  14
ENDBRANCH   6   7
BRANCH   1  16
ATOM     16  C   UNL     1      -0.000  -0.000  -0.000  0.00  0.00    +0.100 C 
ATOM     17  C   UNL     1      -0.000  -0.000  -0.000  0.00  0.00    +0.019 C 
BRANCH  16  21
ATOM     18  C   UNL     1      -0.000  -0.000  -0.000  0.00  0.00    +0.128 C 
ATOM     19  N   UNL     1      -0.000  -0.000  -0.000  0.00  0.00    -0.318 N 
ATOM     20  H   UNL     1      -0.000  -0.000  -0.000  0.00  0.00    +0.148 HD
ATOM     21  C   UNL     1      -0.000  -0.000  -0.000  0.00  0.00    +0.218 C 
ATOM     22  O   UNL     1      -0.000  -0.000  -0.000  0.00  0.00    -0.275 OA
ENDBRANCH  16  21
ENDBRANCH   1  16
BRANCH   4  23
ATOM     23  C   UNL     1      -0.000  -0.000  -0.000  0.00  0.00    +0.194 C 
ATOM     24  O   UNL     1      -0.000  -0.000  -0.000  0.00  0.00    -0.287 OA
BRANCH  23  25
ATOM     25  C   UNL     1      -0.000  -0.000  -0.000  0.00  0.00    +0.052 C 
ATOM     26  C   UNL     1      -0.000  -0.000  -0.000  0.00  0.00    +0.007 C 
BRANCH  26  27
ATOM     27  C   UNL     1      -0.000  -0.000  -0.000  0.00  0.00    -0.054 C 
ATOM     28  C   UNL     1      -0.000  -0.000  -0.000  0.00  0.00    -0.018 C 
ATOM     29  C   UNL     1      -0.000  -0.000  -0.000  0.00  0.00    +0.043 C 
BRANCH  28  30
ATOM     30  C   UNL     1      -0.000  -0.000  -0.000  0.00  0.00    +0.038 C 
ATOM     31  C   UNL     1      -0.000  -0.000   0.000  0.00  0.00    +0.014 C 
BRANCH  30  32
ATOM     32  C   UNL     1      -0.000  -0.000  -0.000  0.00  0.00    +0.134 C 
ATOM     33  C   UNL     1      -0.000  -0.000  -0.000  0.00  0.00    +0.048 C 
ATOM     34  C   UNL     1      -0.000  -0.000  -0.000  0.00  0.00    +0.013 C 
ATOM     35  C   UNL     1      -0.000  -0.000  -0.000  0.00  0.00    +0.150 C 
ATOM     36  C   UNL     1      -0.000  -0.000  -0.000  0.00  0.00    +0.003 C 
ATOM     37  C   UNL     1      -0.000  -0.000  -0.000  0.00  0.00    +0.013 C 
ATOM     38  C   UNL     1      -0.000  -0.000  -0.000  0.00  0.00    +0.164 C 
ATOM     39  O   UNL     1      -0.000  -0.000  -0.000  0.00  0.00    -0.358 OA
ATOM     40  C   UNL     1      -0.000  -0.000  -0.000  0.00  0.00    +0.206 C 
ATOM     41  C   UNL     1      -0.000  -0.000  -0.000  0.00  0.00    +0.203 C 
ATOM     42  C   UNL     1      -0.000  -0.000  -0.000  0.00  0.00    +0.077 C 
ATOM     43  O   UNL     1      -0.000  -0.000  -0.000  0.00  0.00    -0.338 OA
ATOM     44  O   UNL     1      -0.000  -0.000  -0.000  0.00  0.00    -0.342 OA
ENDBRANCH  30  32
ENDBRANCH  28  30
ENDBRANCH  26  27
ENDBRANCH  23  25
ENDBRANCH   4  23
BRANCH   5  45
ATOM     45  O   UNL     1       0.000  -0.000  -0.000  0.00  0.00    -0.495 OA
ATOM     46  H   UNL     1      -0.000  -0.000   0.000  0.00  0.00    +0.293 HD
ENDBRANCH   5  45
TORSDOF 10
