REMARK  Name = 
REMARK  8 active torsions:
REMARK  status: ('A' for Active; 'I' for Inactive)
REMARK    1  A    between atoms: C_3  and  C_4
REMARK    2  A    between atoms: N_6  and  C_12
REMARK    3  A    between atoms: C_15  and  O_17
REMARK    4  A    between atoms: C_18  and  C_20
REMARK    5  A    between atoms: C_20  and  O_21
REMARK    6  A    between atoms: O_21  and  P_22
REMARK    7  A    between atoms: P_22  and  O_23
REMARK    8  A    between atoms: P_22  and  O_24
REMARK                            x       y       z     vdW  Elec       q    Type
REMARK                         _______ _______ _______ _____ _____    ______ ____
ROOT
ATOM      1  C   UNL     1       7.797  -0.016  -1.750  0.00  0.00    +0.226 C 
ATOM      2  O   UNL     1       9.049  -0.654  -2.075  0.00  0.00    -0.348 OA
ATOM      3  C   UNL     1       9.969   0.363  -2.514  0.00  0.00    +0.175 C 
ATOM      4  C   UNL     1       9.180   1.670  -2.608  0.00  0.00    +0.150 C 
ATOM      5  C   UNL     1       8.107   1.459  -1.566  0.00  0.00    +0.088 C 
ENDROOT
BRANCH   1  13
ATOM      6  C   UNL     1       7.544  -1.706   1.553  0.00  0.00    +0.056 A 
ATOM      7  C   UNL     1       6.056  -1.726   1.715  0.00  0.00    +0.261 A 
ATOM      8  O   UNL     1       5.517  -2.143   2.735  0.00  0.00    -0.267 OA
ATOM      9  N   UNL     1       5.330  -1.235   0.666  0.00  0.00    -0.274 N 
ATOM     10  H   UNL     1       4.325  -1.237   0.765  0.00  0.00    +0.173 HD
ATOM     11  C   UNL     1       5.830  -0.654  -0.467  0.00  0.00    +0.331 A 
ATOM     12  O   UNL     1       5.074  -0.179  -1.309  0.00  0.00    -0.246 OA
ATOM     13  N   UNL     1       7.215  -0.636  -0.567  0.00  0.00    -0.273 N 
ATOM     14  C   UNL     1       8.020  -1.131   0.439  0.00  0.00    +0.106 A 
BRANCH   6  17
ATOM     15 BR   UNL     1      10.655  -3.441   3.805  0.00  0.00    -0.059 Br
ATOM     16  C   UNL     1       9.594  -2.784   2.433  0.00  0.00    +0.052 C 
ATOM     17  C   UNL     1       8.389  -2.227   2.613  0.00  0.00    +0.022 C 
ENDBRANCH   6  17
ENDBRANCH   1  13
BRANCH   4  18
ATOM     18  O   UNL     1       9.948   2.829  -2.335  0.00  0.00    -0.389 OA
ATOM     19  H   UNL     1      10.354   2.748  -1.455  0.00  0.00    +0.210 HD
ENDBRANCH   4  18
BRANCH   3  20
ATOM     20  C   UNL     1      10.593  -0.076  -3.831  0.00  0.00    +0.206 C 
BRANCH  20  21
ATOM     21  O   UNL     1      11.504   0.896  -4.321  0.00  0.00    -0.284 OA
BRANCH  21  22
ATOM     22  P   UNL     1      12.174   0.422  -5.844  0.00  0.00    +0.472 P 
ATOM     23  O   UNL     1      12.774  -0.003  -7.207  0.00  0.00    -0.228 OA
BRANCH  22  24
ATOM     24  O   UNL     1      13.041   1.806  -5.713  0.00  0.00    -0.303 OA
ATOM     25  H   UNL     1      13.719   1.736  -5.020  0.00  0.00    +0.222 HD
ENDBRANCH  22  24
BRANCH  22  26
ATOM     26  O   UNL     1      10.869   1.180  -6.478  0.00  0.00    -0.303 OA
ATOM     27  H   UNL     1      11.172   2.082  -6.696  0.00  0.00    +0.222 HD
ENDBRANCH  22  26
ENDBRANCH  21  22
ENDBRANCH  20  21
ENDBRANCH   3  20
TORSDOF 8
