REMARK  Name = 
REMARK  14 active torsions:
REMARK  status: ('A' for Active; 'I' for Inactive)
REMARK    1  A    between atoms: C_1  and  C_2
REMARK    2  A    between atoms: C_5  and  C_6
REMARK    3  A    between atoms: C_6  and  O_7
REMARK    4  A    between atoms: O_7  and  P_8
REMARK    5  A    between atoms: P_8  and  O_9
REMARK    6  A    between atoms: P_8  and  O_10
REMARK    7  A    between atoms: C_12  and  C_13
REMARK    8  A    between atoms: C_13  and  N_14
REMARK    9  A    between atoms: N_14  and  C_15
REMARK   10  A    between atoms: C_15  and  C_16
REMARK   11  A    between atoms: C_15  and  C_17
REMARK   12  A    between atoms: C_15  and  C_18
REMARK   13  A    between atoms: C_18  and  O_19
REMARK   14  A    between atoms: C_21  and  O_22
REMARK                            x       y       z     vdW  Elec       q    Type
REMARK                         _______ _______ _______ _____ _____    ______ ____
ROOT
ATOM      1  C   UNL     1       0.950   0.107  -0.116  0.00  0.00    +0.069 C 
ATOM      2  C   UNL     1       2.448   0.003  -0.163  0.00  0.00    +0.080 A 
ATOM      3  C   UNL     1       3.088  -1.237  -0.087  0.00  0.00    +0.142 A 
ATOM      4  C   UNL     1       4.498  -1.307  -0.078  0.00  0.00    +0.016 A 
ATOM      5  C   UNL     1       5.215  -0.084  -0.152  0.00  0.00    +0.005 A 
ATOM      6  C   UNL     1       4.472   1.097  -0.246  0.00  0.00    +0.117 A 
ATOM      7  N   UNL     1       3.125   1.169  -0.253  0.00  0.00    -0.256 NA
ENDROOT
BRANCH   3   8
ATOM      8  O   UNL     1       2.277  -2.341   0.000  0.00  0.00    -0.505 OA
ATOM      9  H   UNL     1       2.791  -3.153   0.109  0.00  0.00    +0.292 HD
ENDBRANCH   3   8
BRANCH   4  10
ATOM     10  C   UNL     1       5.220  -2.633   0.065  0.00  0.00    +0.121 C 
BRANCH  10  11
ATOM     11  N   UNL     1       5.536  -3.262  -1.229  0.00  0.00    -0.298 NA
ATOM     12  H   UNL     1       6.134  -2.608  -1.745  0.00  0.00    +0.123 HD
BRANCH  11  13
ATOM     13  C   UNL     1       6.307  -4.555  -1.086  0.00  0.00    +0.112 C 
ATOM     14  C   UNL     1       5.458  -5.633  -0.396  0.00  0.00    +0.039 C 
ATOM     15  C   UNL     1       7.644  -4.355  -0.359  0.00  0.00    +0.039 C 
BRANCH  13  16
ATOM     16  C   UNL     1       6.609  -5.097  -2.512  0.00  0.00    +0.325 C 
ATOM     17  O   UNL     1       7.516  -5.856  -2.804  0.00  0.00    -0.249 OA
BRANCH  16  18
ATOM     18  O   UNL     1       5.707  -4.646  -3.423  0.00  0.00    -0.479 OA
ATOM     19  H   UNL     1       5.068  -4.065  -2.953  0.00  0.00    +0.295 HD
ENDBRANCH  16  18
ENDBRANCH  13  16
ENDBRANCH  11  13
ENDBRANCH  10  11
ENDBRANCH   4  10
BRANCH   5  20
ATOM     20  C   UNL     1       6.724   0.023  -0.184  0.00  0.00    +0.209 C 
BRANCH  20  21
ATOM     21  O   UNL     1       7.153   1.196   0.495  0.00  0.00    -0.282 OA
BRANCH  21  22
ATOM     22  P   UNL     1       8.873   1.376   0.558  0.00  0.00    +0.473 P 
ATOM     23  O   UNL     1      10.412   1.536   0.615  0.00  0.00    -0.228 OA
BRANCH  22  24
ATOM     24  O   UNL     1       8.795   0.453   1.908  0.00  0.00    -0.303 OA
ATOM     25  H   UNL     1       8.651   1.073   2.648  0.00  0.00    +0.222 HD
ENDBRANCH  22  24
BRANCH  22  26
ATOM     26  O   UNL     1       8.588   2.773   1.362  0.00  0.00    -0.303 OA
ATOM     27  H   UNL     1       9.118   3.489   0.964  0.00  0.00    +0.222 HD
ENDBRANCH  22  26
ENDBRANCH  21  22
ENDBRANCH  20  21
ENDBRANCH   5  20
TORSDOF 11
