REMARK  Name = 
REMARK  8 active torsions:
REMARK  status: ('A' for Active; 'I' for Inactive)
REMARK    1  A    between atoms: C_1  and  C_2
REMARK    2  A    between atoms: N_4  and  C_7
REMARK    3  A    between atoms: C_9  and  C_36
REMARK    4  A    between atoms: C_11  and  N_12
REMARK    5  A    between atoms: C_13  and  C_15
REMARK    6  A    between atoms: C_17  and  N_18
REMARK    7  A    between atoms: C_23  and  C_25
REMARK    8  A    between atoms: C_31  and  C_32
REMARK                            x       y       z     vdW  Elec       q    Type
REMARK                         _______ _______ _______ _____ _____    ______ ____
ROOT
ATOM      1  C   UNL     1      11.104  -0.992   0.058  0.00  0.00    +0.039 A 
ATOM      2  C   UNL     1      11.324  -2.371   0.081  0.00  0.00    +0.013 A 
ATOM      3  C   UNL     1      12.614  -2.871  -0.063  0.00  0.00    +0.006 A 
ATOM      4  C   UNL     1      13.711  -2.009  -0.258  0.00  0.00    -0.029 A 
ATOM      5  C   UNL     1      15.050  -2.679  -0.439  0.00  0.00    +0.045 C 
ATOM      6  C   UNL     1      13.500  -0.610  -0.298  0.00  0.00    +0.037 A 
ATOM      7  C   UNL     1      12.195  -0.132  -0.077  0.00  0.00    +0.036 A 
ENDROOT
BRANCH   6   8
ATOM      8  N   UNL     1      14.569   0.283  -0.507  0.00  0.00    -0.283 N 
ATOM      9  H   UNL     1      15.432  -0.123  -0.838  0.00  0.00    +0.155 HD
ATOM     10  C   UNL     1      14.558   1.601  -0.973  0.00  0.00    +0.220 A 
ATOM     11  N   UNL     1      13.510   2.415  -0.766  0.00  0.00    -0.214 NA
ATOM     12  C   UNL     1      13.542   3.663  -1.279  0.00  0.00    +0.077 A 
ATOM     13  C   UNL     1      14.610   4.096  -2.035  0.00  0.00    +0.048 A 
ATOM     14  C   UNL     1      15.646   3.208  -2.183  0.00  0.00    +0.116 A 
ATOM     15  N   UNL     1      15.648   1.972  -1.657  0.00  0.00    -0.223 NA
BRANCH  12  16
ATOM     16  C   UNL     1      12.417   4.538  -0.902  0.00  0.00    +0.019 A 
ATOM     17  C   UNL     1      11.752   4.393   0.326  0.00  0.00    +0.013 A 
ATOM     18  C   UNL     1      10.796   5.324   0.733  0.00  0.00    +0.020 A 
ATOM     19  C   UNL     1      10.501   6.374  -0.117  0.00  0.00    +0.111 A 
ATOM     20  N   UNL     1      11.056   6.519  -1.337  0.00  0.00    -0.263 NA
ATOM     21  C   UNL     1      11.990   5.604  -1.695  0.00  0.00    +0.120 A 
ENDBRANCH  12  16
ENDBRANCH   6   8
BRANCH   1  24
ATOM     22  N   UNL     1       9.389   0.694  -0.444  0.00  0.00    -0.281 N 
ATOM     23  H   UNL     1      10.120   1.146  -0.982  0.00  0.00    +0.155 HD
ATOM     24  C   UNL     1       9.714  -0.496   0.213  0.00  0.00    +0.248 C 
ATOM     25  O   UNL     1       8.949  -1.187   0.878  0.00  0.00    -0.270 OA
BRANCH  22  28
ATOM     26  C   UNL     1       6.685   3.111  -1.330  0.00  0.00    +0.050 A 
ATOM     27  C   UNL     1       7.947   2.490  -1.224  0.00  0.00    +0.049 A 
ATOM     28  C   UNL     1       8.105   1.290  -0.502  0.00  0.00    +0.036 A 
ATOM     29  C   UNL     1       6.983   0.731   0.110  0.00  0.00    +0.035 A 
ATOM     30  C   UNL     1       5.717   1.326   0.016  0.00  0.00    +0.059 A 
ATOM     31  C   UNL     1       5.577   2.517  -0.707  0.00  0.00    +0.038 A 
BRANCH  26  36
ATOM     32  C   UNL     1       7.402   7.250  -4.086  0.00  0.00    +0.067 C 
ATOM     33  C   UNL     1       6.844   6.147  -3.275  0.00  0.00    +0.056 A 
ATOM     34  N   UNL     1       5.510   6.118  -2.973  0.00  0.00    -0.241 NA
ATOM     35  C   UNL     1       5.345   5.032  -2.252  0.00  0.00    +0.204 A 
ATOM     36  N   UNL     1       6.518   4.328  -2.061  0.00  0.00    -0.306 N 
ATOM     37  C   UNL     1       7.482   5.056  -2.724  0.00  0.00    +0.115 A 
ENDBRANCH  26  36
BRANCH  30  38
ATOM     38  C   UNL     1       4.540   0.663   0.689  0.00  0.00    +0.418 C 
ATOM     39  F   UNL     1       4.714   0.527   2.032  0.00  0.00    -0.166 F 
ATOM     40  F   UNL     1       4.299  -0.587   0.208  0.00  0.00    -0.166 F 
ATOM     41  F   UNL     1       3.375   1.353   0.534  0.00  0.00    -0.166 F 
ENDBRANCH  30  38
ENDBRANCH  22  28
ENDBRANCH   1  24
TORSDOF 6
