REMARK  Name = 
REMARK  3 active torsions:
REMARK  status: ('A' for Active; 'I' for Inactive)
REMARK    1  A    between atoms: C_1  and  N_2
REMARK    2  A    between atoms: C_6  and  C_7
REMARK    3  A    between atoms: C_8  and  C_9
REMARK                            x       y       z     vdW  Elec       q    Type
REMARK                         _______ _______ _______ _____ _____    ______ ____
ROOT
ATOM      1  C   UNL     1       0.998   0.056   0.052  0.00  0.00    +0.151 C 
ATOM      2  N   UNL     1       2.456  -0.012   0.052  0.00  0.00    -0.325 N 
ATOM      3  C   UNL     1       3.173   1.181   0.051  0.00  0.00    +0.170 A 
ATOM      4  C   UNL     1       4.680   1.110   0.050  0.00  0.00    +0.171 A 
ATOM      5  C   UNL     1       5.450   2.402   0.051  0.00  0.00    +0.282 A 
ATOM      6  N   UNL     1       4.653   3.506   0.047  0.00  0.00    -0.272 N 
ATOM      7  H   UNL     1       5.104   4.407   0.050  0.00  0.00    +0.174 HD
ATOM      8  C   UNL     1       3.289   3.518   0.052  0.00  0.00    +0.351 A 
ATOM      9  O   UNL     1       2.721   4.606   0.057  0.00  0.00    -0.245 OA
ATOM     10  O   UNL     1       6.669   2.448   0.055  0.00  0.00    -0.265 OA
ATOM     11  N   UNL     1       5.318  -0.021   0.048  0.00  0.00    -0.237 NA
ATOM     12  C   UNL     1       4.570  -1.214   0.050  0.00  0.00    +0.089 A 
ATOM     13  C   UNL     1       5.300  -2.410   0.048  0.00  0.00    +0.033 A 
ATOM     14  C   UNL     1       4.669  -3.661   0.052  0.00  0.00    -0.045 A 
ATOM     15  C   UNL     1       3.268  -3.705   0.059  0.00  0.00    -0.045 A 
ATOM     16  C   UNL     1       2.537  -2.497   0.059  0.00  0.00    +0.031 A 
ATOM     17  C   UNL     1       2.484  -4.990   0.067  0.00  0.00    +0.044 C 
ATOM     18  C   UNL     1       5.511  -4.906   0.049  0.00  0.00    +0.044 C 
ATOM     19  N   UNL     1       2.594   2.344   0.052  0.00  0.00    -0.173 NA
ATOM     20  C   UNL     1       3.155  -1.235   0.053  0.00  0.00    +0.069 A 
ENDROOT
TORSDOF 0
