REMARK  Name = 
REMARK  5 active torsions:
REMARK  status: ('A' for Active; 'I' for Inactive)
REMARK    1  A    between atoms: N_1  and  C_2
REMARK    2  A    between atoms: C_4  and  O_6
REMARK    3  A    between atoms: C_7  and  C_9
REMARK    4  A    between atoms: C_9  and  O_10
REMARK    5  A    between atoms: C_12  and  N_14
REMARK                            x       y       z     vdW  Elec       q    Type
REMARK                         _______ _______ _______ _____ _____    ______ ____
ROOT
ATOM      1  C   UNL     1       2.300   0.062   0.071  0.00  0.00    +0.133 C 
ATOM      2  C   UNL     1       2.900  -1.207   0.720  0.00  0.00    +0.241 C 
ATOM      3  O   UNL     1       4.174  -0.850   1.302  0.00  0.00    -0.347 OA
ATOM      4  C   UNL     1       4.336   0.584   1.263  0.00  0.00    +0.176 C 
ATOM      5  C   UNL     1       2.983   1.176   0.868  0.00  0.00    +0.166 C 
ENDROOT
BRANCH   2   6
ATOM      6  N   UNL     1       2.047  -1.791   1.744  0.00  0.00    -0.286 N 
ATOM      7  C   UNL     1       1.056  -2.711   1.511  0.00  0.00    +0.167 A 
ATOM      8  N   UNL     1       0.656  -3.217   0.335  0.00  0.00    -0.216 NA
ATOM      9  C   UNL     1      -0.343  -4.107   0.510  0.00  0.00    +0.225 A 
ATOM     10  N   UNL     1      -0.927  -4.501   1.664  0.00  0.00    -0.219 NA
ATOM     11  C   UNL     1      -0.476  -3.969   2.823  0.00  0.00    +0.147 A 
ATOM     12  N   UNL     1      -1.056  -4.387   4.013  0.00  0.00    -0.341 N 
ATOM     13  H   UNL     1      -0.913  -3.742   4.782  0.00  0.00    +0.144 HD
ATOM     14  H   UNL     1      -1.978  -4.781   3.884  0.00  0.00    +0.144 HD
ATOM     15  C   UNL     1       0.547  -3.009   2.766  0.00  0.00    +0.147 A 
ATOM     16  N   UNL     1       1.173  -2.260   3.743  0.00  0.00    -0.231 NA
ATOM     17  C   UNL     1       2.065  -1.544   3.091  0.00  0.00    +0.203 A 
ENDBRANCH   2   6
BRANCH   1  18
ATOM     18  N   UNL     1       2.563   0.163  -1.377  0.00  0.00    -0.322 NA
ATOM     19  H   UNL     1       2.429   1.113  -1.720  0.00  0.00    +0.119 HD
ATOM     20  H   UNL     1       3.509  -0.129  -1.620  0.00  0.00    +0.119 HD
ENDBRANCH   1  18
BRANCH   5  21
ATOM     21  O   UNL     1       2.229   1.456   2.052  0.00  0.00    -0.387 OA
ATOM     22  H   UNL     1       1.348   1.778   1.788  0.00  0.00    +0.210 HD
ENDBRANCH   5  21
BRANCH   4  23
ATOM     23  C   UNL     1       5.455   0.950   0.275  0.00  0.00    +0.190 C 
BRANCH  23  24
ATOM     24  O   UNL     1       6.722   0.436   0.679  0.00  0.00    -0.392 OA
ATOM     25  H   UNL     1       6.813   0.557   1.640  0.00  0.00    +0.210 HD
ENDBRANCH  23  24
ENDBRANCH   4  23
TORSDOF 5
