REMARK  Name = 
REMARK  6 active torsions:
REMARK  status: ('A' for Active; 'I' for Inactive)
REMARK    1  A    between atoms: N_1  and  CA_2
REMARK    2  A    between atoms: CA_2  and  C_4
REMARK    3  A    between atoms: CA_2  and  C_7
REMARK    4  A    between atoms: C_4  and  C_5
REMARK    5  A    between atoms: C_5  and  S_6
REMARK    6  A    between atoms: C_7  and  O_8
REMARK                            x       y       z     vdW  Elec       q    Type
REMARK                         _______ _______ _______ _____ _____    ______ ____
ROOT
ATOM      1  CA  UNL     1       2.523  -0.137   0.056  0.00  0.00    +0.161 C 
ENDROOT
BRANCH   1   2
ATOM      2  N   UNL     1       1.024  -0.230   0.079  0.00  0.00    -0.318 NA
ATOM      3  H1  UNL     1       0.742  -0.746   0.921  0.00  0.00    +0.119 HD
ATOM      4  H2  UNL     1       0.656   0.713   0.235  0.00  0.00    +0.119 HD
ENDBRANCH   1   2
BRANCH   1   5
ATOM      5  C   UNL     1       3.061  -1.347  -0.737  0.00  0.00    +0.322 C 
ATOM      6  OXT UNL     1       4.237  -1.612  -0.914  0.00  0.00    -0.249 OA
BRANCH   5   7
ATOM      7  O   UNL     1       2.047  -2.089  -1.254  0.00  0.00    -0.480 OA
ATOM      8  H   UNL     1       1.215  -1.612  -1.004  0.00  0.00    +0.295 HD
ENDBRANCH   5   7
ENDBRANCH   1   5
BRANCH   1   9
ATOM      9  C   UNL     1       3.051  -0.081   1.494  0.00  0.00    +0.040 C 
BRANCH   9  10
ATOM     10  C   UNL     1       4.565   0.124   1.579  0.00  0.00    +0.067 C 
BRANCH  10  11
ATOM     11  S   UNL     1       5.084   0.260   3.319  0.00  0.00    -0.178 S 
ATOM     12  H   UNL     1       4.453   1.410   3.591  0.00  0.00    +0.102 HD
ENDBRANCH  10  11
ENDBRANCH   9  10
ENDBRANCH   1   9
TORSDOF 6
