REMARK  Name = 
REMARK  29 active torsions:
REMARK  status: ('A' for Active; 'I' for Inactive)
REMARK    1  A    between atoms: C_1  and  C_2
REMARK    2  A    between atoms: C_5  and  O_7
REMARK    3  A    between atoms: O_7  and  C_8
REMARK    4  A    between atoms: C_10  and  C_12
REMARK    5  A    between atoms: C_12  and  O_13
REMARK    6  A    between atoms: C_15  and  O_17
REMARK    7  A    between atoms: C_18  and  O_20
REMARK    8  A    between atoms: C_21  and  O_23
REMARK    9  A    between atoms: C_24  and  O_26
REMARK   10  A    between atoms: C_27  and  O_29
REMARK   11  A    between atoms: C_30  and  N_32
REMARK   12  A    between atoms: N_32  and  C_33
REMARK   13  A    between atoms: C_36  and  C_37
REMARK   14  A    between atoms: C_37  and  O_38
REMARK   15  A    between atoms: C_39  and  O_41
REMARK   16  A    between atoms: O_41  and  C_42
REMARK   17  A    between atoms: C_45  and  C_47
REMARK   18  A    between atoms: C_47  and  O_48
REMARK   19  A    between atoms: C_49  and  O_51
REMARK   20  A    between atoms: O_51  and  C_52
REMARK   21  A    between atoms: C_55  and  C_57
REMARK   22  A    between atoms: C_57  and  O_58
REMARK   23  A    between atoms: C_59  and  O_61
REMARK   24  A    between atoms: C_62  and  O_64
REMARK   25  A    between atoms: C_65  and  O_67
REMARK   26  A    between atoms: C_68  and  O_70
REMARK   27  A    between atoms: C_71  and  O_73
REMARK   28  A    between atoms: C_74  and  O_76
REMARK   29  A    between atoms: C_77  and  O_79
REMARK                            x       y       z     vdW  Elec       q    Type
REMARK                         _______ _______ _______ _____ _____    ______ ____
ROOT
ATOM      1  C   UNL     1      -0.501  -6.845   1.002  0.00  0.00    +0.109 C 
ATOM      2  C   UNL     1      -1.500  -6.853   2.219  0.00  0.00    +0.166 C 
ATOM      3  C   UNL     1      -1.725  -5.525   2.978  0.00  0.00    +0.178 C 
ATOM      4  C   UNL     1      -1.499  -4.219   2.181  0.00  0.00    +0.180 C 
ATOM      5  C   UNL     1      -0.357  -4.306   1.218  0.00  0.00    -0.016 C 
ATOM      6  C   UNL     1       0.055  -5.479   0.697  0.00  0.00    -0.002 C 
ENDROOT
BRANCH   1   7
ATOM      7  N   UNL     1      -1.075  -7.548  -0.186  0.00  0.00    -0.300 NA
ATOM      8  H   UNL     1      -1.506  -8.415   0.136  0.00  0.00    +0.123 HD
BRANCH   7  11
ATOM      9  C   UNL     1      -0.610  -7.398  -3.817  0.00  0.00    +0.039 C 
ATOM     10  C   UNL     1      -0.918  -8.312  -2.640  0.00  0.00    +0.138 C 
ATOM     11  C   UNL     1      -0.144  -7.874  -1.327  0.00  0.00    +0.114 C 
ATOM     12  C   UNL     1       0.989  -8.867  -0.963  0.00  0.00    +0.167 C 
ATOM     13  C   UNL     1       0.801 -10.302  -1.489  0.00  0.00    +0.200 C 
ATOM     14  C   UNL     1       0.472 -10.320  -3.012  0.00  0.00    +0.282 C 
ATOM     15  O   UNL     1      -0.763  -9.633  -3.172  0.00  0.00    -0.344 OA
BRANCH  13  16
ATOM     16  O   UNL     1      -0.236 -10.948  -0.725  0.00  0.00    -0.384 OA
ATOM     17  H   UNL     1       0.012 -10.919   0.222  0.00  0.00    +0.210 HD
ENDBRANCH  13  16
BRANCH  12  18
ATOM     18  O   UNL     1       2.236  -8.301  -1.391  0.00  0.00    -0.387 OA
ATOM     19  H   UNL     1       2.937  -8.945  -1.194  0.00  0.00    +0.210 HD
ENDBRANCH  12  18
BRANCH  14  20
ATOM     20  O   UNL     1       1.621  -9.895  -3.789  0.00  0.00    -0.340 OA
BRANCH  20  21
ATOM     21  C   UNL     1       1.568  -9.733  -5.231  0.00  0.00    +0.183 C 
ATOM     22  C   UNL     1       2.606  -8.621  -5.613  0.00  0.00    +0.179 C 
ATOM     23  C   UNL     1       3.594  -8.819  -6.793  0.00  0.00    +0.201 C 
ATOM     24  C   UNL     1       3.293 -10.029  -7.685  0.00  0.00    +0.279 C 
ATOM     25  O   UNL     1       1.981 -10.546  -7.521  0.00  0.00    -0.341 OA
ATOM     26  C   UNL     1       1.693 -10.971  -6.161  0.00  0.00    +0.178 C 
BRANCH  24  27
ATOM     27  O   UNL     1       3.513  -9.734  -9.071  0.00  0.00    -0.365 OA
ATOM     28  H   UNL     1       3.100  -8.865  -9.203  0.00  0.00    +0.213 HD
ENDBRANCH  24  27
BRANCH  23  29
ATOM     29  O   UNL     1       3.748  -7.616  -7.585  0.00  0.00    -0.384 OA
ATOM     30  H   UNL     1       4.574  -7.707  -8.095  0.00  0.00    +0.210 HD
ENDBRANCH  23  29
BRANCH  22  31
ATOM     31  O   UNL     1       1.867  -7.393  -5.820  0.00  0.00    -0.386 OA
ATOM     32  H   UNL     1       2.097  -6.788  -5.101  0.00  0.00    +0.210 HD
ENDBRANCH  22  31
BRANCH  26  33
ATOM     33  C   UNL     1       2.626 -12.129  -5.788  0.00  0.00    +0.190 C 
BRANCH  33  34
ATOM     34  O   UNL     1       2.670 -13.076  -6.876  0.00  0.00    -0.392 OA
ATOM     35  H   UNL     1       2.530 -12.574  -7.708  0.00  0.00    +0.210 HD
ENDBRANCH  33  34
ENDBRANCH  26  33
ENDBRANCH  20  21
ENDBRANCH  14  20
ENDBRANCH   7  11
ENDBRANCH   1   7
BRANCH   3  36
ATOM     36  O   UNL     1      -3.029  -5.508   3.621  0.00  0.00    -0.386 OA
ATOM     37  H   UNL     1      -3.555  -4.844   3.133  0.00  0.00    +0.210 HD
ENDBRANCH   3  36
BRANCH   2  38
ATOM     38  O   UNL     1      -1.007  -7.851   3.177  0.00  0.00    -0.387 OA
ATOM     39  H   UNL     1      -0.209  -7.476   3.605  0.00  0.00    +0.210 HD
ENDBRANCH   2  38
BRANCH   5  40
ATOM     40  C   UNL     1       0.372  -3.019   0.943  0.00  0.00    +0.189 C 
BRANCH  40  41
ATOM     41  O   UNL     1       1.560  -2.975   1.724  0.00  0.00    -0.391 OA
ATOM     42  H   UNL     1       1.330  -3.178   2.645  0.00  0.00    +0.210 HD
ENDBRANCH  40  41
ENDBRANCH   5  40
BRANCH   4  43
ATOM     43  O   UNL     1      -2.678  -3.568   1.696  0.00  0.00    -0.338 OA
BRANCH  43  44
ATOM     44  C   UNL     1      -3.369  -3.966   0.505  0.00  0.00    +0.282 C 
ATOM     45  C   UNL     1      -2.796  -3.376  -0.807  0.00  0.00    +0.201 C 
ATOM     46  C   UNL     1      -3.529  -3.915  -2.076  0.00  0.00    +0.179 C 
ATOM     47  C   UNL     1      -3.776  -5.445  -2.063  0.00  0.00    +0.183 C 
ATOM     48  C   UNL     1      -4.377  -5.759  -0.658  0.00  0.00    +0.178 C 
ATOM     49  O   UNL     1      -3.521  -5.363   0.427  0.00  0.00    -0.341 OA
BRANCH  46  50
ATOM     50  O   UNL     1      -2.778  -3.514  -3.236  0.00  0.00    -0.386 OA
ATOM     51  H   UNL     1      -1.837  -3.724  -3.093  0.00  0.00    +0.210 HD
ENDBRANCH  46  50
BRANCH  45  52
ATOM     52  O   UNL     1      -2.881  -1.938  -0.763  0.00  0.00    -0.384 OA
ATOM     53  H   UNL     1      -2.950  -1.612  -1.680  0.00  0.00    +0.210 HD
ENDBRANCH  45  52
BRANCH  48  54
ATOM     54  C   UNL     1      -4.710  -7.235  -0.420  0.00  0.00    +0.190 C 
BRANCH  54  55
ATOM     55  O   UNL     1      -5.891  -7.325   0.395  0.00  0.00    -0.392 OA
ATOM     56  H   UNL     1      -5.694  -6.838   1.217  0.00  0.00    +0.210 HD
ENDBRANCH  54  55
ENDBRANCH  48  54
BRANCH  47  57
ATOM     57  O   UNL     1      -4.798  -5.904  -2.977  0.00  0.00    -0.340 OA
BRANCH  57  58
ATOM     58  C   UNL     1      -4.635  -6.053  -4.380  0.00  0.00    +0.282 C 
ATOM     59  C   UNL     1      -5.365  -4.926  -5.169  0.00  0.00    +0.201 C 
ATOM     60  C   UNL     1      -6.892  -4.991  -4.918  0.00  0.00    +0.179 C 
ATOM     61  C   UNL     1      -7.448  -6.371  -5.303  0.00  0.00    +0.177 C 
ATOM     62  C   UNL     1      -6.604  -7.538  -4.736  0.00  0.00    +0.178 C 
ATOM     63  O   UNL     1      -5.182  -7.334  -4.789  0.00  0.00    -0.341 OA
BRANCH  61  64
ATOM     64  O   UNL     1      -7.538  -6.434  -6.742  0.00  0.00    -0.386 OA
ATOM     65  H   UNL     1      -7.096  -7.243  -7.056  0.00  0.00    +0.210 HD
ENDBRANCH  61  64
BRANCH  60  66
ATOM     66  O   UNL     1      -7.197  -4.619  -3.577  0.00  0.00    -0.386 OA
ATOM     67  H   UNL     1      -6.942  -5.381  -3.004  0.00  0.00    +0.210 HD
ENDBRANCH  60  66
BRANCH  59  68
ATOM     68  O   UNL     1      -5.090  -4.978  -6.573  0.00  0.00    -0.384 OA
ATOM     69  H   UNL     1      -5.898  -4.726  -7.080  0.00  0.00    +0.210 HD
ENDBRANCH  59  68
BRANCH  62  70
ATOM     70  C   UNL     1      -7.119  -7.979  -3.342  0.00  0.00    +0.190 C 
BRANCH  70  71
ATOM     71  O   UNL     1      -7.245  -6.901  -2.449  0.00  0.00    -0.392 OA
ATOM     72  H   UNL     1      -7.601  -7.244  -1.611  0.00  0.00    +0.210 HD
ENDBRANCH  70  71
ENDBRANCH  62  70
ENDBRANCH  57  58
ENDBRANCH  47  57
ENDBRANCH  43  44
ENDBRANCH   4  43
TORSDOF 28
