REMARK  Name = 
REMARK  24 active torsions:
REMARK  status: ('A' for Active; 'I' for Inactive)
REMARK    1  A    between atoms: C_1  and  N_2
REMARK    2  A    between atoms: N_2  and  CA_3
REMARK    3  A    between atoms: CA_3  and  CB_5
REMARK    4  A    between atoms: CA_3  and  C_9
REMARK    5  A    between atoms: CB_5  and  CG_6
REMARK    6  A    between atoms: CG_6  and  CD1_7
REMARK    7  A    between atoms: CG_6  and  CD2_8
REMARK    8  A    between atoms: N_11  and  C_12
REMARK    9  A    between atoms: C_14  and  O_16
REMARK   10  A    between atoms: C_35  and  O_37
REMARK   11  A    between atoms: CA_53  and  CB_55
REMARK   12  A    between atoms: CB_55  and  CG_56
REMARK   13  A    between atoms: C_65  and  O_66
REMARK   14  A    between atoms: C_70  and  O_71
REMARK   15  A    between atoms: C_73  and  O_74
REMARK   16  A    between atoms: C_77  and  C_82
REMARK   17  A    between atoms: C_82  and  O_83
REMARK   18  A    between atoms: C_85  and  O_86
REMARK   19  A    between atoms: O_86  and  C_87
REMARK   20  A    between atoms: C_90  and  C_92
REMARK   21  A    between atoms: C_92  and  O_93
REMARK   22  A    between atoms: C_94  and  O_96
REMARK   23  A    between atoms: C_97  and  O_99
REMARK   24  A    between atoms: C_100  and  O_102
REMARK                            x       y       z     vdW  Elec       q    Type
REMARK                         _______ _______ _______ _____ _____    ______ ____
ROOT
ATOM      1  C   UNK A   2       7.443  -4.356 -14.663  0.00  0.00    +0.192 C 
ATOM      2  C   UNK A   2       7.867  -2.743 -14.059  0.00  0.00    +0.237 C 
ATOM      3  O   UNK A   2       7.371  -1.753 -14.617  0.00  0.00    -0.274 OA
ATOM      4  N   ASN A   3       8.340  -2.483 -12.715  0.00  0.00    -0.302 N 
ATOM      5  H   ASN A   3       8.796  -3.179 -12.132  0.00  0.00    +0.150 HD
ATOM      6  CA  ASN A   3       7.980  -1.039 -11.941  0.00  0.00    +0.168 C 
ATOM      7  C   ASN A   3       6.600  -1.768 -11.559  0.00  0.00    +0.235 C 
ATOM      8  O   ASN A   3       6.833  -2.564 -10.643  0.00  0.00    -0.274 OA
ATOM      9  N   UNK A   4       5.235  -1.533 -12.332  0.00  0.00    -0.299 N 
ATOM     10  H   UNK A   4       5.182  -0.587 -12.690  0.00  0.00    +0.150 HD
ATOM     11  C   UNK A   4       3.583  -2.262 -12.080  0.00  0.00    +0.190 C 
ATOM     12  C   UNK A   4       4.065  -2.575 -10.623  0.00  0.00    -0.011 A 
ATOM     13  C   UNK A   4       4.326  -1.729  -9.625  0.00  0.00    +0.056 A 
ATOM     14  C   UNK A   4       3.553  -2.112  -8.605  0.00  0.00    +0.174 A 
ATOM     15  C   UNK A   4       3.167  -3.552  -8.613  0.00  0.00    +0.208 A 
ATOM     16  C   UNK A   4       3.918  -4.441  -9.445  0.00  0.00    +0.174 A 
ATOM     17  O   UNK A   4       4.176  -5.808  -9.617  0.00  0.00    -0.451 OA
ATOM     18  C   UNK A   4       4.971  -6.157 -10.790  0.00  0.00    +0.147 A 
ATOM     19  C   UNK A   4       4.335  -6.757 -11.888  0.00  0.00    +0.083 A 
ATOM     20 CL   UNK A   4       3.142  -7.952 -11.560  0.00  0.00    -0.080 Cl
ATOM     21  C   UNK A   2       4.692  -6.499 -13.253  0.00  0.00    +0.030 A 
ATOM     22  C   UNK A   2       5.757  -5.665 -13.520  0.00  0.00    -0.015 A 
ATOM     23  C   UNK A   2       6.664  -5.527 -12.359  0.00  0.00    +0.010 A 
ATOM     24  C   UNK A   4       6.267  -5.699 -11.028  0.00  0.00    +0.048 A 
ATOM     25  O   UNK A   4       3.199  -1.008  -7.843  0.00  0.00    -0.451 OA
ATOM     26  C   UNK A   4       2.754   0.192  -8.570  0.00  0.00    +0.147 A 
ATOM     27  C   UNK A   4       2.710   0.331  -9.972  0.00  0.00    +0.083 A 
ATOM     28 CL   UNK A   4       4.015   0.952 -10.938  0.00  0.00    -0.080 Cl
ATOM     29  C   UNK A   4       1.504   0.363 -10.617  0.00  0.00    +0.030 A 
ATOM     30  C   UNK A   6       0.352   0.539  -9.876  0.00  0.00    -0.015 A 
ATOM     31  C   UNK A   6      -0.940   0.461 -10.575  0.00  0.00    +0.174 C 
ATOM     32  C   UNK A   6      -0.895   0.177 -12.096  0.00  0.00    +0.192 C 
ATOM     33  C   UNK A   6      -0.112   0.589 -13.630  0.00  0.00    +0.237 C 
ATOM     34  O   UNK A   6       0.219   1.766 -13.836  0.00  0.00    -0.274 OA
ATOM     35  N   UNK A   7      -0.127  -0.387 -14.771  0.00  0.00    -0.297 N 
ATOM     36  H   UNK A   7       0.124  -1.364 -14.588  0.00  0.00    +0.150 HD
ATOM     37  C   UNK A   7      -0.509  -0.056 -16.244  0.00  0.00    +0.213 C 
ATOM     38  C   UNK A   7      -0.742  -1.039 -17.543  0.00  0.00    -0.002 A 
ATOM     39  C   UNK A   7      -2.076  -1.276 -18.061  0.00  0.00    +0.033 A 
ATOM     40  C   UNK A   7      -2.299  -1.343 -19.470  0.00  0.00    +0.128 A 
ATOM     41  C   UNK A   7      -1.238  -1.461 -20.344  0.00  0.00    +0.091 A 
ATOM     42  C   UNK A   7       0.062  -1.539 -19.780  0.00  0.00    +0.121 A 
ATOM     43  C   UNK A   7      -3.090  -1.704 -17.054  0.00  0.00    +0.028 A 
ATOM     44  C   UNK A   7      -2.442  -2.488 -15.964  0.00  0.00    +0.018 A 
ATOM     45  C   UNK A   7      -2.881  -2.463 -14.656  0.00  0.00    -0.018 A 
ATOM     46  C   UNK A   7      -4.290  -1.936 -14.632  0.00  0.00    +0.009 A 
ATOM     47  C   UNK A   7      -5.037  -1.411 -15.788  0.00  0.00    +0.046 A 
ATOM     48  C   UNK A   7      -1.679  -2.005 -13.434  0.00  0.00    +0.190 C 
ATOM     49  N   UNK A   7       0.226  -2.374 -13.262  0.00  0.00    -0.299 N 
ATOM     50  H   ACE A   5      -0.016  -3.310 -12.932  0.00  0.00    +0.150 HD
ATOM     51  C   UNK A   7      -2.436  -0.353 -13.574  0.00  0.00    +0.239 C 
ATOM     52  O   UNK A   7      -2.995   0.186 -14.535  0.00  0.00    -0.273 OA
ATOM     53  C   UNK A   7      -4.393  -1.287 -17.005  0.00  0.00    +0.125 A 
ATOM     54  C   UNK A   7       0.300  -1.363 -18.426  0.00  0.00    +0.052 A 
ATOM     55  N   UNK A   6      -2.230   0.398 -12.478  0.00  0.00    -0.300 N 
ATOM     56  H   UNK A   6      -2.966   0.462 -11.767  0.00  0.00    +0.150 HD
ATOM     57  C   UNK A   6       0.442   0.741  -8.493  0.00  0.00    +0.010 A 
ATOM     58  C   UNK A   6       1.670   0.663  -7.856  0.00  0.00    +0.048 A 
ATOM     59  C   UNK A   4       4.675  -3.724 -10.277  0.00  0.00    +0.056 A 
ATOM     60  C   UNK A   4       1.571  -2.365 -12.162  0.00  0.00    +0.239 C 
ATOM     61  O   UNK A   4       1.135  -2.962 -11.150  0.00  0.00    -0.273 OA
ATOM     62  C   UNK A   2       6.025  -4.657 -15.027  0.00  0.00    +0.174 C 
ENDROOT
BRANCH   1  64
ATOM     63  C   LEU A   1       6.731  -7.173 -15.620  0.00  0.00    +0.231 C 
ATOM     64  N   UNK A   2       7.816  -6.104 -15.019  0.00  0.00    -0.300 N 
ATOM     65  H   UNK A   2       8.588  -6.521 -14.511  0.00  0.00    +0.150 HD
ATOM     66  O   LEU A   1       5.539  -6.915 -15.890  0.00  0.00    -0.274 OA
BRANCH  63  67
ATOM     67  CA  LEU A   1       7.099  -8.642 -16.079  0.00  0.00    +0.140 C 
BRANCH  67  69
ATOM     68  C   ACE A   0       5.170  -9.630 -17.572  0.00  0.00    +0.101 C 
ATOM     69  N   LEU A   1       6.499  -8.998 -17.449  0.00  0.00    -0.309 NA
ATOM     70  H   LEU A   1       6.470  -8.151 -18.016  0.00  0.00    +0.122 HD
ENDBRANCH  67  69
BRANCH  67  71
ATOM     71  CB  LEU A   1       6.763  -9.764 -15.061  0.00  0.00    +0.031 C 
BRANCH  71  72
ATOM     72  CG  LEU A   1       7.588 -11.036 -15.385  0.00  0.00    -0.015 C 
ATOM     73  CD2 LEU A   1       7.138 -12.285 -14.622  0.00  0.00    +0.007 C 
ATOM     74  CD1 LEU A   1       9.068 -10.755 -15.125  0.00  0.00    +0.007 C 
ENDBRANCH  71  72
ENDBRANCH  67  71
ENDBRANCH  63  67
ENDBRANCH   1  64
BRANCH  53  75
ATOM     75  O   UNK A   7      -4.994  -0.663 -18.079  0.00  0.00    -0.506 OA
ATOM     76  H   UNK A   7      -5.969  -0.683 -17.999  0.00  0.00    +0.292 HD
ENDBRANCH  53  75
BRANCH  42  77
ATOM     77  O   UNK A   7       1.104  -1.793 -20.632  0.00  0.00    -0.507 OA
ATOM     78  H   UNK A   7       0.788  -1.769 -21.554  0.00  0.00    +0.292 HD
ENDBRANCH  42  77
BRANCH  40  79
ATOM     79  O   UNK A   7      -3.521  -1.299 -20.087  0.00  0.00    -0.506 OA
ATOM     80  H   UNK A   7      -4.145  -0.867 -19.472  0.00  0.00    +0.292 HD
ENDBRANCH  40  79
BRANCH  37  81
ATOM     81  C   UNK A   7       0.501   0.992 -16.672  0.00  0.00    +0.330 C 
ATOM     82  O   UNK A   7       1.718   0.784 -16.702  0.00  0.00    -0.249 OA
BRANCH  81  83
ATOM     83  O   UNK A   7      -0.071   2.154 -17.039  0.00  0.00    -0.479 OA
ATOM     84  H   UNK A   7      -1.030   2.166 -16.835  0.00  0.00    +0.295 HD
ENDBRANCH  81  83
ENDBRANCH  37  81
BRANCH  31  85
ATOM     85  O   UNK A   6      -1.877   1.452 -10.149  0.00  0.00    -0.385 OA
ATOM     86  H   UNK A   6      -1.947   1.390  -9.181  0.00  0.00    +0.210 HD
ENDBRANCH  31  85
BRANCH  62  87
ATOM     87  O   UNK A   2       6.379  -4.845 -16.469  0.00  0.00    -0.385 OA
ATOM     88  H   UNK A   2       7.266  -5.302 -16.528  0.00  0.00    +0.210 HD
ENDBRANCH  62  87
BRANCH  15  89
ATOM     89  O   UNK A   4       1.954  -3.978  -8.137  0.00  0.00    -0.453 OA
BRANCH  89  90
ATOM     90  C   UNK A   4       1.073  -2.861  -7.886  0.00  0.00    +0.340 C 
ATOM     91  C   UNK A   4      -0.389  -3.214  -8.219  0.00  0.00    +0.214 C 
ATOM     92  C   UNK A   4      -1.350  -2.399  -7.378  0.00  0.00    +0.180 C 
ATOM     93  C   UNK A   4      -0.962  -2.346  -5.916  0.00  0.00    +0.177 C 
ATOM     94  C   UNK A   4       0.434  -1.766  -5.795  0.00  0.00    +0.179 C 
ATOM     95  O   UNK A   4       1.362  -2.520  -6.536  0.00  0.00    -0.331 OA
BRANCH  93  96
ATOM     96  O   UNK A   4      -1.938  -1.532  -5.256  0.00  0.00    -0.386 OA
ATOM     97  H   UNK A   4      -1.627  -0.607  -5.250  0.00  0.00    +0.210 HD
ENDBRANCH  93  96
BRANCH  92  98
ATOM     98  O   UNK A   4      -2.669  -2.935  -7.549  0.00  0.00    -0.386 OA
ATOM     99  H   UNK A   4      -3.161  -2.671  -6.745  0.00  0.00    +0.210 HD
ENDBRANCH  92  98
BRANCH  91 100
ATOM    100  O   UNK A   4      -0.753  -2.856  -9.575  0.00  0.00    -0.383 OA
ATOM    101  H   UNK A   4      -1.722  -2.750  -9.582  0.00  0.00    +0.210 HD
ENDBRANCH  91 100
BRANCH  94 102
ATOM    102  C   UNK A   4       0.928  -1.777  -4.348  0.00  0.00    +0.190 C 
BRANCH 102 103
ATOM    103  O   UNK A   4       1.943  -0.787  -4.165  0.00  0.00    -0.392 OA
ATOM    104  H   UNK A   4       2.779  -1.179  -4.479  0.00  0.00    +0.210 HD
ENDBRANCH 102 103
ENDBRANCH  94 102
ENDBRANCH  89  90
ENDBRANCH  15  89
BRANCH   6 105
ATOM    105  CB  ASN A   3       8.406  -0.473 -10.271  0.00  0.00    +0.127 C 
BRANCH 105 106
ATOM    106  CG  ASN A   3       9.577  -0.897  -9.231  0.00  0.00    +0.213 C 
ATOM    107  OD1 ASN A   3      10.434  -0.117  -8.835  0.00  0.00    -0.276 OA
ATOM    108  ND2 ASN A   3       9.462  -2.188  -8.676  0.00  0.00    -0.329 N 
ATOM    109 HD21 ASN A   3      10.001  -2.306  -7.799  0.00  0.00    +0.145 HD
ATOM    110 HD22 ASN A   3       8.554  -2.668  -8.662  0.00  0.00    +0.145 HD
ENDBRANCH 105 106
ENDBRANCH   6 105
TORSDOF 21
