REMARK  Name = 
REMARK  9 active torsions:
REMARK  status: ('A' for Active; 'I' for Inactive)
REMARK    1  A    between atoms: C_1  and  N_2
REMARK    2  A    between atoms: N_4  and  C_5
REMARK    3  A    between atoms: C_8  and  C_10
REMARK    4  A    between atoms: C_10  and  O_11
REMARK    5  A    between atoms: O_11  and  P_12
REMARK    6  A    between atoms: P_12  and  O_13
REMARK    7  A    between atoms: P_12  and  O_14
REMARK    8  A    between atoms: C_16  and  O_18
REMARK    9  A    between atoms: C_19  and  O_21
REMARK                            x       y       z     vdW  Elec       q    Type
REMARK                         _______ _______ _______ _____ _____    ______ ____
ROOT
ATOM      1  C   UNL     1       6.305  -1.278  -0.110  0.00  0.00    +0.240 C 
ATOM      2  C   UNL     1       6.010  -2.713   0.399  0.00  0.00    +0.193 C 
ATOM      3  C   UNL     1       7.219  -3.071   1.264  0.00  0.00    +0.178 C 
ATOM      4  C   UNL     1       8.062  -1.799   1.237  0.00  0.00    +0.178 C 
ATOM      5  O   UNL     1       7.164  -0.729   0.908  0.00  0.00    -0.348 OA
ENDROOT
BRANCH   1  19
ATOM      6  C   UNL     1       8.881   0.684  -3.878  0.00  0.00    +0.131 C 
ATOM      7  N   UNL     1       8.007  -0.167  -3.123  0.00  0.00    -0.310 N 
ATOM      8  C   UNL     1       7.225  -1.221  -3.573  0.00  0.00    +0.136 A 
ATOM      9  C   UNL     1       7.007  -1.729  -4.937  0.00  0.00    +0.276 A 
ATOM     10  N   UNL     1       6.118  -2.775  -4.993  0.00  0.00    -0.294 N 
ATOM     11  H   UNL     1       5.915  -3.135  -5.909  0.00  0.00    +0.172 HD
ATOM     12  C   UNL     1       5.470  -3.264  -3.893  0.00  0.00    +0.195 A 
ATOM     13  N   UNL     1       5.675  -2.820  -2.696  0.00  0.00    -0.199 NA
ATOM     14  N   UNL     1       4.570  -4.260  -4.083  0.00  0.00    -0.329 N 
ATOM     15  H   UNL     1       4.336  -4.737  -3.218  0.00  0.00    +0.145 HD
ATOM     16  H   UNL     1       4.691  -4.877  -4.875  0.00  0.00    +0.145 HD
ATOM     17  O   UNL     1       7.556  -1.272  -5.933  0.00  0.00    -0.266 OA
ATOM     18  C   UNL     1       6.580  -1.813  -2.556  0.00  0.00    +0.155 A 
ATOM     19  N   UNL     1       6.995  -1.200  -1.375  0.00  0.00    -0.270 N 
ATOM     20  C   UNL     1       7.821  -0.023  -1.683  0.00  0.00    +0.217 C 
ENDBRANCH   1  19
BRANCH   2  21
ATOM     21  O   UNL     1       4.828  -2.719   1.237  0.00  0.00    -0.385 OA
ATOM     22  H   UNL     1       4.935  -2.023   1.907  0.00  0.00    +0.210 HD
ENDBRANCH   2  21
BRANCH   3  23
ATOM     23  O   UNL     1       7.935  -4.193   0.751  0.00  0.00    -0.386 OA
ATOM     24  H   UNL     1       8.776  -4.254   1.239  0.00  0.00    +0.210 HD
ENDBRANCH   3  23
BRANCH   4  25
ATOM     25  C   UNL     1       8.745  -1.497   2.554  0.00  0.00    +0.206 C 
BRANCH  25  26
ATOM     26  O   UNL     1       9.611  -2.564   2.900  0.00  0.00    -0.284 OA
BRANCH  26  27
ATOM     27  P   UNL     1      10.499  -2.374   4.217  0.00  0.00    +0.472 P 
ATOM     28  O   UNL     1      11.345  -3.536   4.598  0.00  0.00    -0.228 OA
BRANCH  27  29
ATOM     29  O   UNL     1       9.440  -1.944   5.329  0.00  0.00    -0.303 OA
ATOM     30  H   UNL     1       8.988  -2.720   5.708  0.00  0.00    +0.222 HD
ENDBRANCH  27  29
BRANCH  27  31
ATOM     31  O   UNL     1      11.320  -1.037   3.936  0.00  0.00    -0.303 OA
ATOM     32  H   UNL     1      12.139  -1.222   3.441  0.00  0.00    +0.222 HD
ENDBRANCH  27  31
ENDBRANCH  26  27
ENDBRANCH  25  26
ENDBRANCH   4  25
TORSDOF 8
