REMARK  Name = 
REMARK  7 active torsions:
REMARK  status: ('A' for Active; 'I' for Inactive)
REMARK    1  A    between atoms: C_1  and  C_2
REMARK    2  A    between atoms: C_2  and  C_4
REMARK    3  A    between atoms: C_4  and  C_5
REMARK    4  A    between atoms: C_5  and  CA_6
REMARK    5  A    between atoms: CA_6  and  N_8
REMARK    6  A    between atoms: CA_6  and  C_9
REMARK    7  A    between atoms: C_9  and  O_10
REMARK                            x       y       z     vdW  Elec       q    Type
REMARK                         _______ _______ _______ _____ _____    ______ ____
ROOT
ATOM      1  CA  UNL     1       5.522   1.304   2.038  0.00  0.00    +0.161 C 
ENDROOT
BRANCH   1   2
ATOM      2  N   UNL     1       5.289   0.651   3.357  0.00  0.00    -0.318 NA
ATOM      3  H1  UNL     1       5.806   1.187   4.066  0.00  0.00    +0.119 HD
ATOM      4  H2  UNL     1       4.310   0.788   3.618  0.00  0.00    +0.119 HD
ENDBRANCH   1   2
BRANCH   1   5
ATOM      5  C   UNL     1       7.024   1.211   1.717  0.00  0.00    +0.322 C 
ATOM      6  OXT UNL     1       7.635   1.977   0.991  0.00  0.00    -0.249 OA
BRANCH   5   7
ATOM      7  O   UNL     1       7.595   0.147   2.342  0.00  0.00    -0.480 OA
ATOM      8  H   UNL     1       6.881  -0.288   2.869  0.00  0.00    +0.295 HD
ENDBRANCH   5   7
ENDBRANCH   1   5
BRANCH   1   9
ATOM      9  C   UNL     1       4.733   0.615   0.921  0.00  0.00    +0.037 C 
BRANCH   9  10
ATOM     10  C   UNL     1       3.216   0.754   1.067  0.00  0.00    +0.076 C 
BRANCH  10  12
ATOM     11  C   UNL     1       0.959   0.145   0.004  0.00  0.00    +0.086 C 
ATOM     12  C   UNL     1       2.462   0.074  -0.063  0.00  0.00    +0.130 C 
ATOM     13  O   UNL     1       3.030  -0.506  -0.985  0.00  0.00    -0.298 OA
ENDBRANCH  10  12
ENDBRANCH   9  10
ENDBRANCH   1   9
TORSDOF 6
