REMARK  Name = 
REMARK  6 active torsions:
REMARK  status: ('A' for Active; 'I' for Inactive)
REMARK    1  A    between atoms: CA_2  and  CB_3
REMARK    2  A    between atoms: CA_2  and  N_10
REMARK    3  A    between atoms: CA_2  and  C_15
REMARK    4  A    between atoms: CB_3  and  CG_4
REMARK    5  A    between atoms: N_13  and  O_14
REMARK    6  A    between atoms: C_15  and  O_16
REMARK                            x       y       z     vdW  Elec       q    Type
REMARK                         _______ _______ _______ _____ _____    ______ ____
ROOT
ATOM      1  CA  PHE A   1       1.980   0.211   0.163  0.00  0.00    +0.187 C 
ENDROOT
BRANCH   1   2
ATOM      2  N   PHE A   1       2.314   1.506   0.790  0.00  0.00    -0.284 N 
ATOM      3  H   PHE A   1       2.708   2.195   0.163  0.00  0.00    +0.151 HD
ATOM      4  C   UNK A   0       1.625   2.014   1.860  0.00  0.00    +0.323 C 
ATOM      5  N   UNK A   0       2.100   3.233   2.274  0.00  0.00    -0.181 N 
ATOM      6  H   UNK A   0       2.485   3.898   1.614  0.00  0.00    +0.184 HD
ATOM      7  O   UNK A   0       0.762   1.404   2.478  0.00  0.00    -0.251 OA
BRANCH   5   8
ATOM      8  O   UNK A   0       1.374   3.813   3.344  0.00  0.00    -0.294 OA
ATOM      9  H   UNK A   0       0.699   3.126   3.544  0.00  0.00    +0.241 HD
ENDBRANCH   5   8
ENDBRANCH   1   2
BRANCH   1  10
ATOM     10  C   PHE A   1       2.548  -0.980   0.955  0.00  0.00    +0.326 C 
ATOM     11  OXT PHE A   1       2.374  -2.152   0.646  0.00  0.00    -0.249 OA
BRANCH  10  12
ATOM     12  O   PHE A   1       3.342  -0.626   1.994  0.00  0.00    -0.479 OA
ATOM     13  H   PHE A   1       3.341   0.347   2.105  0.00  0.00    +0.295 HD
ENDBRANCH  10  12
ENDBRANCH   1  10
BRANCH   1  14
ATOM     14  CB  PHE A   1       0.491  -0.032  -0.141  0.00  0.00    +0.069 C 
BRANCH  14  15
ATOM     15  CG  PHE A   1      -0.161   1.055  -0.970  0.00  0.00    -0.045 A 
ATOM     16  CD2 PHE A   1      -1.161   1.862  -0.408  0.00  0.00    +0.004 A 
ATOM     17  CE2 PHE A   1      -1.780   2.853  -1.168  0.00  0.00    +0.000 A 
ATOM     18  CZ  PHE A   1      -1.409   3.048  -2.496  0.00  0.00    +0.000 A 
ATOM     19  CE1 PHE A   1      -0.419   2.248  -3.066  0.00  0.00    +0.000 A 
ATOM     20  CD1 PHE A   1       0.202   1.254  -2.308  0.00  0.00    +0.004 A 
ENDBRANCH  14  15
ENDBRANCH   1  14
TORSDOF 6
