REMARK  Name = 
REMARK  4 active torsions:
REMARK  status: ('A' for Active; 'I' for Inactive)
REMARK    1  A    between atoms: C_1  and  C_2
REMARK    2  A    between atoms: N_4  and  C_5
REMARK    3  A    between atoms: C_5  and  C_6
REMARK    4  A    between atoms: C_6  and  C_7
REMARK                            x       y       z     vdW  Elec       q    Type
REMARK                         _______ _______ _______ _____ _____    ______ ____
ROOT
ATOM      1  C   UNL     1       5.102   1.831   1.983  0.00  0.00    +0.073 C 
ENDROOT
BRANCH   1   2
ATOM      2  C   UNL     1       6.588   1.836   2.037  0.00  0.00    +0.037 A 
ATOM      3  N   UNL     1       7.311   0.996   2.849  0.00  0.00    -0.348 N 
ATOM      4  H   UNL     1       6.937   0.303   3.483  0.00  0.00    +0.166 HD
ATOM      5  C   UNL     1       8.635   1.262   2.641  0.00  0.00    +0.196 A 
ATOM      6  N   UNL     1       8.802   2.213   1.753  0.00  0.00    -0.244 NA
ATOM      7  C   UNL     1       7.538   2.582   1.371  0.00  0.00    +0.133 A 
ENDBRANCH   1   2
BRANCH   1   8
ATOM      8  C   UNL     1       4.581   0.890   0.893  0.00  0.00    +0.110 C 
BRANCH   8  11
ATOM      9  C   UNL     1       0.916   0.123   1.436  0.00  0.00    +0.109 C 
ATOM     10  C   UNL     1       2.402   0.010   1.646  0.00  0.00    +0.210 C 
ATOM     11  N   UNL     1       3.132   0.856   0.843  0.00  0.00    -0.315 N 
ATOM     12  H   UNL     1       2.649   1.538   0.273  0.00  0.00    +0.149 HD
ATOM     13  O   UNL     1       2.902  -0.763   2.456  0.00  0.00    -0.276 OA
ENDBRANCH   8  11
ENDBRANCH   1   8
TORSDOF 3
