REMARK  Name = 
REMARK  7 active torsions:
REMARK  status: ('A' for Active; 'I' for Inactive)
REMARK    1  A    between atoms: N_1  and  C_2
REMARK    2  A    between atoms: C_2  and  C_4
REMARK    3  A    between atoms: C_2  and  C_10
REMARK    4  A    between atoms: C_4  and  S_5
REMARK    5  A    between atoms: S_5  and  S_6
REMARK    6  A    between atoms: S_6  and  O_7
REMARK    7  A    between atoms: C_10  and  O_11
REMARK                            x       y       z     vdW  Elec       q    Type
REMARK                         _______ _______ _______ _____ _____    ______ ____
ROOT
ATOM      1  C   UNK     1       2.564  -0.063  -0.061  0.00  0.00    +0.172 C 
ENDROOT
BRANCH   1   2
ATOM      2  N   UNK     1       1.060  -0.108  -0.139  0.00  0.00    -0.318 NA
ATOM      3  H   UNK     1       0.772  -1.045  -0.445  0.00  0.00    +0.119 HD
ATOM      4  H   UNK     1       0.694  -0.035   0.817  0.00  0.00    +0.119 HD
ENDBRANCH   1   2
BRANCH   1   5
ATOM      5  C   UNK     1       3.089   0.304  -1.467  0.00  0.00    +0.323 C 
ATOM      6  O   UNK     1       4.254   0.309  -1.822  0.00  0.00    -0.249 OA
BRANCH   5   7
ATOM      7  O   UNK     1       2.067   0.652  -2.297  0.00  0.00    -0.480 OA
ATOM      8  H   UNK     1       1.244   0.605  -1.749  0.00  0.00    +0.295 HD
ENDBRANCH   5   7
ENDBRANCH   1   5
BRANCH   1   9
ATOM      9  C   UNK     1       3.118  -1.406   0.435  0.00  0.00    +0.125 C 
BRANCH   9  10
ATOM     10  S   UNK     1       4.893  -1.371   0.816  0.00  0.00    +0.029 S 
BRANCH  10  11
ATOM     11  S   UNK     1       5.253  -3.368   1.240  0.00  0.00    +0.135 S 
ATOM     12  O   UNK     1       4.425  -3.725   2.368  0.00  0.00    -0.136 OA
ATOM     13  O   UNK     1       6.677  -3.589   1.233  0.00  0.00    -0.136 OA
BRANCH  11  14
ATOM     14  O   UNK     1       4.691  -4.177  -0.037  0.00  0.00    -0.245 OA
ATOM     15  H   UNK     1       5.452  -4.658  -0.427  0.00  0.00    +0.245 HD
ENDBRANCH  11  14
ENDBRANCH  10  11
ENDBRANCH   9  10
ENDBRANCH   1   9
TORSDOF 7
