REMARK  Name = 
REMARK  2 active torsions:
REMARK  status: ('A' for Active; 'I' for Inactive)
REMARK    1  A    between atoms: O_1  and  C_2
REMARK    2  A    between atoms: C_9  and  C_18
REMARK                            x       y       z     vdW  Elec       q    Type
REMARK                         _______ _______ _______ _____ _____    ______ ____
ROOT
ATOM      1  C   UNL     1       2.350   0.280  -0.198  0.00  0.00    +0.118 A 
ATOM      2  C   UNL     1       2.920  -0.984  -0.144  0.00  0.00    +0.047 A 
ATOM      3  C   UNL     1       4.305  -1.132  -0.098  0.00  0.00    +0.030 A 
ATOM      4  C   UNL     1       5.087   0.031  -0.092  0.00  0.00    +0.048 A 
ATOM      5  N   UNL     1       6.465   0.147   0.008  0.00  0.00    -0.354 N 
ATOM      6  H   UNL     1       7.095  -0.637   0.086  0.00  0.00    +0.166 HD
ATOM      7  C   UNL     1       6.840   1.466   0.065  0.00  0.00    +0.049 A 
ATOM      8  C   UNL     1       5.668   2.142  -0.122  0.00  0.00    +0.021 A 
ATOM      9  C   UNL     1       5.693   3.552  -0.192  0.00  0.00    +0.062 A 
ATOM     10  C   UNL     1       6.936   4.177   0.121  0.00  0.00    +0.060 A 
ATOM     11  C   UNL     1       6.662   5.595   0.171  0.00  0.00    +0.260 A 
ATOM     12  N   UNL     1       5.449   5.711  -0.443  0.00  0.00    -0.289 N 
ATOM     13  H   UNL     1       4.992   6.603  -0.507  0.00  0.00    +0.172 HD
ATOM     14  O   UNL     1       7.195   6.552   0.720  0.00  0.00    -0.267 OA
ATOM     15  C   UNL     1       8.153   3.491   0.303  0.00  0.00    -0.003 A 
ATOM     16  C   UNL     1       4.730   4.550  -0.532  0.00  0.00    +0.260 A 
ATOM     17  O   UNL     1       3.553   4.526  -0.848  0.00  0.00    -0.267 OA
ATOM     18  C   UNL     1       8.081   2.081   0.251  0.00  0.00    +0.035 A 
ATOM     19  C   UNL     1       4.542   1.324  -0.177  0.00  0.00    +0.012 A 
ATOM     20  C   UNL     1       3.133   1.444  -0.235  0.00  0.00    +0.056 A 
ENDROOT
BRANCH  15  21
ATOM     21  C   UNL     1       9.456   4.181   0.372  0.00  0.00    -0.017 A 
ATOM     22  C   UNL     1       9.731   5.245   1.243  0.00  0.00    +0.008 A 
ATOM     23  C   UNL     1      10.984   5.873   1.262  0.00  0.00    +0.001 A 
ATOM     24  C   UNL     1      12.013   5.410   0.449  0.00  0.00    +0.000 A 
ATOM     25  C   UNL     1      11.783   4.337  -0.402  0.00  0.00    +0.001 A 
ATOM     26  C   UNL     1      10.517   3.744  -0.449  0.00  0.00    +0.008 A 
ENDBRANCH  15  21
BRANCH   1  27
ATOM     27  O   UNL     1       0.983   0.341  -0.195  0.00  0.00    -0.507 OA
ATOM     28  H   UNL     1       0.718   1.275  -0.174  0.00  0.00    +0.292 HD
ENDBRANCH   1  27
TORSDOF 2
