REMARK  Name = 
REMARK  11 active torsions:
REMARK  status: ('A' for Active; 'I' for Inactive)
REMARK    1  A    between atoms: C_1  and  C_2
REMARK    2  A    between atoms: C_2  and  C_3
REMARK    3  A    between atoms: C_2  and  C_4
REMARK    4  A    between atoms: C_4  and  C_5
REMARK    5  A    between atoms: C_5  and  C_6
REMARK    6  A    between atoms: C_6  and  C_7
REMARK    7  A    between atoms: C_7  and  C_9
REMARK    8  A    between atoms: C_7  and  C_10
REMARK    9  A    between atoms: C_22  and  O_24
REMARK   10  A    between atoms: C_27  and  C_28
REMARK   11  A    between atoms: C_33  and  C_34
REMARK                            x       y       z     vdW  Elec       q    Type
REMARK                         _______ _______ _______ _____ _____    ______ ____
ROOT
ATOM      1  C   UNL     1      -0.000  -0.000  -0.000  0.00  0.00    -0.002 C 
ATOM      2  C   UNL     1      -0.000  -0.000  -0.000  0.00  0.00    -0.026 C 
ATOM      3  C   UNL     1      -0.000  -0.000  -0.000  0.00  0.00    +0.012 C 
ATOM      4  C   UNL     1      -0.000  -0.000  -0.000  0.00  0.00    -0.001 C 
ATOM      5  C   UNL     1      -0.000  -0.000  -0.000  0.00  0.00    +0.000 C 
ATOM      6  C   UNL     1      -0.000  -0.000  -0.000  0.00  0.00    +0.003 C 
ATOM      7  C   UNL     1      -0.000  -0.000  -0.000  0.00  0.00    +0.005 C 
ATOM      8  C   UNL     1      -0.000  -0.000  -0.000  0.00  0.00    -0.008 C 
ATOM      9  C   UNL     1      -0.000  -0.000  -0.000  0.00  0.00    +0.016 C 
ATOM     10  C   UNL     1      -0.000  -0.000  -0.000  0.00  0.00    -0.065 C 
ATOM     11  C   UNL     1      -0.000  -0.000  -0.000  0.00  0.00    +0.062 C 
ATOM     12  C   UNL     1      -0.000  -0.000  -0.000  0.00  0.00    +0.119 C 
ATOM     13  C   UNL     1      -0.000  -0.000  -0.000  0.00  0.00    +0.032 C 
ATOM     14  C   UNL     1      -0.000  -0.000  -0.000  0.00  0.00    -0.027 C 
ATOM     15  C   UNL     1      -0.000  -0.000  -0.000  0.00  0.00    +0.014 C 
ATOM     16  C   UNL     1      -0.000  -0.000  -0.000  0.00  0.00    +0.031 C 
ATOM     17  C   UNL     1      -0.000  -0.000  -0.000  0.00  0.00    +0.004 C 
ATOM     18  C   UNL     1      -0.000  -0.000  -0.000  0.00  0.00    +0.007 C 
ATOM     19  C   UNL     1      -0.000  -0.000  -0.000  0.00  0.00    +0.004 C 
ENDROOT
BRANCH   1  20
ATOM     20  C   UNL     1      -0.000  -0.000  -0.000  0.00  0.00    -0.010 C 
ATOM     21  C   UNL     1      -0.000  -0.000  -0.000  0.00  0.00    +0.008 C 
BRANCH  20  22
ATOM     22  C   UNL     1      -0.000  -0.000  -0.000  0.00  0.00    +0.003 C 
BRANCH  22  23
ATOM     23  C   UNL     1      -0.000  -0.000  -0.000  0.00  0.00    +0.001 C 
BRANCH  23  24
ATOM     24  C   UNL     1      -0.000  -0.000  -0.000  0.00  0.00    +0.003 C 
BRANCH  24  26
ATOM     25  C   UNL     1      -0.000  -0.000  -0.000  0.00  0.00    +0.007 C 
ATOM     26  C   UNL     1      -0.000  -0.000  -0.000  0.00  0.00    -0.017 C 
ATOM     27  C   UNL     1      -0.000  -0.000  -0.000  0.00  0.00    +0.007 C 
ENDBRANCH  24  26
ENDBRANCH  23  24
ENDBRANCH  22  23
ENDBRANCH  20  22
ENDBRANCH   1  20
BRANCH  12  28
ATOM     28  O   UNL     1      -0.000  -0.000  -0.000  0.00  0.00    -0.391 OA
ATOM     29  H   UNL     1       0.000   0.000   0.000  0.00  0.00    +0.210 HD
ENDBRANCH  12  28
TORSDOF 6
