REMARK  Name = 
REMARK  11 active torsions:
REMARK  status: ('A' for Active; 'I' for Inactive)
REMARK    1  A    between atoms: NE_4  and  CD_5
REMARK    2  A    between atoms: CD_5  and  CG_6
REMARK    3  A    between atoms: CG_6  and  CB_7
REMARK    4  A    between atoms: CB_7  and  CA_8
REMARK    5  A    between atoms: CA_8  and  N_10
REMARK    6  A    between atoms: CA_8  and  C_16
REMARK    7  A    between atoms: N_10  and  C_11
REMARK    8  A    between atoms: C_11  and  C_12
REMARK    9  A    between atoms: C_12  and  C_13
REMARK   10  A    between atoms: C_13  and  O_14
REMARK   11  A    between atoms: C_16  and  O_17
REMARK                            x       y       z     vdW  Elec       q    Type
REMARK                         _______ _______ _______ _____ _____    ______ ____
ROOT
ATOM      1  CA  ARG A   1       7.143  -1.481  -3.704  0.00  0.00    +0.163 C 
ENDROOT
BRANCH   1   2
ATOM      2  C   ARG A   1       8.656  -1.770  -3.675  0.00  0.00    +0.322 C 
ATOM      3  OXT ARG A   1       9.377  -1.730  -2.692  0.00  0.00    -0.249 OA
BRANCH   2   4
ATOM      4  O   ARG A   1       9.121  -2.060  -4.920  0.00  0.00    -0.480 OA
ATOM      5  H   ARG A   1       8.381  -1.922  -5.556  0.00  0.00    +0.295 HD
ENDBRANCH   2   4
ENDBRANCH   1   2
BRANCH   1   6
ATOM      6  N   ARG A   1       6.825  -0.649  -4.898  0.00  0.00    -0.304 NA
ATOM      7  H   ARG A   1       5.812  -0.706  -5.051  0.00  0.00    +0.123 HD
BRANCH   6   8
ATOM      8  C   UNK A   0       7.149   0.794  -4.783  0.00  0.00    +0.093 C 
BRANCH   8   9
ATOM      9  C   UNK A   0       8.639   1.135  -4.720  0.00  0.00    +0.135 C 
BRANCH   9  10
ATOM     10  C   UNK A   0       8.864   2.628  -4.735  0.00  0.00    +0.306 C 
ATOM     11  O   UNK A   0       7.986   3.468  -4.844  0.00  0.00    -0.251 OA
BRANCH  10  12
ATOM     12  O   UNK A   0      10.170   2.957  -4.612  0.00  0.00    -0.481 OA
ATOM     13  H   UNK A   0      10.765   2.188  -4.516  0.00  0.00    +0.295 HD
ENDBRANCH  10  12
ENDBRANCH   9  10
ENDBRANCH   8   9
ENDBRANCH   6   8
ENDBRANCH   1   6
BRANCH   1  14
ATOM     14  CB  ARG A   1       6.616  -0.990  -2.345  0.00  0.00    +0.033 C 
BRANCH  14  15
ATOM     15  CG  ARG A   1       5.090  -0.867  -2.236  0.00  0.00    +0.039 C 
BRANCH  15  16
ATOM     16  CD  ARG A   1       4.356  -2.203  -2.374  0.00  0.00    +0.196 C 
BRANCH  16  21
ATOM     17  NH1 ARG A   1       0.783  -2.687  -2.105  0.00  0.00    -0.289 N 
ATOM     18 HH11 ARG A   1       0.603  -1.865  -1.549  0.00  0.00    +0.255 HD
ATOM     19 HH12 ARG A   1       0.113  -3.431  -1.967  0.00  0.00    +0.255 HD
ATOM     20  CZ  ARG A   1       2.061  -3.035  -2.338  0.00  0.00    +0.376 C 
ATOM     21  NE  ARG A   1       2.923  -2.000  -2.221  0.00  0.00    -0.276 N 
ATOM     22  HE  ARG A   1       2.670  -1.295  -1.542  0.00  0.00    +0.258 HD
ATOM     23  NH2 ARG A   1       2.401  -4.220  -2.687  0.00  0.00    -0.130 NA
ATOM     24  HH2 ARG A   1       1.570  -4.810  -2.743  0.00  0.00    +0.306 HD
ENDBRANCH  16  21
ENDBRANCH  15  16
ENDBRANCH  14  15
ENDBRANCH   1  14
TORSDOF 11
