REMARK  Name = 
REMARK  11 active torsions:
REMARK  status: ('A' for Active; 'I' for Inactive)
REMARK    1  A    between atoms: C_1  and  C_2
REMARK    2  A    between atoms: N_4  and  C_5
REMARK    3  A    between atoms: C_7  and  O_9
REMARK    4  A    between atoms: C_13  and  C_26
REMARK    5  A    between atoms: C_16  and  C_18
REMARK    6  A    between atoms: C_18  and  O_20
REMARK    7  A    between atoms: C_18  and  C_21
REMARK    8  A    between atoms: C_21  and  O_23
REMARK    9  A    between atoms: C_21  and  C_24
REMARK   10  A    between atoms: C_24  and  O_25
REMARK   11  A    between atoms: C_26  and  O_27
REMARK                            x       y       z     vdW  Elec       q    Type
REMARK                         _______ _______ _______ _____ _____    ______ ____
ROOT
ATOM      1  C   UNL     1       4.638   0.306  -1.135  0.00  0.00    +0.136 C 
ATOM      2  C   UNL     1       5.207  -0.649  -2.223  0.00  0.00    +0.173 C 
ATOM      3  O   UNL     1       4.971  -2.030  -1.871  0.00  0.00    -0.355 OA
ATOM      4  C   UNL     1       5.523  -2.437  -0.601  0.00  0.00    +0.263 C 
ATOM      5  C   UNL     1       5.062  -1.542   0.549  0.00  0.00    +0.236 C 
ATOM      6  F   UNL     1       3.744  -1.788   0.792  0.00  0.00    -0.239 F 
ATOM      7  C   UNL     1       5.275  -0.067   0.227  0.00  0.00    +0.174 C 
ENDROOT
BRANCH   1  10
ATOM      8  C   UNL     1       0.924   0.800  -0.436  0.00  0.00    +0.109 C 
ATOM      9  C   UNL     1       2.403   1.043  -0.286  0.00  0.00    +0.210 C 
ATOM     10  N   UNL     1       3.175   0.237  -1.084  0.00  0.00    -0.308 N 
ATOM     11  H   UNL     1       2.716  -0.198  -1.886  0.00  0.00    +0.149 HD
ATOM     12  O   UNL     1       2.862   1.882   0.480  0.00  0.00    -0.276 OA
ENDBRANCH   1  10
BRANCH   4  13
ATOM     13  C   UNL     1       7.047  -2.590  -0.640  0.00  0.00    +0.337 C 
ATOM     14  O   UNL     1       7.732  -2.317  -1.623  0.00  0.00    -0.248 OA
BRANCH  13  15
ATOM     15  O   UNL     1       7.608  -3.131   0.466  0.00  0.00    -0.479 OA
ATOM     16  H   UNL     1       7.005  -3.371   1.195  0.00  0.00    +0.295 HD
ENDBRANCH  13  15
ENDBRANCH   4  13
BRANCH   7  17
ATOM     17  O   UNL     1       6.693   0.160   0.253  0.00  0.00    -0.387 OA
ATOM     18  H   UNL     1       6.952   0.790  -0.442  0.00  0.00    +0.210 HD
ENDBRANCH   7  17
BRANCH   2  19
ATOM     19  C   UNL     1       4.600  -0.379  -3.628  0.00  0.00    +0.176 C 
BRANCH  19  20
ATOM     20  O   UNL     1       3.190  -0.673  -3.605  0.00  0.00    -0.387 OA
ATOM     21  H   UNL     1       3.123  -1.638  -3.779  0.00  0.00    +0.210 HD
ENDBRANCH  19  20
BRANCH  19  22
ATOM     22  C   UNL     1       5.264  -1.217  -4.745  0.00  0.00    +0.171 C 
BRANCH  22  23
ATOM     23  O   UNL     1       5.038  -2.615  -4.519  0.00  0.00    -0.387 OA
ATOM     24  H   UNL     1       5.334  -2.813  -3.606  0.00  0.00    +0.210 HD
ENDBRANCH  22  23
BRANCH  22  25
ATOM     25  C   UNL     1       4.677  -0.865  -6.126  0.00  0.00    +0.189 C 
BRANCH  25  26
ATOM     26  O   UNL     1       5.357  -1.529  -7.192  0.00  0.00    -0.392 OA
ATOM     27  H   UNL     1       6.089  -2.046  -6.812  0.00  0.00    +0.210 HD
ENDBRANCH  25  26
ENDBRANCH  22  25
ENDBRANCH  19  22
ENDBRANCH   2  19
TORSDOF 10
