REMARK  Name = 
REMARK  13 active torsions:
REMARK  status: ('A' for Active; 'I' for Inactive)
REMARK    1  A    between atoms: C_4  and  C_6
REMARK    2  A    between atoms: C_6  and  C_7
REMARK    3  A    between atoms: C_19  and  C_25
REMARK    4  A    between atoms: C_20  and  O_21
REMARK    5  A    between atoms: O_21  and  C_22
REMARK    6  A    between atoms: C_30  and  C_31
REMARK    7  A    between atoms: C_31  and  O_33
REMARK    8  A    between atoms: O_33  and  C_34
REMARK    9  A    between atoms: N_47  and  C_48
REMARK   10  A    between atoms: C_51  and  C_52
REMARK   11  A    between atoms: C_53  and  C_55
REMARK   12  A    between atoms: C_55  and  O_57
REMARK   13  A    between atoms: O_57  and  C_58
REMARK                            x       y       z     vdW  Elec       q    Type
REMARK                         _______ _______ _______ _____ _____    ______ ____
ROOT
ATOM      1  C   UNL     1      -0.000  -0.000  -0.000  0.00  0.00    +0.005 C 
ATOM      2  C   UNL     1      -0.000  -0.000  -0.000  0.00  0.00    +0.030 C 
ATOM      3  C   UNL     1      -0.000  -0.000  -0.000  0.00  0.00    +0.124 C 
ATOM      4  C   UNL     1      -0.000  -0.000  -0.000  0.00  0.00    +0.082 C 
ATOM      5  N   UNL     1      -0.000  -0.000  -0.000  0.00  0.00    -0.297 NA
ATOM      6  C   UNL     1      -0.000  -0.000  -0.000  0.00  0.00    +0.089 C 
ATOM      7  C   UNL     1      -0.000  -0.000  -0.000  0.00  0.00    +0.053 C 
ATOM      8  C   UNL     1      -0.000  -0.000  -0.000  0.00  0.00    -0.017 A 
ATOM      9  C   UNL     1      -0.000  -0.000  -0.000  0.00  0.00    +0.007 A 
ATOM     10  C   UNL     1      -0.000  -0.000  -0.000  0.00  0.00    +0.047 A 
ATOM     11  C   UNL     1      -0.000  -0.000  -0.000  0.00  0.00    +0.034 A 
ATOM     12  C   UNL     1      -0.000  -0.000  -0.000  0.00  0.00    +0.005 A 
ATOM     13  C   UNL     1      -0.000  -0.000  -0.000  0.00  0.00    +0.125 A 
ATOM     14  N   UNL     1      -0.000  -0.000  -0.000  0.00  0.00    -0.357 N 
ATOM     15  H   UNL     1       0.000   0.000   0.000  0.00  0.00    +0.166 HD
ATOM     16  C   UNL     1      -0.000  -0.000  -0.000  0.00  0.00    +0.056 A 
ATOM     17  C   UNL     1      -0.000  -0.000  -0.000  0.00  0.00    +0.008 C 
ATOM     18  C   UNL     1      -0.000  -0.000  -0.000  0.00  0.00    +0.039 A 
ATOM     19  C   UNL     1      -0.000  -0.000  -0.000  0.00  0.00    +0.088 C 
ATOM     20  C   UNL     1      -0.000  -0.000  -0.000  0.00  0.00    +0.010 C 
ENDROOT
BRANCH  12  21
ATOM     21  C   UNL     1      -0.000  -0.000  -0.000  0.00  0.00    +0.070 C 
ATOM     22  C   UNL     1      -0.000  -0.000  -0.000  0.00  0.00    +0.028 A 
ATOM     23  N   UNL     1      -0.000  -0.000  -0.000  0.00  0.00    -0.357 N 
ATOM     24  H   UNL     1      -0.000  -0.000  -0.000  0.00  0.00    +0.166 HD
ATOM     25  C   UNL     1      -0.000  -0.000  -0.000  0.00  0.00    +0.047 A 
ATOM     26  C   UNL     1      -0.000  -0.000  -0.000  0.00  0.00    +0.003 A 
ATOM     27  C   UNL     1      -0.000  -0.000  -0.000  0.00  0.00    +0.010 A 
ATOM     28  C   UNL     1      -0.000   0.000   0.000  0.00  0.00    +0.001 A 
ATOM     29  C   UNL     1      -0.000  -0.000  -0.000  0.00  0.00    +0.002 A 
ATOM     30  C   UNL     1      -0.000  -0.000  -0.000  0.00  0.00    +0.026 A 
ATOM     31  C   UNL     1      -0.000  -0.000  -0.000  0.00  0.00    -0.017 A 
ATOM     32  C   UNL     1      -0.000  -0.000  -0.000  0.00  0.00    +0.057 C 
ATOM     33  C   UNL     1      -0.000  -0.000  -0.000  0.00  0.00    +0.075 C 
ATOM     34  N   UNL     1      -0.000  -0.000  -0.000  0.00  0.00    -0.297 NA
ATOM     35  C   UNL     1      -0.000  -0.000  -0.000  0.00  0.00    +0.105 C 
ATOM     36  C   UNL     1      -0.000  -0.000  -0.000  0.00  0.00    +0.115 C 
ATOM     37  C   UNL     1      -0.000  -0.000  -0.000  0.00  0.00    -0.056 C 
ATOM     38  C   UNL     1      -0.000  -0.000  -0.000  0.00  0.00    -0.029 C 
ATOM     39  C   UNL     1      -0.000  -0.000  -0.000  0.00  0.00    +0.035 C 
ATOM     40  C   UNL     1      -0.000  -0.000  -0.000  0.00  0.00    +0.032 C 
ATOM     41  C   UNL     1      -0.000  -0.000  -0.000  0.00  0.00    +0.122 C 
ATOM     42  C   UNL     1      -0.000  -0.000  -0.000  0.00  0.00    +0.023 C 
BRANCH  41  43
ATOM     43  C   UNL     1      -0.000  -0.000  -0.000  0.00  0.00    +0.312 C 
ATOM     44  O   UNL     1      -0.000  -0.000  -0.000  0.00  0.00    -0.250 OA
BRANCH  43  45
ATOM     45  O   UNL     1      -0.000  -0.000  -0.000  0.00  0.00    -0.468 OA
ATOM     46  C   UNL     1      -0.000  -0.000  -0.000  0.00  0.00    +0.280 C 
ENDBRANCH  43  45
ENDBRANCH  41  43
ENDBRANCH  12  21
BRANCH   3  47
ATOM     47  C   UNL     1       0.000   0.000  -0.000  0.00  0.00    +0.320 C 
ATOM     48  O   UNL     1      -0.000  -0.000  -0.000  0.00  0.00    -0.250 OA
BRANCH  47  49
ATOM     49  O   UNL     1      -0.000  -0.000  -0.000  0.00  0.00    -0.467 OA
ATOM     50  C   UNL     1      -0.000  -0.000  -0.000  0.00  0.00    +0.280 C 
ENDBRANCH  47  49
ENDBRANCH   3  47
BRANCH  13  51
ATOM     51  O   UNL     1      -0.000  -0.000  -0.000  0.00  0.00    -0.495 OA
ATOM     52  C   UNL     1      -0.000  -0.000  -0.000  0.00  0.00    +0.277 C 
ENDBRANCH  13  51
BRANCH  17  53
ATOM     53  C   UNL     1      -0.000  -0.000  -0.000  0.00  0.00    +0.002 C 
ATOM     54  C   UNL     1      -0.000  -0.000  -0.000  0.00  0.00    +0.004 C 
ENDBRANCH  17  53
TORSDOF 7
