REMARK  Name = 
REMARK  3 active torsions:
REMARK  status: ('A' for Active; 'I' for Inactive)
REMARK    1  A    between atoms: C_1  and  C_2
REMARK    2  A    between atoms: C_3  and  C_8
REMARK    3  A    between atoms: N_10  and  C_11
REMARK                            x       y       z     vdW  Elec       q    Type
REMARK                         _______ _______ _______ _____ _____    ______ ____
ROOT
ATOM      1  C   UNL     1       2.544   2.534  -0.068  0.00  0.00    +0.258 C 
ATOM      2  N   UNL     1       1.217   2.755   0.266  0.00  0.00    -0.281 N 
ATOM      3  H   UNL     1       0.730   1.975   0.693  0.00  0.00    +0.155 HD
ATOM      4  O   UNL     1       3.297   3.416  -0.453  0.00  0.00    -0.269 OA
ENDROOT
BRANCH   1  11
ATOM      5  C   UNL     1       5.463   1.581  -0.540  0.00  0.00    +0.087 C 
ATOM      6  C   UNL     1       4.314   0.713  -0.086  0.00  0.00    +0.113 C 
ATOM      7  O   UNL     1       4.755  -0.592  -0.006  0.00  0.00    -0.494 OA
ATOM      8  C   UNL     1       4.195  -1.509   0.923  0.00  0.00    +0.239 C 
ATOM      9  C   UNL     1       2.770  -1.293   1.405  0.00  0.00    +0.115 C 
ATOM     10  S   UNL     1       1.801  -0.097   0.472  0.00  0.00    -0.114 S 
ATOM     11  C   UNL     1       3.033   1.097   0.129  0.00  0.00    +0.107 C 
ENDBRANCH   1  11
BRANCH   2  12
ATOM     12  C   UNL     1       0.508   3.970   0.138  0.00  0.00    +0.034 A 
ATOM     13  C   UNL     1      -0.726   4.088   0.790  0.00  0.00    +0.023 A 
ATOM     14  C   UNL     1      -1.452   5.285   0.730  0.00  0.00    +0.002 A 
ATOM     15  C   UNL     1      -0.966   6.364  -0.006  0.00  0.00    +0.000 A 
ATOM     16  C   UNL     1       0.239   6.241  -0.689  0.00  0.00    +0.002 A 
ATOM     17  C   UNL     1       0.968   5.051  -0.618  0.00  0.00    +0.023 A 
ENDBRANCH   2  12
TORSDOF 2
