REMARK  Name = 
REMARK  3 active torsions:
REMARK  status: ('A' for Active; 'I' for Inactive)
REMARK    1  A    between atoms: O_1  and  C_2
REMARK    2  A    between atoms: C_7  and  S_12
REMARK    3  A    between atoms: S_12  and  N_15
REMARK                            x       y       z     vdW  Elec       q    Type
REMARK                         _______ _______ _______ _____ _____    ______ ____
ROOT
ATOM      1  C   UNL     1       2.305   0.143   0.190  0.00  0.00    +0.220 A 
ATOM      2  N   UNL     1       2.862   1.333   0.464  0.00  0.00    -0.221 NA
ATOM      3  C   UNL     1       4.187   1.334   0.675  0.00  0.00    +0.115 A 
ATOM      4  C   UNL     1       4.972   0.191   0.644  0.00  0.00    +0.030 A 
ATOM      5  C   UNL     1       4.394  -1.062   0.334  0.00  0.00    +0.015 A 
ATOM      6  C   UNL     1       5.104  -2.299   0.239  0.00  0.00    +0.113 A 
ATOM      7  C   UNL     1       4.458  -3.462  -0.197  0.00  0.00    +0.029 A 
ATOM      8  C   UNL     1       3.091  -3.458  -0.440  0.00  0.00    +0.003 A 
ATOM      9  C   UNL     1       2.365  -2.284  -0.283  0.00  0.00    +0.014 A 
ATOM     10  C   UNL     1       3.000  -1.078   0.081  0.00  0.00    +0.045 A 
ENDROOT
BRANCH   6  11
ATOM     11  S   UNL     1       6.816  -2.366   0.792  0.00  0.00    +0.061 S 
ATOM     12  O   UNL     1       6.774  -2.086   2.212  0.00  0.00    -0.153 OA
ATOM     13  O   UNL     1       7.568  -1.525  -0.115  0.00  0.00    -0.153 OA
BRANCH  11  14
ATOM     14  N   UNL     1       7.382  -3.968   0.607  0.00  0.00    -0.175 NA
ATOM     15  C   UNL     1       7.785  -4.367  -0.767  0.00  0.00    +0.124 C 
ATOM     16  C   UNL     1       8.944  -5.376  -0.750  0.00  0.00    +0.098 C 
ATOM     17  N   UNL     1       8.538  -6.783  -0.706  0.00  0.00    -0.315 NA
ATOM     18  H   UNL     1       8.291  -7.109  -1.640  0.00  0.00    +0.122 HD
ATOM     19  C   UNL     1       7.449  -7.078   0.219  0.00  0.00    +0.082 C 
ATOM     20  C   UNL     1       7.544  -6.341   1.550  0.00  0.00    +0.032 C 
ATOM     21  C   UNL     1       6.850  -4.980   1.553  0.00  0.00    +0.111 C 
ENDBRANCH  11  14
ENDBRANCH   6  11
BRANCH   1  22
ATOM     22  O   UNL     1       0.949   0.204   0.024  0.00  0.00    -0.492 OA
ATOM     23  H   UNL     1       0.587  -0.502   0.580  0.00  0.00    +0.294 HD
ENDBRANCH   1  22
TORSDOF 3
