REMARK  Name = 
REMARK  12 active torsions:
REMARK  status: ('A' for Active; 'I' for Inactive)
REMARK    1  A    between atoms: C_1  and  C_2
REMARK    2  A    between atoms: C_2  and  O_3
REMARK    3  A    between atoms: O_3  and  C_4
REMARK    4  A    between atoms: C_7  and  C_10
REMARK    5  A    between atoms: C_13  and  C_16
REMARK    6  A    between atoms: C_16  and  C_18
REMARK    7  A    between atoms: C_18  and  C_19
REMARK    8  A    between atoms: C_19  and  C_21
REMARK    9  A    between atoms: C_19  and  C_34
REMARK   10  A    between atoms: C_21  and  C_22
REMARK   11  A    between atoms: C_22  and  N_23
REMARK   12  A    between atoms: C_34  and  O_35
REMARK                            x       y       z     vdW  Elec       q    Type
REMARK                         _______ _______ _______ _____ _____    ______ ____
ROOT
ATOM      1  C   UNL     1      13.254  -4.106  -1.624  0.00  0.00    +0.094 C 
ENDROOT
BRANCH   1   2
ATOM      2  C   UNL     1      12.511  -2.782  -1.678  0.00  0.00    +0.164 C 
ATOM      3  O   UNL     1      12.866  -1.880  -2.434  0.00  0.00    -0.292 OA
BRANCH   2   7
ATOM      4  C   UNL     1       8.664  -2.666   0.260  0.00  0.00    -0.018 A 
ATOM      5  C   UNL     1       9.724  -3.395   0.824  0.00  0.00    +0.009 A 
ATOM      6  C   UNL     1      11.005  -3.376   0.262  0.00  0.00    +0.012 A 
ATOM      7  C   UNL     1      11.249  -2.640  -0.898  0.00  0.00    +0.017 A 
ATOM      8  C   UNL     1      10.250  -1.802  -1.395  0.00  0.00    +0.012 A 
ATOM      9  C   UNL     1       8.976  -1.810  -0.813  0.00  0.00    +0.009 A 
BRANCH   4  13
ATOM     10  C   UNL     1       4.606  -3.666   1.360  0.00  0.00    +0.121 A 
ATOM     11  C   UNL     1       5.618  -3.696   2.317  0.00  0.00    +0.046 A 
ATOM     12  C   UNL     1       6.926  -3.310   1.990  0.00  0.00    +0.012 A 
ATOM     13  C   UNL     1       7.264  -2.903   0.688  0.00  0.00    -0.018 A 
ATOM     14  C   UNL     1       6.216  -2.847  -0.249  0.00  0.00    +0.012 A 
ATOM     15  C   UNL     1       4.908  -3.216   0.079  0.00  0.00    +0.046 A 
BRANCH  10  16
ATOM     16  O   UNL     1       3.380  -4.110   1.778  0.00  0.00    -0.492 OA
BRANCH  16  18
ATOM     17  C   UNL     1       1.087  -4.701   1.410  0.00  0.00    +0.048 C 
ATOM     18  C   UNL     1       2.349  -4.133   0.790  0.00  0.00    +0.225 C 
ENDBRANCH  16  18
ENDBRANCH  10  16
ENDBRANCH   4  13
ENDBRANCH   2   7
ENDBRANCH   1   2
BRANCH   1  19
ATOM     19  C   UNL     1      14.763  -3.951  -1.855  0.00  0.00    +0.106 C 
BRANCH  19  20
ATOM     20  C   UNL     1      15.356  -5.347  -1.815  0.00  0.00    +0.308 C 
ATOM     21  O   UNL     1      15.273  -6.097  -0.853  0.00  0.00    -0.251 OA
BRANCH  20  22
ATOM     22  O   UNL     1      15.992  -5.706  -2.950  0.00  0.00    -0.480 OA
ATOM     23  H   UNL     1      15.974  -5.044  -3.666  0.00  0.00    +0.295 HD
ENDBRANCH  20  22
ENDBRANCH  19  20
BRANCH  19  24
ATOM     24  C   UNL     1      15.406  -3.070  -0.772  0.00  0.00    +0.034 C 
BRANCH  24  25
ATOM     25  C   UNL     1      16.917  -2.892  -0.940  0.00  0.00    +0.118 C 
BRANCH  25  26
ATOM     26  N   UNL     1      17.450  -2.023   0.094  0.00  0.00    -0.234 N 
ATOM     27  C   UNL     1      17.684  -2.440   1.377  0.00  0.00    +0.254 C 
ATOM     28  O   UNL     1      17.544  -3.543   1.866  0.00  0.00    -0.270 OA
ATOM     29  C   UNL     1      18.117  -1.264   2.122  0.00  0.00    +0.049 A 
ATOM     30  C   UNL     1      18.101  -0.186   1.255  0.00  0.00    +0.049 A 
ATOM     31  C   UNL     1      18.446   1.085   1.671  0.00  0.00    +0.014 A 
ATOM     32  C   UNL     1      18.819   1.241   3.011  0.00  0.00    +0.001 A 
ATOM     33  C   UNL     1      18.834   0.139   3.892  0.00  0.00    +0.001 A 
ATOM     34  C   UNL     1      18.476  -1.137   3.450  0.00  0.00    +0.014 A 
ATOM     35  C   UNL     1      17.653  -0.677  -0.047  0.00  0.00    +0.254 C 
ATOM     36  O   UNL     1      17.498   0.025  -1.028  0.00  0.00    -0.270 OA
ENDBRANCH  25  26
ENDBRANCH  24  25
ENDBRANCH  19  24
ENDBRANCH   1  19
TORSDOF 11
