REMARK  Name = 
REMARK  8 active torsions:
REMARK  status: ('A' for Active; 'I' for Inactive)
REMARK    1  A    between atoms: CA_2  and  CB_3
REMARK    2  A    between atoms: CA_2  and  N_4
REMARK    3  A    between atoms: CA_2  and  C_15
REMARK    4  A    between atoms: C_5  and  O_7
REMARK    5  A    between atoms: O_7  and  C_8
REMARK    6  A    between atoms: C_8  and  C_9
REMARK    7  A    between atoms: CA_21  and  C_23
REMARK    8  A    between atoms: C_23  and  O_24
REMARK                            x       y       z     vdW  Elec       q    Type
REMARK                         _______ _______ _______ _____ _____    ______ ____
ROOT
ATOM      1  CA  PRO A   1       2.161   0.134  -0.018  0.00  0.00    +0.159 C 
ATOM      2  CB  PRO A   1       2.484   0.401  -1.486  0.00  0.00    +0.038 C 
ENDROOT
BRANCH   1   3
ATOM      3  C   PRO A   1       2.749  -1.224   0.460  0.00  0.00    +0.236 C 
ATOM      4  N   PRO A   1       2.082  -1.907   1.476  0.00  0.00    -0.286 N 
ATOM      5  CA  PRO A   1       0.706  -1.665   1.938  0.00  0.00    +0.184 C 
ATOM      6  CB  PRO A   1       0.202  -3.022   2.446  0.00  0.00    +0.035 C 
ATOM      7  CG  PRO A   1       1.252  -4.034   1.998  0.00  0.00    +0.021 C 
ATOM      8  CD  PRO A   1       2.532  -3.222   1.913  0.00  0.00    +0.109 C 
ATOM      9  O   PRO A   1       3.816  -1.657   0.021  0.00  0.00    -0.274 OA
BRANCH   5  10
ATOM     10  C   PRO A   1       0.661  -0.625   3.059  0.00  0.00    +0.325 C 
ATOM     11  OXT PRO A   1      -0.374  -0.225   3.574  0.00  0.00    -0.249 OA
BRANCH  10  12
ATOM     12  O   PRO A   1       1.878  -0.173   3.446  0.00  0.00    -0.479 OA
ATOM     13  H   PRO A   1       2.604  -0.614   2.951  0.00  0.00    +0.295 HD
ENDBRANCH  10  12
ENDBRANCH   5  10
ENDBRANCH   1   3
BRANCH   1  14
ATOM     14  N   PRO A   1       2.539   1.232   0.860  0.00  0.00    -0.270 N 
ATOM     15  H   PRO A   1       1.903   1.570   1.573  0.00  0.00    +0.153 HD
ATOM     16  C   UNK A   0       3.733   1.883   0.826  0.00  0.00    +0.401 C 
ATOM     17  O   UNK A   0       4.691   1.595   0.129  0.00  0.00    -0.226 OA
BRANCH  16  18
ATOM     18  O   UNK A   0       3.681   2.913   1.700  0.00  0.00    -0.446 OA
BRANCH  18  19
ATOM     19  C   UNK A   0       4.934   3.563   1.947  0.00  0.00    +0.269 C 
BRANCH  19  20
ATOM     20  C   UNK A   0       5.598   2.849   3.094  0.00  0.00    -0.010 A 
ATOM     21  C   UNK A   0       4.958   2.790   4.342  0.00  0.00    +0.007 A 
ATOM     22  C   UNK A   0       5.519   2.057   5.386  0.00  0.00    +0.000 A 
ATOM     23  C   UNK A   0       6.724   1.384   5.197  0.00  0.00    +0.000 A 
ATOM     24  C   UNK A   0       7.370   1.442   3.959  0.00  0.00    +0.000 A 
ATOM     25  C   UNK A   0       6.809   2.173   2.910  0.00  0.00    +0.007 A 
ENDBRANCH  19  20
ENDBRANCH  18  19
ENDBRANCH  16  18
ENDBRANCH   1  14
TORSDOF 7
