REMARK  Name = 
REMARK  8 active torsions:
REMARK  status: ('A' for Active; 'I' for Inactive)
REMARK    1  A    between atoms: C_1  and  C_2
REMARK    2  A    between atoms: C_2  and  C_3
REMARK    3  A    between atoms: C_3  and  C_4
REMARK    4  A    between atoms: C_15  and  C_16
REMARK    5  A    between atoms: C_15  and  C_17
REMARK    6  A    between atoms: C_21  and  O_23
REMARK    7  A    between atoms: C_24  and  C_26
REMARK    8  A    between atoms: C_27  and  C_29
REMARK                            x       y       z     vdW  Elec       q    Type
REMARK                         _______ _______ _______ _____ _____    ______ ____
ROOT
ATOM      1  C   UNL     1       6.440  -1.609   1.823  0.00  0.00    -0.026 A 
ATOM      2  C   UNL     1       8.314  -1.753   2.030  0.00  0.00    +0.064 A 
ATOM      3  C   UNL     1       9.931  -1.939   2.196  0.00  0.00    +0.143 A 
ATOM      4  O   UNL     1      10.814  -0.872   2.916  0.00  0.00    -0.481 OA
ATOM      5  C   UNL     1      12.303  -1.161   3.367  0.00  0.00    +0.124 C 
ATOM      6  C   UNL     1      12.412  -1.750   4.798  0.00  0.00    +0.060 C 
ATOM      7  C   UNL     1      13.274   0.074   3.356  0.00  0.00    +0.060 C 
ATOM      8  C   UNL     1      13.067  -2.111   2.515  0.00  0.00    +0.020 C 
ATOM      9  C   UNL     1      12.442  -2.996   1.773  0.00  0.00    +0.015 C 
ATOM     10  C   UNL     1      10.979  -3.090   1.790  0.00  0.00    +0.059 A 
ATOM     11  C   UNL     1      10.602  -4.337   1.355  0.00  0.00    +0.141 A 
ATOM     12  O   UNL     1      11.463  -5.344   1.011  0.00  0.00    -0.488 OA
ATOM     13  C   UNL     1      10.955  -6.690   0.858  0.00  0.00    +0.176 C 
ATOM     14  C   UNL     1      11.882  -7.487  -0.081  0.00  0.00    +0.052 C 
ATOM     15  C   UNL     1       9.582  -6.712   0.225  0.00  0.00    +0.060 C 
ATOM     16  C   UNL     1       8.880  -8.075   0.257  0.00  0.00    +0.014 C 
ATOM     17  C   UNL     1       8.652  -5.733   0.877  0.00  0.00    +0.158 C 
ATOM     18  C   UNL     1       9.264  -4.423   1.299  0.00  0.00    +0.067 A 
ATOM     19  C   UNL     1       8.341  -3.242   1.634  0.00  0.00    +0.152 A 
ATOM     20  O   UNL     1       7.145  -3.957   1.542  0.00  0.00    -0.422 OA
ATOM     21  C   UNL     1       6.601  -3.282   0.512  0.00  0.00    +0.337 A 
ATOM     22  O   UNL     1       7.018  -2.834  -0.525  0.00  0.00    -0.245 OA
ATOM     23  C   UNL     1       5.738  -2.698   1.488  0.00  0.00    +0.096 A 
ENDROOT
BRANCH  17  24
ATOM     24  O   UNL     1       7.688  -5.539  -0.172  0.00  0.00    -0.387 OA
ATOM     25  H   UNL     1       8.036  -4.805  -0.720  0.00  0.00    +0.210 HD
ENDBRANCH  17  24
BRANCH   1  26
ATOM     26  C   UNL     1       5.004  -0.496   1.687  0.00  0.00    +0.036 C 
BRANCH  26  28
ATOM     27  C   UNL     1       2.538   0.153   3.239  0.00  0.00    +0.004 C 
ATOM     28  C   UNL     1       3.187  -0.493   1.921  0.00  0.00    +0.001 C 
ENDBRANCH  26  28
ENDBRANCH   1  26
TORSDOF 3
