REMARK  Name = 
REMARK  5 active torsions:
REMARK  status: ('A' for Active; 'I' for Inactive)
REMARK    1  A    between atoms: C_1  and  N_2
REMARK    2  A    between atoms: N_2  and  CA_3
REMARK    3  A    between atoms: CA_3  and  C_6
REMARK    4  A    between atoms: C_4  and  C_5
REMARK    5  A    between atoms: C_6  and  O_7
REMARK                            x       y       z     vdW  Elec       q    Type
REMARK                         _______ _______ _______ _____ _____    ______ ____
ROOT
ATOM      1  CA  UNL     1       3.211  -1.177   0.232  0.00  0.00    +0.108 C 
ATOM      2  C   UNL     1       2.624  -2.351   0.529  0.00  0.00    -0.000 C 
ATOM      3  C   UNL     1       1.186  -2.745   0.580  0.00  0.00    +0.037 C 
ENDROOT
BRANCH   1   5
ATOM      4  C   UNL     1       1.266   0.392  -0.182  0.00  0.00    +0.125 C 
ATOM      5  N   UNL     1       2.676   0.055  -0.156  0.00  0.00    -0.342 N 
ATOM      6  H   UNL     1       3.208   0.811   0.287  0.00  0.00    +0.146 HD
ENDBRANCH   1   5
BRANCH   1   7
ATOM      7  C   UNL     1       4.735  -1.230   0.309  0.00  0.00    +0.350 C 
ATOM      8  OXT UNL     1       5.402  -2.000   0.973  0.00  0.00    -0.244 OA
BRANCH   7   9
ATOM      9  O   UNL     1       5.257  -0.252  -0.472  0.00  0.00    -0.476 OA
ATOM     10  H   UNL     1       4.533   0.118  -1.023  0.00  0.00    +0.295 HD
ENDBRANCH   7   9
ENDBRANCH   1   7
TORSDOF 3
