REMARK  Name = 
REMARK  16 active torsions:
REMARK  status: ('A' for Active; 'I' for Inactive)
REMARK    1  A    between atoms: C_1  and  C_2
REMARK    2  A    between atoms: C_2  and  C_3
REMARK    3  A    between atoms: C_3  and  N_4
REMARK    4  A    between atoms: N_7  and  C_8
REMARK    5  A    between atoms: C_8  and  C_9
REMARK    6  A    between atoms: C_9  and  C_10
REMARK    7  A    between atoms: C_10  and  N_11
REMARK    8  A    between atoms: C_12  and  C_14
REMARK    9  A    between atoms: C_16  and  N_37
REMARK   10  A    between atoms: C_18  and  O_19
REMARK   11  A    between atoms: O_19  and  C_20
REMARK   12  A    between atoms: C_23  and  C_25
REMARK   13  A    between atoms: C_25  and  O_26
REMARK   14  A    between atoms: C_27  and  O_29
REMARK   15  A    between atoms: C_30  and  O_32
REMARK   16  A    between atoms: C_33  and  O_35
REMARK                            x       y       z     vdW  Elec       q    Type
REMARK                         _______ _______ _______ _____ _____    ______ ____
ROOT
ATOM      1  C   UNL     1      10.719   3.427  -4.884  0.00  0.00    +0.047 A 
ATOM      2  C   UNL     1      12.006   3.547  -5.426  0.00  0.00    +0.059 A 
ATOM      3  C   UNL     1      12.323   4.609  -6.275  0.00  0.00    +0.131 A 
ATOM      4  C   UNL     1      11.318   5.488  -6.679  0.00  0.00    +0.130 A 
ATOM      5  C   UNL     1      10.028   5.358  -6.140  0.00  0.00    +0.277 A 
ATOM      6  C   UNL     1       9.733   4.353  -5.217  0.00  0.00    +0.097 A 
ENDROOT
BRANCH   1   9
ATOM      7  N   UNL     1       9.149   1.974  -3.728  0.00  0.00    -0.311 N 
ATOM      8  H   UNL     1       8.416   2.341  -4.316  0.00  0.00    +0.149 HD
ATOM      9  C   UNL     1      10.464   2.359  -3.885  0.00  0.00    +0.244 C 
ATOM     10  O   UNL     1      11.400   1.892  -3.248  0.00  0.00    -0.270 OA
BRANCH   7  11
ATOM     11  C   UNL     1       8.755   1.073  -2.668  0.00  0.00    +0.106 C 
BRANCH  11  12
ATOM     12  C   UNL     1       8.495   1.840  -1.373  0.00  0.00    +0.034 C 
BRANCH  12  13
ATOM     13  C   UNL     1       8.148   0.897  -0.218  0.00  0.00    +0.086 C 
BRANCH  13  17
ATOM     14  N   UNL     1      10.008  -0.132   2.904  0.00  0.00    -0.300 NA
ATOM     15  C   UNL     1       8.714  -0.688   2.442  0.00  0.00    +0.100 C 
ATOM     16  C   UNL     1       8.697  -1.156   0.966  0.00  0.00    +0.100 C 
ATOM     17  N   UNL     1       9.164  -0.144  -0.001  0.00  0.00    -0.300 NA
ATOM     18  C   UNL     1      10.461   0.399   0.456  0.00  0.00    +0.100 C 
ATOM     19  C   UNL     1      10.463   0.880   1.926  0.00  0.00    +0.100 C 
BRANCH  14  20
ATOM     20  C   UNL     1      10.986  -1.214   3.115  0.00  0.00    +0.084 C 
BRANCH  20  22
ATOM     21  C   UNL     1      12.205  -0.051   5.037  0.00  0.00    +0.005 C 
ATOM     22  C   UNL     1      12.334  -0.773   3.705  0.00  0.00    +0.012 C 
ENDBRANCH  20  22
ENDBRANCH  14  20
ENDBRANCH  13  17
ENDBRANCH  12  13
ENDBRANCH  11  12
ENDBRANCH   7  11
ENDBRANCH   1   9
BRANCH   5  23
ATOM     23  N   UNL     1       8.971   6.310  -6.511  0.00  0.00    +0.080 N 
ATOM     24  O   UNL     1       9.271   7.227  -7.288  0.00  0.00    +0.041 OA
ATOM     25  O   UNL     1       7.842   6.128  -6.032  0.00  0.00    -0.576 OA
ENDBRANCH   5  23
BRANCH   3  26
ATOM     26  O   UNL     1      13.655   4.713  -6.590  0.00  0.00    -0.461 OA
BRANCH  26  27
ATOM     27  C   UNL     1      14.135   6.014  -6.994  0.00  0.00    +0.339 C 
ATOM     28  C   UNL     1      15.677   5.991  -7.125  0.00  0.00    +0.214 C 
ATOM     29  C   UNL     1      16.357   5.965  -5.743  0.00  0.00    +0.180 C 
ATOM     30  C   UNL     1      15.789   7.059  -4.813  0.00  0.00    +0.177 C 
ATOM     31  C   UNL     1      14.258   6.948  -4.788  0.00  0.00    +0.179 C 
ATOM     32  O   UNL     1      13.710   7.062  -6.116  0.00  0.00    -0.331 OA
BRANCH  28  33
ATOM     33  O   UNL     1      16.096   4.875  -7.931  0.00  0.00    -0.383 OA
ATOM     34  H   UNL     1      15.920   4.065  -7.421  0.00  0.00    +0.210 HD
ENDBRANCH  28  33
BRANCH  29  35
ATOM     35  O   UNL     1      17.779   6.098  -5.902  0.00  0.00    -0.386 OA
ATOM     36  H   UNL     1      18.157   6.432  -5.072  0.00  0.00    +0.210 HD
ENDBRANCH  29  35
BRANCH  30  37
ATOM     37  O   UNL     1      16.211   8.345  -5.275  0.00  0.00    -0.386 OA
ATOM     38  H   UNL     1      16.079   8.995  -4.567  0.00  0.00    +0.210 HD
ENDBRANCH  30  37
BRANCH  31  39
ATOM     39  C   UNL     1      13.589   8.043  -3.956  0.00  0.00    +0.190 C 
BRANCH  39  40
ATOM     40  O   UNL     1      12.189   7.766  -3.859  0.00  0.00    -0.392 OA
ATOM     41  H   UNL     1      11.876   7.711  -4.782  0.00  0.00    +0.210 HD
ENDBRANCH  39  40
ENDBRANCH  31  39
ENDBRANCH  26  27
ENDBRANCH   3  26
TORSDOF 15
