REMARK  Name = 
REMARK  6 active torsions:
REMARK  status: ('A' for Active; 'I' for Inactive)
REMARK    1  A    between atoms: C_1  and  C_2
REMARK    2  A    between atoms: C_2  and  C_3
REMARK    3  A    between atoms: C_3  and  C_4
REMARK    4  A    between atoms: C_3  and  N_5
REMARK    5  A    between atoms: C_3  and  C_6
REMARK    6  A    between atoms: C_6  and  O_7
REMARK                            x       y       z     vdW  Elec       q    Type
REMARK                         _______ _______ _______ _____ _____    ______ ____
ROOT
ATOM      1  C   UNL     1       3.069   0.934  -1.220  0.00  0.00    +0.111 C 
ATOM      2  C   UNL     1       2.581   0.466  -2.593  0.00  0.00    +0.039 C 
ENDROOT
BRANCH   1   3
ATOM      3  N   UNL     1       2.707   2.374  -1.026  0.00  0.00    -0.316 NA
ATOM      4  H   UNL     1       2.978   2.886  -1.874  0.00  0.00    +0.119 HD
ATOM      5  H   UNL     1       1.686   2.449  -1.016  0.00  0.00    +0.119 HD
ENDBRANCH   1   3
BRANCH   1   7
ATOM      6  C   UNL     1       0.998   0.025   0.058  0.00  0.00    +0.006 C 
ATOM      7  C   UNL     1       2.518   0.077  -0.062  0.00  0.00    +0.030 C 
ENDBRANCH   1   7
BRANCH   1   8
ATOM      8  C   UNL     1       4.616   0.837  -1.161  0.00  0.00    +0.325 C 
ATOM      9  O   UNL     1       5.294  -0.069  -1.616  0.00  0.00    -0.249 OA
BRANCH   8  10
ATOM     10  O   UNL     1       5.141   1.905  -0.501  0.00  0.00    -0.479 OA
ATOM     11  H   UNL     1       4.372   2.479  -0.261  0.00  0.00    +0.295 HD
ENDBRANCH   8  10
ENDBRANCH   1   8
TORSDOF 4
