REMARK  Name = 
REMARK  6 active torsions:
REMARK  status: ('A' for Active; 'I' for Inactive)
REMARK    1  A    between atoms: O_1  and  C_2
REMARK    2  A    between atoms: C_2  and  CA_4
REMARK    3  A    between atoms: C_9  and  C_10
REMARK    4  A    between atoms: C_10  and  P_11
REMARK    5  A    between atoms: P_11  and  O_12
REMARK    6  A    between atoms: P_11  and  O_13
REMARK                            x       y       z     vdW  Elec       q    Type
REMARK                         _______ _______ _______ _____ _____    ______ ____
ROOT
ATOM      1  CA  UNL     1       3.113  -0.330  -1.737  0.00  0.00    +0.151 A 
ATOM      2  C   UNL     1       2.922  -1.697  -1.984  0.00  0.00    -0.003 A 
ATOM      3  C   UNL     1       3.742  -2.242  -2.985  0.00  0.00    +0.008 A 
ATOM      4  C   UNL     1       4.620  -1.436  -3.716  0.00  0.00    +0.020 A 
ATOM      5  C   UNL     1       4.677  -0.088  -3.434  0.00  0.00    +0.111 A 
ATOM      6  N   UNL     1       3.965   0.481  -2.447  0.00  0.00    -0.248 NA
ENDROOT
BRANCH   1   7
ATOM      7  C   UNL     1       2.516   0.400  -0.584  0.00  0.00    +0.356 C 
ATOM      8  OXT UNL     1       1.712  -0.080   0.203  0.00  0.00    -0.243 OA
BRANCH   7   9
ATOM      9  O   UNL     1       3.044   1.639  -0.461  0.00  0.00    -0.476 OA
ATOM     10  H   UNL     1       3.706   1.770  -1.184  0.00  0.00    +0.295 HD
ENDBRANCH   7   9
ENDBRANCH   1   7
BRANCH   2  11
ATOM     11  C   UNL     1       2.019  -2.647  -1.177  0.00  0.00    +0.164 C 
BRANCH  11  12
ATOM     12  P   UNL     1       2.889  -3.188   0.339  0.00  0.00    +0.332 P 
ATOM     13  O   UNL     1       3.625  -3.646   1.622  0.00  0.00    -0.258 OA
BRANCH  12  14
ATOM     14  O   UNL     1       2.090  -4.618   0.189  0.00  0.00    -0.324 OA
ATOM     15  H   UNL     1       2.183  -5.060   1.059  0.00  0.00    +0.220 HD
ENDBRANCH  12  14
BRANCH  12  16
ATOM     16  O   UNL     1       1.693  -2.431   1.184  0.00  0.00    -0.324 OA
ATOM     17  H   UNL     1       1.634  -1.452   1.047  0.00  0.00    +0.220 HD
ENDBRANCH  12  16
ENDBRANCH  11  12
ENDBRANCH   2  11
TORSDOF 6
