REMARK  Name = 
REMARK  3 active torsions:
REMARK  status: ('A' for Active; 'I' for Inactive)
REMARK    1  A    between atoms: C_1  and  C_2
REMARK    2  A    between atoms: C_5  and  O_6
REMARK    3  A    between atoms: C_7  and  N_9
REMARK                            x       y       z     vdW  Elec       q    Type
REMARK                         _______ _______ _______ _____ _____    ______ ____
ROOT
ATOM      1  C   UNL     1       1.056  -0.076  -0.013  0.00  0.00    +0.044 C 
ATOM      2  C   UNL     1       2.552  -0.090  -0.135  0.00  0.00    -0.044 A 
ATOM      3  C   UNL     1       3.235  -1.309  -0.211  0.00  0.00    +0.091 A 
ATOM      4  C   UNL     1       4.630  -1.309  -0.335  0.00  0.00    +0.314 A 
ATOM      5  C   UNL     1       5.360  -0.121  -0.371  0.00  0.00    +0.195 A 
ATOM      6  C   UNL     1       4.680   1.092  -0.282  0.00  0.00    +0.053 A 
ATOM      7  C   UNL     1       3.284   1.106  -0.165  0.00  0.00    +0.007 A 
ENDROOT
BRANCH   4   8
ATOM      8  N   UNL     1       5.304  -2.587  -0.434  0.00  0.00    +0.083 N 
ATOM      9  O   UNL     1       5.143  -3.378   0.507  0.00  0.00    +0.042 OA
ATOM     10  O   UNL     1       5.930  -2.826  -1.476  0.00  0.00    -0.576 OA
ENDBRANCH   4   8
BRANCH   5  11
ATOM     11  O   UNL     1       6.720  -0.132  -0.465  0.00  0.00    -0.501 OA
ATOM     12  H   UNL     1       7.048   0.775  -0.591  0.00  0.00    +0.292 HD
ENDBRANCH   5  11
TORSDOF 2
