REMARK  Name = 
REMARK  4 active torsions:
REMARK  status: ('A' for Active; 'I' for Inactive)
REMARK    1  A    between atoms: C_1  and  C_2
REMARK    2  A    between atoms: C_2  and  O_4
REMARK    3  A    between atoms: C_2  and  C_5
REMARK    4  A    between atoms: C_5  and  C_6
REMARK                            x       y       z     vdW  Elec       q    Type
REMARK                         _______ _______ _______ _____ _____    ______ ____
ROOT
ATOM      1  C   UNL     1       3.079  -0.175  -1.434  0.00  0.00    +0.046 C 
ATOM      2  C   UNL     1       2.552  -0.070  -0.014  0.00  0.00    +0.177 C 
ENDROOT
BRANCH   2   3
ATOM      3  C   UNL     1       3.065  -1.202   0.878  0.00  0.00    +0.158 C 
ATOM      4  O   UNL     1       3.684  -0.962   1.917  0.00  0.00    -0.295 OA
ATOM      5  C   UNL     1       2.739  -2.621   0.482  0.00  0.00    +0.089 C 
ENDBRANCH   2   3
BRANCH   2   6
ATOM      6  O   UNL     1       2.945   1.198   0.506  0.00  0.00    -0.385 OA
ATOM      7  H   UNL     1       3.140   1.058   1.455  0.00  0.00    +0.210 HD
ENDBRANCH   2   6
TORSDOF 2
