REMARK  Name = 
REMARK  10 active torsions:
REMARK  status: ('A' for Active; 'I' for Inactive)
REMARK    1  A    between atoms: C_1  and  C_2
REMARK    2  A    between atoms: C_2  and  O_3
REMARK    3  A    between atoms: O_3  and  P_4
REMARK    4  A    between atoms: P_4  and  O_5
REMARK    5  A    between atoms: P_4  and  O_6
REMARK    6  A    between atoms: C_9  and  C_11
REMARK    7  A    between atoms: C_11  and  O_12
REMARK    8  A    between atoms: C_13  and  O_15
REMARK    9  A    between atoms: C_16  and  O_18
REMARK   10  A    between atoms: C_19  and  O_21
REMARK                            x       y       z     vdW  Elec       q    Type
REMARK                         _______ _______ _______ _____ _____    ______ ____
ROOT
ATOM      1  C   UNL     1       3.043   0.377   1.245  0.00  0.00    +0.077 C 
ATOM      2  C   UNL     1       2.439   0.026  -0.120  0.00  0.00    +0.207 C 
ATOM      3  C   UNL     1       2.847   1.123  -1.143  0.00  0.00    +0.205 C 
ATOM      4  C   UNL     1       2.419   0.723  -2.562  0.00  0.00    +0.179 C 
ATOM      5  C   UNL     1       2.947  -0.676  -2.898  0.00  0.00    +0.177 C 
ATOM      6  C   UNL     1       2.513  -1.670  -1.818  0.00  0.00    +0.178 C 
ATOM      7  O   UNL     1       2.963  -1.252  -0.513  0.00  0.00    -0.338 OA
ENDROOT
BRANCH   3   8
ATOM      8  O   UNL     1       2.313   2.402  -0.782  0.00  0.00    -0.384 OA
ATOM      9  H   UNL     1       1.361   2.398  -0.996  0.00  0.00    +0.210 HD
ENDBRANCH   3   8
BRANCH   4  10
ATOM     10  O   UNL     1       2.932   1.660  -3.519  0.00  0.00    -0.386 OA
ATOM     11  H   UNL     1       2.892   1.223  -4.393  0.00  0.00    +0.210 HD
ENDBRANCH   4  10
BRANCH   5  12
ATOM     12  O   UNL     1       2.482  -1.055  -4.199  0.00  0.00    -0.386 OA
ATOM     13  H   UNL     1       1.510  -1.140  -4.174  0.00  0.00    +0.210 HD
ENDBRANCH   5  12
BRANCH   2  14
ATOM     14  O   UNL     1       1.016  -0.046  -0.030  0.00  0.00    -0.251 OA
BRANCH  14  15
ATOM     15  P   UNL     1       0.497  -1.227   1.122  0.00  0.00    +0.475 P 
ATOM     16  O   UNL     1       0.031  -2.284   2.153  0.00  0.00    -0.227 OA
BRANCH  15  17
ATOM     17  O   UNL     1      -0.734  -1.520   0.077  0.00  0.00    -0.303 OA
ATOM     18  H   UNL     1      -0.752  -2.473  -0.130  0.00  0.00    +0.222 HD
ENDBRANCH  15  17
BRANCH  15  19
ATOM     19  O   UNL     1      -0.268   0.006   1.872  0.00  0.00    -0.303 OA
ATOM     20  H   UNL     1      -1.224  -0.137   1.751  0.00  0.00    +0.222 HD
ENDBRANCH  15  19
ENDBRANCH  14  15
ENDBRANCH   2  14
BRANCH   6  21
ATOM     21  C   UNL     1       3.067  -3.074  -2.071  0.00  0.00    +0.190 C 
BRANCH  21  22
ATOM     22  O   UNL     1       2.547  -3.957  -1.074  0.00  0.00    -0.392 OA
ATOM     23  H   UNL     1       3.001  -3.723  -0.244  0.00  0.00    +0.210 HD
ENDBRANCH  21  22
ENDBRANCH   6  21
TORSDOF 9
