REMARK  Name = 
REMARK  12 active torsions:
REMARK  status: ('A' for Active; 'I' for Inactive)
REMARK    1  A    between atoms: C_1  and  N_2
REMARK    2  A    between atoms: C_3  and  C_5
REMARK    3  A    between atoms: C_5  and  N_6
REMARK    4  A    between atoms: N_6  and  C_7
REMARK    5  A    between atoms: C_10  and  C_13
REMARK    6  A    between atoms: N_15  and  CA_16
REMARK    7  A    between atoms: CA_16  and  CB_18
REMARK    8  A    between atoms: CA_16  and  C_23
REMARK    9  A    between atoms: CB_18  and  CG_19
REMARK   10  A    between atoms: CG_19  and  CD_20
REMARK   11  A    between atoms: CD_20  and  OE1_21
REMARK   12  A    between atoms: C_23  and  O_24
REMARK                            x       y       z     vdW  Elec       q    Type
REMARK                         _______ _______ _______ _____ _____    ______ ____
ROOT
ATOM      1  C   UNK A   0       4.655   0.553  -3.318  0.00  0.00    +0.027 A 
ATOM      2  C   UNK A   0       4.782  -0.387  -4.341  0.00  0.00    +0.023 A 
ATOM      3  C   UNK A   0       5.100   0.018  -5.644  0.00  0.00    +0.015 A 
ATOM      4  C   UNK A   0       5.303   1.372  -5.926  0.00  0.00    +0.037 A 
ATOM      5  C   UNK A   0       5.296   2.305  -4.889  0.00  0.00    +0.015 A 
ATOM      6  C   UNK A   0       4.994   1.887  -3.596  0.00  0.00    +0.023 A 
ENDROOT
BRANCH   4   7
ATOM      7  C   UNK A   0       5.546   1.802  -7.324  0.00  0.00    +0.245 C 
ATOM      8  N   GLU A   1       5.029   3.041  -7.667  0.00  0.00    -0.298 N 
ATOM      9  H   GLU A   1       4.308   3.432  -7.066  0.00  0.00    +0.150 HD
ATOM     10  O   UNK A   0       6.182   1.104  -8.100  0.00  0.00    -0.270 OA
BRANCH   8  11
ATOM     11  CA  GLU A   1       5.114   3.546  -9.053  0.00  0.00    +0.182 C 
BRANCH  11  12
ATOM     12  C   GLU A   1       6.461   4.277  -9.267  0.00  0.00    +0.325 C 
ATOM     13  OXT GLU A   1       6.817   4.771 -10.326  0.00  0.00    -0.249 OA
BRANCH  12  14
ATOM     14  O   GLU A   1       7.213   4.383  -8.146  0.00  0.00    -0.479 OA
ATOM     15  H   GLU A   1       6.798   3.857  -7.434  0.00  0.00    +0.295 HD
ENDBRANCH  12  14
ENDBRANCH  11  12
BRANCH  11  16
ATOM     16  CB  GLU A   1       3.919   4.471  -9.348  0.00  0.00    +0.045 C 
BRANCH  16  17
ATOM     17  CG  GLU A   1       3.887   4.990 -10.790  0.00  0.00    +0.123 C 
BRANCH  17  18
ATOM     18  CD  GLU A   1       2.681   5.855 -11.063  0.00  0.00    +0.305 C 
ATOM     19  OE2 GLU A   1       1.613   5.759 -10.483  0.00  0.00    -0.251 OA
BRANCH  18  20
ATOM     20  OE1 GLU A   1       2.895   6.749 -12.058  0.00  0.00    -0.481 OA
ATOM     21  HE1 GLU A   1       3.797   6.725 -12.432  0.00  0.00    +0.295 HD
ENDBRANCH  18  20
ENDBRANCH  17  18
ENDBRANCH  16  17
ENDBRANCH  11  16
ENDBRANCH   8  11
ENDBRANCH   4   7
BRANCH   1  22
ATOM     22  N   UNK A   0       4.349   0.236  -2.000  0.00  0.00    -0.342 N 
ATOM     23  H   UNK A   0       4.007   1.077  -1.534  0.00  0.00    +0.146 HD
BRANCH  22  24
ATOM     24  C   UNK A   0       3.448  -0.870  -1.645  0.00  0.00    +0.125 C 
BRANCH  24  41
ATOM     25  C   UNK A   0       1.110   0.383   0.531  0.00  0.00    +0.130 C 
ATOM     26  N   UNK A   0       2.559   0.336   0.415  0.00  0.00    -0.320 N 
ATOM     27  C   UNK A   0       3.412   1.425   0.740  0.00  0.00    +0.135 A 
ATOM     28  C   UNK A   0       2.895   2.873   0.786  0.00  0.00    +0.298 A 
ATOM     29  N   UNK A   0       3.813   3.898   0.634  0.00  0.00    -0.176 NA
ATOM     30  C   UNK A   0       5.065   3.607   0.712  0.00  0.00    +0.195 A 
ATOM     31  N   UNK A   0       5.562   2.367   0.915  0.00  0.00    -0.315 N 
ATOM     32  H   UNK A   0       6.537   2.188   0.731  0.00  0.00    +0.170 HD
ATOM     33  N   UNK A   0       6.019   4.558   0.559  0.00  0.00    -0.329 N 
ATOM     34  H   UNK A   0       6.802   4.477   1.196  0.00  0.00    +0.145 HD
ATOM     35  H   UNK A   0       5.610   5.488   0.600  0.00  0.00    +0.145 HD
ATOM     36  O   UNK A   0       1.692   3.105   0.870  0.00  0.00    -0.264 OA
ATOM     37  C   UNK A   0       4.758   1.264   0.861  0.00  0.00    +0.126 A 
ATOM     38  N   UNK A   0       5.352  -0.002   0.779  0.00  0.00    -0.327 N 
ATOM     39  H   UNK A   0       5.999   0.002  -0.011  0.00  0.00    +0.148 HD
ATOM     40  C   UNK A   0       4.481  -1.196   0.702  0.00  0.00    +0.126 C 
ATOM     41  C   UNK A   0       3.181  -0.924  -0.100  0.00  0.00    +0.107 C 
ENDBRANCH  24  41
ENDBRANCH  22  24
ENDBRANCH   1  22
TORSDOF 11
