REMARK  Name = 
REMARK  51 active torsions:
REMARK  status: ('A' for Active; 'I' for Inactive)
REMARK    1  A    between atoms: C_1  and  C_2
REMARK    2  A    between atoms: C_2  and  C_3
REMARK    3  A    between atoms: C_3  and  C_4
REMARK    4  A    between atoms: C_4  and  C_5
REMARK    5  A    between atoms: C_5  and  C_6
REMARK    6  A    between atoms: C_6  and  C_7
REMARK    7  A    between atoms: C_7  and  C_8
REMARK    8  A    between atoms: C_8  and  C_9
REMARK    9  A    between atoms: C_9  and  C_10
REMARK   10  A    between atoms: C_10  and  C_11
REMARK   11  A    between atoms: C_11  and  C_12
REMARK   12  A    between atoms: C_12  and  C_13
REMARK   13  A    between atoms: C_13  and  C_14
REMARK   14  A    between atoms: C_14  and  C_15
REMARK   15  A    between atoms: C_15  and  C_16
REMARK   16  A    between atoms: C_16  and  C_17
REMARK   17  A    between atoms: C_17  and  C_18
REMARK   18  A    between atoms: C_18  and  C_19
REMARK   19  A    between atoms: C_19  and  C_20
REMARK   20  A    between atoms: C_20  and  C_21
REMARK   21  A    between atoms: C_21  and  C_22
REMARK   22  A    between atoms: C_22  and  C_23
REMARK   23  A    between atoms: C_23  and  O_25
REMARK   24  A    between atoms: C_23  and  C_26
REMARK   25  A    between atoms: N_28  and  C_29
REMARK   26  A    between atoms: C_29  and  C_31
REMARK   27  A    between atoms: C_29  and  C_53
REMARK   28  A    between atoms: C_31  and  O_32
REMARK   29  A    between atoms: O_32  and  C_33
REMARK   30  A    between atoms: C_36  and  C_38
REMARK   31  A    between atoms: C_38  and  O_39
REMARK   32  A    between atoms: C_40  and  O_42
REMARK   33  A    between atoms: C_43  and  O_45
REMARK   34  A    between atoms: O_45  and  S_46
REMARK   35  A    between atoms: S_46  and  O_47
REMARK   36  A    between atoms: C_50  and  O_52
REMARK   37  A    between atoms: C_53  and  O_55
REMARK   38  A    between atoms: C_53  and  C_56
REMARK   39  A    between atoms: C_57  and  C_58
REMARK   40  A    between atoms: C_58  and  C_59
REMARK   41  A    between atoms: C_59  and  C_60
REMARK   42  A    between atoms: C_60  and  C_61
REMARK   43  A    between atoms: C_61  and  C_62
REMARK   44  A    between atoms: C_62  and  C_63
REMARK   45  A    between atoms: C_63  and  C_64
REMARK   46  A    between atoms: C_64  and  C_65
REMARK   47  A    between atoms: C_65  and  C_66
REMARK   48  A    between atoms: C_66  and  C_67
REMARK   49  A    between atoms: C_67  and  C_68
REMARK   50  A    between atoms: C_68  and  C_69
REMARK   51  A    between atoms: C_69  and  C_70
REMARK                            x       y       z     vdW  Elec       q    Type
REMARK                         _______ _______ _______ _____ _____    ______ ____
ROOT
ATOM      1  C   UNL     1      30.935  10.746  11.726  0.00  0.00    +0.131 C 
ENDROOT
BRANCH   1   3
ATOM      2  C   UNL     1      28.925   9.267  11.899  0.00  0.00    +0.242 C 
ATOM      3  N   UNL     1      29.966   9.794  11.171  0.00  0.00    -0.305 N 
ATOM      4  H   UNL     1      29.996   9.528  10.189  0.00  0.00    +0.149 HD
ATOM      5  O   UNL     1      28.728   9.521  13.083  0.00  0.00    -0.273 OA
BRANCH   2   6
ATOM      6  C   UNL     1      28.068   8.279  11.084  0.00  0.00    +0.200 C 
BRANCH   6   7
ATOM      7  O   UNL     1      28.275   8.501   9.681  0.00  0.00    -0.383 OA
ATOM      8  H   UNL     1      27.506   8.159   9.189  0.00  0.00    +0.210 HD
ENDBRANCH   6   7
BRANCH   6   9
ATOM      9  C   UNL     1      26.601   8.430  11.488  0.00  0.00    +0.041 C 
BRANCH   9  10
ATOM     10  C   UNL     1      25.676   7.439  10.790  0.00  0.00    +0.003 C 
BRANCH  10  11
ATOM     11  C   UNL     1      24.245   7.600  11.288  0.00  0.00    +0.000 C 
BRANCH  11  12
ATOM     12  C   UNL     1      23.329   6.630  10.558  0.00  0.00    +0.000 C 
BRANCH  12  13
ATOM     13  C   UNL     1      21.892   6.790  11.024  0.00  0.00    +0.000 C 
BRANCH  13  14
ATOM     14  C   UNL     1      21.000   5.809  10.281  0.00  0.00    -0.000 C 
BRANCH  14  15
ATOM     15  C   UNL     1      19.559   5.956  10.734  0.00  0.00    -0.000 C 
BRANCH  15  16
ATOM     16  C   UNL     1      18.678   4.970   9.987  0.00  0.00    -0.000 C 
BRANCH  16  17
ATOM     17  C   UNL     1      17.236   5.116  10.438  0.00  0.00    -0.000 C 
BRANCH  17  18
ATOM     18  C   UNL     1      16.354   4.129   9.693  0.00  0.00    -0.000 C 
BRANCH  18  19
ATOM     19  C   UNL     1      14.912   4.276  10.145  0.00  0.00    -0.000 C 
BRANCH  19  20
ATOM     20  C   UNL     1      14.028   3.290   9.402  0.00  0.00    -0.000 C 
BRANCH  20  21
ATOM     21  C   UNL     1      12.586   3.438   9.855  0.00  0.00    -0.000 C 
BRANCH  21  22
ATOM     22  C   UNL     1      11.698   2.452   9.113  0.00  0.00    -0.000 C 
BRANCH  22  23
ATOM     23  C   UNL     1      10.255   2.599   9.568  0.00  0.00    -0.000 C 
BRANCH  23  24
ATOM     24  C   UNL     1       9.364   1.613   8.828  0.00  0.00    -0.000 C 
BRANCH  24  25
ATOM     25  C   UNL     1       7.918   1.759   9.281  0.00  0.00    -0.000 C 
BRANCH  25  26
ATOM     26  C   UNL     1       7.025   0.773   8.540  0.00  0.00    -0.000 C 
BRANCH  26  27
ATOM     27  C   UNL     1       5.575   0.914   8.991  0.00  0.00    -0.000 C 
BRANCH  27  28
ATOM     28  C   UNL     1       4.682  -0.073   8.246  0.00  0.00    -0.000 C 
BRANCH  28  30
ATOM     29  C   UNL     1       2.339  -0.922   7.948  0.00  0.00    +0.004 C 
ATOM     30  C   UNL     1       3.229   0.060   8.690  0.00  0.00    -0.003 C 
ENDBRANCH  28  30
ENDBRANCH  27  28
ENDBRANCH  26  27
ENDBRANCH  25  26
ENDBRANCH  24  25
ENDBRANCH  23  24
ENDBRANCH  22  23
ENDBRANCH  21  22
ENDBRANCH  20  21
ENDBRANCH  19  20
ENDBRANCH  18  19
ENDBRANCH  17  18
ENDBRANCH  16  17
ENDBRANCH  15  16
ENDBRANCH  14  15
ENDBRANCH  13  14
ENDBRANCH  12  13
ENDBRANCH  11  12
ENDBRANCH  10  11
ENDBRANCH   9  10
ENDBRANCH   6   9
ENDBRANCH   2   6
ENDBRANCH   1   3
BRANCH   1  31
ATOM     31  C   UNL     1      32.048   9.975  12.472  0.00  0.00    +0.188 C 
BRANCH  31  32
ATOM     32  O   UNL     1      32.967  10.852  13.119  0.00  0.00    -0.347 OA
BRANCH  32  33
ATOM     33  C   UNL     1      33.997  10.162  13.828  0.00  0.00    +0.282 C 
ATOM     34  C   UNL     1      35.011  11.220  14.344  0.00  0.00    +0.204 C 
ATOM     35  C   UNL     1      36.012  10.611  15.340  0.00  0.00    +0.216 C 
ATOM     36  C   UNL     1      35.312   9.713  16.363  0.00  0.00    +0.179 C 
ATOM     37  C   UNL     1      34.419   8.699  15.640  0.00  0.00    +0.178 C 
ATOM     38  O   UNL     1      33.425   9.385  14.872  0.00  0.00    -0.341 OA
BRANCH  36  39
ATOM     39  O   UNL     1      34.545  10.548  17.240  0.00  0.00    -0.386 OA
ATOM     40  H   UNL     1      34.371  10.060  18.064  0.00  0.00    +0.210 HD
ENDBRANCH  36  39
BRANCH  34  41
ATOM     41  O   UNL     1      35.787  11.783  13.264  0.00  0.00    -0.384 OA
ATOM     42  H   UNL     1      35.419  11.466  12.421  0.00  0.00    +0.210 HD
ENDBRANCH  34  41
BRANCH  35  43
ATOM     43  O   UNL     1      36.709  11.680  15.992  0.00  0.00    -0.207 OA
BRANCH  43  44
ATOM     44  S   UNL     1      38.022  11.338  16.872  0.00  0.00    +0.208 S 
ATOM     45  O   UNL     1      39.005  10.711  16.015  0.00  0.00    -0.118 OA
ATOM     46  O   UNL     1      37.598  10.722  18.107  0.00  0.00    -0.118 OA
BRANCH  44  47
ATOM     47  O   UNL     1      38.562  12.799  17.275  0.00  0.00    -0.231 OA
ATOM     48  H   UNL     1      37.937  13.163  17.949  0.00  0.00    +0.247 HD
ENDBRANCH  44  47
ENDBRANCH  43  44
ENDBRANCH  35  43
BRANCH  37  49
ATOM     49  C   UNL     1      33.699   7.780  16.628  0.00  0.00    +0.190 C 
BRANCH  49  50
ATOM     50  O   UNL     1      32.923   6.823  15.912  0.00  0.00    -0.392 OA
ATOM     51  H   UNL     1      32.271   7.346  15.405  0.00  0.00    +0.210 HD
ENDBRANCH  49  50
ENDBRANCH  37  49
ENDBRANCH  32  33
ENDBRANCH  31  32
ENDBRANCH   1  31
BRANCH   1  52
ATOM     52  C   UNL     1      31.499  11.687  10.622  0.00  0.00    +0.159 C 
BRANCH  52  53
ATOM     53  C   UNL     1      30.416  12.428   9.880  0.00  0.00    +0.002 C 
ATOM     54  C   UNL     1      30.472  12.720   8.570  0.00  0.00    -0.028 C 
BRANCH  54  55
ATOM     55  C   UNL     1      29.431  13.535   7.862  0.00  0.00    +0.027 C 
BRANCH  55  56
ATOM     56  C   UNL     1      28.810  12.753   6.709  0.00  0.00    +0.004 C 
BRANCH  56  57
ATOM     57  C   UNL     1      27.750  13.593   6.001  0.00  0.00    +0.000 C 
BRANCH  57  58
ATOM     58  C   UNL     1      27.124  12.821   4.845  0.00  0.00    +0.000 C 
BRANCH  58  59
ATOM     59  C   UNL     1      26.061  13.661   4.145  0.00  0.00    +0.000 C 
BRANCH  59  60
ATOM     60  C   UNL     1      25.435  12.888   2.989  0.00  0.00    +0.000 C 
BRANCH  60  61
ATOM     61  C   UNL     1      24.372  13.727   2.288  0.00  0.00    -0.000 C 
BRANCH  61  62
ATOM     62  C   UNL     1      23.745  12.953   1.133  0.00  0.00    -0.000 C 
BRANCH  62  63
ATOM     63  C   UNL     1      22.682  13.791   0.431  0.00  0.00    -0.000 C 
BRANCH  63  64
ATOM     64  C   UNL     1      22.053  13.020  -0.726  0.00  0.00    -0.000 C 
BRANCH  64  65
ATOM     65  C   UNL     1      20.989  13.861  -1.426  0.00  0.00    -0.000 C 
BRANCH  65  66
ATOM     66  C   UNL     1      20.354  13.095  -2.584  0.00  0.00    -0.003 C 
ATOM     67  C   UNL     1      19.294  13.932  -3.280  0.00  0.00    +0.004 C 
ENDBRANCH  65  66
ENDBRANCH  64  65
ENDBRANCH  63  64
ENDBRANCH  62  63
ENDBRANCH  61  62
ENDBRANCH  60  61
ENDBRANCH  59  60
ENDBRANCH  58  59
ENDBRANCH  57  58
ENDBRANCH  56  57
ENDBRANCH  55  56
ENDBRANCH  54  55
ENDBRANCH  52  53
BRANCH  52  68
ATOM     68  O   UNL     1      32.354  12.685  11.169  0.00  0.00    -0.386 OA
ATOM     69  H   UNL     1      32.424  13.405  10.520  0.00  0.00    +0.210 HD
ENDBRANCH  52  68
ENDBRANCH   1  52
TORSDOF 49
