REMARK  Name = 
REMARK  17 active torsions:
REMARK  status: ('A' for Active; 'I' for Inactive)
REMARK    1  A    between atoms: N_8  and  C_9
REMARK    2  A    between atoms: C_12  and  C_14
REMARK    3  A    between atoms: C_14  and  O_15
REMARK    4  A    between atoms: O_15  and  P_16
REMARK    5  A    between atoms: P_16  and  O_17
REMARK    6  A    between atoms: P_16  and  O_19
REMARK    7  A    between atoms: O_19  and  P_20
REMARK    8  A    between atoms: P_20  and  O_21
REMARK    9  A    between atoms: P_20  and  O_23
REMARK   10  A    between atoms: O_23  and  C_24
REMARK   11  A    between atoms: C_27  and  C_38
REMARK   12  A    between atoms: C_29  and  O_31
REMARK   13  A    between atoms: C_32  and  O_34
REMARK   14  A    between atoms: C_35  and  O_37
REMARK   15  A    between atoms: C_38  and  O_39
REMARK   16  A    between atoms: C_41  and  O_43
REMARK   17  A    between atoms: C_44  and  O_46
REMARK                            x       y       z     vdW  Elec       q    Type
REMARK                         _______ _______ _______ _____ _____    ______ ____
ROOT
ATOM      1  P   UNL     1       8.326  -8.523   0.236  0.00  0.00    +0.483 P 
ATOM      2  O   UNL     1       8.364  -9.600   1.326  0.00  0.00    -0.227 OA
ENDROOT
BRANCH   1   3
ATOM      3  O   UNL     1       7.231  -7.645   1.247  0.00  0.00    -0.302 OA
ATOM      4  H   UNL     1       7.429  -8.022   2.130  0.00  0.00    +0.222 HD
ENDBRANCH   1   3
BRANCH   1   5
ATOM      5  O   UNL     1       9.422  -9.401  -0.776  0.00  0.00    -0.186 OA
BRANCH   5   6
ATOM      6  P   UNL     1       8.540 -10.169  -2.050  0.00  0.00    +0.486 P 
ATOM      7  O   UNL     1       7.318  -9.402  -1.630  0.00  0.00    -0.227 OA
BRANCH   6   8
ATOM      8  O   UNL     1       8.759 -11.592  -1.316  0.00  0.00    -0.302 OA
ATOM      9  H   UNL     1       9.637 -11.980  -1.491  0.00  0.00    +0.222 HD
ENDBRANCH   6   8
BRANCH   6  10
ATOM     10  O   UNL     1       7.658 -10.937  -3.325  0.00  0.00    -0.254 OA
BRANCH  10  11
ATOM     11  C   UNL     1       6.340 -10.398  -3.654  0.00  0.00    +0.294 C 
ATOM     12  C   UNL     1       5.171 -10.235  -2.598  0.00  0.00    +0.202 C 
ATOM     13  C   UNL     1       4.718 -11.605  -2.096  0.00  0.00    +0.179 C 
ATOM     14  C   UNL     1       4.164 -12.399  -3.266  0.00  0.00    +0.185 C 
ATOM     15  C   UNL     1       5.167 -12.400  -4.446  0.00  0.00    +0.260 C 
ATOM     16  O   UNL     1       5.820 -11.160  -4.775  0.00  0.00    -0.331 OA
BRANCH  15  17
ATOM     17  C   UNL     1       6.170 -13.548  -4.286  0.00  0.00    +0.337 C 
ATOM     18  O   UNL     1       5.898 -14.650  -3.832  0.00  0.00    -0.248 OA
BRANCH  17  19
ATOM     19  O   UNL     1       7.395 -13.245  -4.780  0.00  0.00    -0.479 OA
ATOM     20  H   UNL     1       7.414 -12.284  -4.991  0.00  0.00    +0.295 HD
ENDBRANCH  17  19
ENDBRANCH  15  17
BRANCH  14  21
ATOM     21  O   UNL     1       2.871 -11.868  -3.597  0.00  0.00    -0.386 OA
ATOM     22  H   UNL     1       2.747 -11.879  -4.561  0.00  0.00    +0.210 HD
ENDBRANCH  14  21
BRANCH  13  23
ATOM     23  O   UNL     1       5.815 -12.280  -1.490  0.00  0.00    -0.386 OA
ATOM     24  H   UNL     1       5.555 -13.189  -1.256  0.00  0.00    +0.210 HD
ENDBRANCH  13  23
BRANCH  12  25
ATOM     25  O   UNL     1       4.103  -9.480  -3.210  0.00  0.00    -0.384 OA
ATOM     26  H   UNL     1       3.397  -9.397  -2.542  0.00  0.00    +0.210 HD
ENDBRANCH  12  25
ENDBRANCH  10  11
ENDBRANCH   6  10
ENDBRANCH   5   6
ENDBRANCH   1   5
BRANCH   1  27
ATOM     27  O   UNL     1       9.520  -7.480   0.665  0.00  0.00    -0.284 OA
BRANCH  27  28
ATOM     28  C   UNL     1       9.638  -6.308  -0.111  0.00  0.00    +0.206 C 
BRANCH  28  32
ATOM     29  C   UNL     1      12.111  -3.662   0.247  0.00  0.00    +0.253 C 
ATOM     30  C   UNL     1      12.931  -4.862   0.758  0.00  0.00    +0.195 C 
ATOM     31  C   UNL     1      11.902  -5.964   1.012  0.00  0.00    +0.178 C 
ATOM     32  C   UNL     1      10.574  -5.339   0.593  0.00  0.00    +0.178 C 
ATOM     33  O   UNL     1      10.890  -4.243  -0.278  0.00  0.00    -0.346 OA
BRANCH  29  45
ATOM     34  N   UNL     1      15.885  -1.879   3.406  0.00  0.00    -0.329 N 
ATOM     35  H   UNL     1      16.402  -1.199   3.940  0.00  0.00    +0.145 HD
ATOM     36  H   UNL     1      16.383  -2.283   2.617  0.00  0.00    +0.145 HD
ATOM     37  C   UNL     1      14.560  -1.693   3.178  0.00  0.00    +0.195 A 
ATOM     38  N   UNL     1      13.889  -0.885   4.070  0.00  0.00    -0.293 N 
ATOM     39  H   UNL     1      14.369  -0.477   4.848  0.00  0.00    +0.172 HD
ATOM     40  C   UNL     1      12.532  -0.596   4.012  0.00  0.00    +0.280 A 
ATOM     41  O   UNL     1      11.990   0.138   4.831  0.00  0.00    -0.265 OA
ATOM     42  C   UNL     1      11.879  -1.259   2.903  0.00  0.00    +0.172 A 
ATOM     43  N   UNL     1      10.567  -1.277   2.517  0.00  0.00    -0.229 NA
ATOM     44  C   UNL     1      10.543  -2.105   1.492  0.00  0.00    +0.203 A 
ATOM     45  N   UNL     1      11.776  -2.648   1.237  0.00  0.00    -0.285 N 
ATOM     46  C   UNL     1      12.660  -2.049   2.089  0.00  0.00    +0.171 A 
ATOM     47  N   UNL     1      13.991  -2.264   2.164  0.00  0.00    -0.196 NA
ENDBRANCH  29  45
BRANCH  31  48
ATOM     48  O   UNL     1      11.876  -6.338   2.387  0.00  0.00    -0.386 OA
ATOM     49  H   UNL     1      11.190  -7.027   2.486  0.00  0.00    +0.210 HD
ENDBRANCH  31  48
BRANCH  30  50
ATOM     50  O   UNL     1      13.855  -5.305  -0.261  0.00  0.00    -0.385 OA
ATOM     51  H   UNL     1      13.349  -5.524  -1.062  0.00  0.00    +0.210 HD
ENDBRANCH  30  50
ENDBRANCH  28  32
ENDBRANCH  27  28
ENDBRANCH   1  27
TORSDOF 17
