REMARK  Name = 
REMARK  5 active torsions:
REMARK  status: ('A' for Active; 'I' for Inactive)
REMARK    1  A    between atoms: C_1  and  C_2
REMARK    2  A    between atoms: C_3  and  N_4
REMARK    3  A    between atoms: C_9  and  C_10
REMARK    4  A    between atoms: C_10  and  O_11
REMARK    5  A    between atoms: C_12  and  N_13
REMARK                            x       y       z     vdW  Elec       q    Type
REMARK                         _______ _______ _______ _____ _____    ______ ____
ROOT
ATOM      1  C   UNL     1       1.083  -0.195   0.084  0.00  0.00    +0.050 C 
ATOM      2  C   UNL     1       2.565   0.034  -0.031  0.00  0.00    +0.023 C 
ATOM      3  C   UNL     1       3.361  -1.203  -0.225  0.00  0.00    +0.205 C 
ATOM      4  O   UNL     1       2.789  -2.286  -0.322  0.00  0.00    -0.286 OA
ATOM      5  C   UNL     1       4.860  -1.094  -0.259  0.00  0.00    +0.087 C 
ATOM      6  C   UNL     1       5.417   0.116  -0.459  0.00  0.00    +0.051 C 
ATOM      7  C   UNL     1       4.610   1.353  -0.326  0.00  0.00    +0.207 C 
ATOM      8  O   UNL     1       5.160   2.446  -0.469  0.00  0.00    -0.285 OA
ATOM      9  C   UNL     1       3.152   1.243   0.039  0.00  0.00    +0.084 C 
ENDROOT
BRANCH   5  10
ATOM     10  N   UNL     1       5.608  -2.275  -0.183  0.00  0.00    -0.324 N 
ATOM     11  C   UNL     1       5.249  -3.298   0.800  0.00  0.00    +0.124 C 
ATOM     12  C   UNL     1       6.478  -2.449   0.985  0.00  0.00    +0.124 C 
ENDBRANCH   5  10
BRANCH   9  13
ATOM     13  N   UNL     1       2.451   2.420   0.318  0.00  0.00    -0.324 N 
ATOM     14  C   UNL     1       3.040   3.436   1.189  0.00  0.00    +0.124 C 
ATOM     15  C   UNL     1       1.905   2.576   1.669  0.00  0.00    +0.124 C 
ENDBRANCH   9  13
BRANCH   6  16
ATOM     16  C   UNL     1       6.886   0.281  -0.758  0.00  0.00    +0.197 C 
BRANCH  16  17
ATOM     17  O   UNL     1       7.172   1.364  -1.637  0.00  0.00    -0.390 OA
ATOM     18  H   UNL     1       6.688   2.147  -1.297  0.00  0.00    +0.210 HD
ENDBRANCH  16  17
ENDBRANCH   6  16
TORSDOF 4
