REMARK  Name = 
REMARK  15 active torsions:
REMARK  status: ('A' for Active; 'I' for Inactive)
REMARK    1  A    between atoms: N_1  and  C_2
REMARK    2  A    between atoms: C_2  and  C_4
REMARK    3  A    between atoms: C_2  and  C_28
REMARK    4  A    between atoms: C_4  and  C_5
REMARK    5  A    between atoms: C_5  and  C_6
REMARK    6  A    between atoms: N_8  and  C_9
REMARK    7  A    between atoms: C_9  and  C_11
REMARK    8  A    between atoms: C_9  and  C_21
REMARK    9  A    between atoms: C_11  and  S_12
REMARK   10  A    between atoms: S_12  and  C_13
REMARK   11  A    between atoms: C_13  and  C_14
REMARK   12  A    between atoms: N_23  and  CA_24
REMARK   13  A    between atoms: CA_24  and  C_25
REMARK   14  A    between atoms: C_25  and  O_26
REMARK   15  A    between atoms: C_28  and  O_29
REMARK                            x       y       z     vdW  Elec       q    Type
REMARK                         _______ _______ _______ _____ _____    ______ ____
ROOT
ATOM      1  C   UNK A   1       3.132  -0.186  -6.249  0.00  0.00    +0.169 C 
ENDROOT
BRANCH   1   3
ATOM      2  C   UNK A   1       1.666   1.711  -5.583  0.00  0.00    +0.214 C 
ATOM      3  N   UNK A   1       2.593   1.161  -6.433  0.00  0.00    -0.303 N 
ATOM      4  H   UNK A   1       2.834   1.654  -7.287  0.00  0.00    +0.149 HD
ATOM      5  O   UNK A   1       1.191   1.112  -4.624  0.00  0.00    -0.276 OA
BRANCH   2   6
ATOM      6  C   UNK A   1       1.269   3.128  -5.933  0.00  0.00    +0.098 C 
BRANCH   6   7
ATOM      7  C   UNK A   1       0.039   3.152  -6.840  0.00  0.00    +0.039 C 
BRANCH   7   8
ATOM      8  C   UNK A   1      -0.423   4.570  -7.202  0.00  0.00    +0.161 C 
BRANCH   8   9
ATOM      9  N   UNK A   1      -1.693   4.501  -7.997  0.00  0.00    -0.318 NA
ATOM     10  H   UNK A   1      -1.686   3.639  -8.554  0.00  0.00    +0.119 HD
ATOM     11  H   UNK A   1      -2.464   4.357  -7.337  0.00  0.00    +0.119 HD
ENDBRANCH   8   9
BRANCH   8  12
ATOM     12  C   UNK A   1       0.617   5.343  -8.044  0.00  0.00    +0.322 C 
ATOM     13  O   UNK A   1       1.782   5.537  -7.736  0.00  0.00    -0.249 OA
BRANCH  12  14
ATOM     14  O   UNK A   1       0.070   5.813  -9.195  0.00  0.00    -0.480 OA
ATOM     15  H   UNK A   1      -0.886   5.556  -9.156  0.00  0.00    +0.295 HD
ENDBRANCH  12  14
ENDBRANCH   8  12
ENDBRANCH   7   8
ENDBRANCH   6   7
ENDBRANCH   2   6
ENDBRANCH   1   3
BRANCH   1  16
ATOM     16  C   UNK A   1       2.668  -1.089  -7.412  0.00  0.00    +0.235 C 
ATOM     17  N   GLY A   2       2.987  -2.431  -7.288  0.00  0.00    -0.303 N 
ATOM     18  H   GLY A   2       3.710  -2.717  -6.637  0.00  0.00    +0.149 HD
ATOM     19  O   UNK A   1       1.994  -0.675  -8.352  0.00  0.00    -0.274 OA
BRANCH  17  20
ATOM     20  CA  GLY A   2       2.663  -3.382  -8.357  0.00  0.00    +0.224 C 
BRANCH  20  21
ATOM     21  C   GLY A   2       1.325  -4.096  -8.163  0.00  0.00    +0.322 C 
ATOM     22  OXT GLY A   2       0.890  -4.940  -8.932  0.00  0.00    -0.249 OA
BRANCH  21  23
ATOM     23  O   GLY A   2       0.681  -3.755  -7.022  0.00  0.00    -0.480 OA
ATOM     24  H   GLY A   2       1.156  -3.034  -6.565  0.00  0.00    +0.295 HD
ENDBRANCH  21  23
ENDBRANCH  20  21
ENDBRANCH  17  20
ENDBRANCH   1  16
BRANCH   1  25
ATOM     25  C   UNK A   1       4.663  -0.163  -6.132  0.00  0.00    +0.101 C 
BRANCH  25  26
ATOM     26  S   UNK A   1       5.312   0.913  -4.795  0.00  0.00    -0.154 S 
BRANCH  26  27
ATOM     27  C   UNK A   1       4.490   0.159  -3.355  0.00  0.00    +0.104 C 
BRANCH  27  28
ATOM     28  C   UNK A   1       4.760   0.931  -2.092  0.00  0.00    -0.037 A 
ATOM     29  C   UNK A   1       5.882   0.641  -1.304  0.00  0.00    +0.018 A 
ATOM     30  C   UNK A   1       6.114   1.357  -0.129  0.00  0.00    +0.014 A 
ATOM     31  I   UNK A   1       7.776   0.909   1.036  0.00  0.00    -0.044 I 
ATOM     32  C   UNK A   1       5.238   2.367   0.269  0.00  0.00    +0.014 A 
ATOM     33  C   UNK A   1       4.125   2.667  -0.516  0.00  0.00    +0.001 A 
ATOM     34  C   UNK A   1       3.888   1.956  -1.691  0.00  0.00    +0.004 A 
ENDBRANCH  27  28
ENDBRANCH  26  27
ENDBRANCH  25  26
ENDBRANCH   1  25
TORSDOF 15
