REMARK  Name = 
REMARK  11 active torsions:
REMARK  status: ('A' for Active; 'I' for Inactive)
REMARK    1  A    between atoms: C_1  and  O_2
REMARK    2  A    between atoms: O_2  and  C_3
REMARK    3  A    between atoms: C_15  and  C_16
REMARK    4  A    between atoms: N_18  and  C_19
REMARK    5  A    between atoms: C_22  and  C_23
REMARK    6  A    between atoms: C_23  and  C_24
REMARK    7  A    between atoms: C_24  and  N_25
REMARK    8  A    between atoms: C_30  and  O_31
REMARK    9  A    between atoms: O_31  and  C_32
REMARK   10  A    between atoms: C_33  and  O_34
REMARK   11  A    between atoms: O_34  and  C_35
REMARK                            x       y       z     vdW  Elec       q    Type
REMARK                         _______ _______ _______ _____ _____    ______ ____
ROOT
ATOM      1  C   UNL     1       0.764  -6.937  -0.966  0.00  0.00    +0.250 C 
ATOM      2  N   UNL     1       0.527  -5.684  -1.513  0.00  0.00    -0.281 N 
ATOM      3  H   UNL     1       0.878  -4.866  -1.029  0.00  0.00    +0.155 HD
ATOM      4  O   UNL     1       0.419  -8.009  -1.452  0.00  0.00    -0.270 OA
ENDROOT
BRANCH   1  10
ATOM      5  C   UNL     1       3.341 -11.385  -1.110  0.00  0.00    +0.144 A 
ATOM      6  C   UNL     1       3.227 -10.367  -0.143  0.00  0.00    +0.093 A 
ATOM      7  N   UNL     1       2.530  -9.171  -0.394  0.00  0.00    -0.351 N 
ATOM      8  H   UNL     1       1.861  -9.203  -1.171  0.00  0.00    +0.166 HD
ATOM      9  C   UNL     1       2.298  -8.169   0.577  0.00  0.00    +0.063 A 
ATOM     10  C   UNL     1       1.516  -7.016   0.316  0.00  0.00    +0.061 A 
ATOM     11  C   UNL     1       1.366  -6.023   1.298  0.00  0.00    +0.015 A 
ATOM     12  C   UNL     1       2.000  -6.159   2.536  0.00  0.00    +0.002 A 
ATOM     13  C   UNL     1       2.785  -7.280   2.798  0.00  0.00    +0.014 A 
ATOM     14  C   UNL     1       2.941  -8.270   1.820  0.00  0.00    +0.046 A 
ATOM     15  C   UNL     1       3.774  -9.464   2.108  0.00  0.00    +0.197 A 
ATOM     16  O   UNL     1       4.342  -9.577   3.190  0.00  0.00    -0.287 OA
ATOM     17  C   UNL     1       3.901 -10.523   1.079  0.00  0.00    +0.049 A 
ATOM     18  C   UNL     1       4.667 -11.662   1.344  0.00  0.00    +0.014 A 
ATOM     19  C   UNL     1       4.796 -12.648   0.372  0.00  0.00    +0.004 A 
ATOM     20  C   UNL     1       4.143 -12.506  -0.853  0.00  0.00    +0.048 A 
BRANCH   5  22
ATOM     21  C   UNL     1       2.210 -12.412  -2.910  0.00  0.00    +0.277 C 
ATOM     22  O   UNL     1       2.667 -11.206  -2.296  0.00  0.00    -0.493 OA
ENDBRANCH   5  22
ENDBRANCH   1  10
BRANCH   2  23
ATOM     23  C   UNL     1      -0.053  -5.446  -2.786  0.00  0.00    +0.034 A 
ATOM     24  C   UNL     1      -0.168  -4.128  -3.248  0.00  0.00    +0.023 A 
ATOM     25  C   UNL     1      -0.651  -3.863  -4.541  0.00  0.00    +0.005 A 
ATOM     26  C   UNL     1      -1.021  -4.911  -5.392  0.00  0.00    -0.046 A 
ATOM     27  C   UNL     1      -0.932  -6.219  -4.915  0.00  0.00    +0.005 A 
ATOM     28  C   UNL     1      -0.472  -6.477  -3.626  0.00  0.00    +0.023 A 
BRANCH  26  29
ATOM     29  C   UNL     1      -1.444  -4.672  -6.822  0.00  0.00    +0.050 C 
BRANCH  29  30
ATOM     30  C   UNL     1      -2.829  -5.269  -7.138  0.00  0.00    +0.089 C 
BRANCH  30  31
ATOM     31  N   UNL     1      -3.285  -5.061  -8.525  0.00  0.00    -0.298 NA
ATOM     32  C   UNL     1      -2.367  -5.670  -9.511  0.00  0.00    +0.120 C 
ATOM     33  C   UNL     1      -2.900  -5.647 -10.928  0.00  0.00    -0.026 A 
ATOM     34  C   UNL     1      -4.265  -5.489 -11.185  0.00  0.00    -0.038 A 
ATOM     35  C   UNL     1      -4.729  -5.483 -12.508  0.00  0.00    +0.053 A 
ATOM     36  C   UNL     1      -3.856  -5.658 -13.594  0.00  0.00    +0.162 A 
ATOM     37  C   UNL     1      -2.486  -5.840 -13.335  0.00  0.00    +0.162 A 
ATOM     38  C   UNL     1      -5.224  -5.256 -10.047  0.00  0.00    +0.051 C 
ATOM     39  C   UNL     1      -2.028  -5.836 -12.008  0.00  0.00    +0.054 A 
ATOM     40  C   UNL     1      -4.628  -5.646  -8.692  0.00  0.00    +0.089 C 
BRANCH  37  41
ATOM     41  O   UNL     1      -1.461  -6.031 -14.228  0.00  0.00    -0.491 OA
ATOM     42  C   UNL     1      -1.753  -6.042 -15.616  0.00  0.00    +0.277 C 
ENDBRANCH  37  41
BRANCH  36  43
ATOM     43  O   UNL     1      -4.285  -5.660 -14.894  0.00  0.00    -0.491 OA
ATOM     44  C   UNL     1      -5.670  -5.462 -15.146  0.00  0.00    +0.277 C 
ENDBRANCH  36  43
ENDBRANCH  30  31
ENDBRANCH  29  30
ENDBRANCH  26  29
ENDBRANCH   2  23
TORSDOF 8
