REMARK  Name = 
REMARK  5 active torsions:
REMARK  status: ('A' for Active; 'I' for Inactive)
REMARK    1  A    between atoms: C_1  and  C_2
REMARK    2  A    between atoms: C_3  and  C_4
REMARK    3  A    between atoms: C_4  and  C_5
REMARK    4  A    between atoms: C_5  and  C_6
REMARK    5  A    between atoms: C_6  and  O_7
REMARK                            x       y       z     vdW  Elec       q    Type
REMARK                         _______ _______ _______ _____ _____    ______ ____
ROOT
ATOM      1  C   UNL     1       1.066  -0.325  -0.082  0.00  0.00    +0.051 C 
ATOM      2  C   UNL     1       2.535  -0.020  -0.095  0.00  0.00    +0.033 A 
ATOM      3  C   UNL     1       3.407  -1.238  -0.092  0.00  0.00    +0.257 A 
ATOM      4  O   UNL     1       2.935  -2.371  -0.085  0.00  0.00    -0.267 OA
ATOM      5  N   UNL     1       4.752  -1.028  -0.090  0.00  0.00    -0.275 N 
ATOM      6  H   UNL     1       5.351  -1.838  -0.080  0.00  0.00    +0.173 HD
ATOM      7  C   UNL     1       5.349   0.191  -0.051  0.00  0.00    +0.327 A 
ATOM      8  O   UNL     1       6.567   0.327  -0.010  0.00  0.00    -0.247 OA
ATOM      9  N   UNL     1       4.507   1.263  -0.053  0.00  0.00    -0.311 N 
ATOM     10  H   UNL     1       4.976   2.161  -0.021  0.00  0.00    +0.170 HD
ATOM     11  C   UNL     1       3.132   1.189  -0.088  0.00  0.00    +0.029 A 
ENDROOT
BRANCH  11  12
ATOM     12  C   UNL     1       2.423   2.529  -0.072  0.00  0.00    +0.056 C 
BRANCH  12  13
ATOM     13  C   UNL     1       2.820   3.485  -1.205  0.00  0.00    +0.034 C 
BRANCH  13  14
ATOM     14  C   UNL     1       2.453   2.982  -2.595  0.00  0.00    +0.156 C 
BRANCH  14  15
ATOM     15  O   UNL     1       2.887   3.925  -3.568  0.00  0.00    -0.395 OA
ATOM     16  H   UNL     1       2.499   4.789  -3.347  0.00  0.00    +0.209 HD
ENDBRANCH  14  15
ENDBRANCH  13  14
ENDBRANCH  12  13
ENDBRANCH  11  12
TORSDOF 4
