REMARK  Name = 
REMARK  6 active torsions:
REMARK  status: ('A' for Active; 'I' for Inactive)
REMARK    1  A    between atoms: C_2  and  C_3
REMARK    2  A    between atoms: C_2  and  C_18
REMARK    3  A    between atoms: C_3  and  C_4
REMARK    4  A    between atoms: C_4  and  C_5
REMARK    5  A    between atoms: N_8  and  C_9
REMARK    6  A    between atoms: C_9  and  C_10
REMARK                            x       y       z     vdW  Elec       q    Type
REMARK                         _______ _______ _______ _____ _____    ______ ____
ROOT
ATOM      1  C   UNL     1       3.020   1.008  -0.457  0.00  0.00    +0.080 C 
ENDROOT
BRANCH   1   3
ATOM      2  O   UNL     1       0.997  -0.280  -0.177  0.00  0.00    -0.292 OA
ATOM      3  C   UNL     1       2.224  -0.246  -0.151  0.00  0.00    +0.163 C 
BRANCH   3   4
ATOM      4  C   UNL     1       3.006  -1.479   0.178  0.00  0.00    +0.019 A 
ATOM      5  C   UNL     1       2.334  -2.693   0.318  0.00  0.00    +0.012 A 
ATOM      6  C   UNL     1       3.052  -3.862   0.580  0.00  0.00    +0.006 A 
ATOM      7  C   UNL     1       4.453  -3.839   0.700  0.00  0.00    -0.026 A 
ATOM      8  C   UNL     1       5.197  -5.125   0.959  0.00  0.00    +0.037 C 
ATOM      9  C   UNL     1       6.177  -5.475  -0.162  0.00  0.00    +0.006 C 
ATOM     10  C   UNL     1       7.463  -4.649  -0.123  0.00  0.00    +0.019 C 
ATOM     11  C   UNL     1       7.253  -3.161  -0.390  0.00  0.00    +0.101 C 
ATOM     12  N   UNL     1       6.526  -2.496   0.696  0.00  0.00    -0.344 N 
ATOM     13  H   UNL     1       6.818  -2.877   1.596  0.00  0.00    +0.146 HD
ATOM     14  C   UNL     1       5.129  -2.616   0.581  0.00  0.00    +0.031 A 
ATOM     15  C   UNL     1       4.399  -1.449   0.324  0.00  0.00    +0.034 A 
ENDBRANCH   3   4
ENDBRANCH   1   3
BRANCH   1  16
ATOM     16  C   UNL     1       2.193   2.187  -0.966  0.00  0.00    +0.011 C 
BRANCH  16  17
ATOM     17  C   UNL     1       3.065   3.451  -1.137  0.00  0.00    -0.008 C 
ATOM     18  C   UNL     1       2.191   4.683  -1.428  0.00  0.00    +0.019 C 
ATOM     19  C   UNL     1       1.843   4.835  -2.912  0.00  0.00    +0.085 C 
ATOM     20  N   UNL     1       3.022   4.829  -3.794  0.00  0.00    -0.298 NA
ATOM     21  C   UNL     1       3.740   3.560  -3.622  0.00  0.00    +0.085 C 
ATOM     22  C   UNL     1       4.191   3.303  -2.183  0.00  0.00    +0.019 C 
BRANCH  20  23
ATOM     23  C   UNL     1       3.864   6.020  -3.567  0.00  0.00    +0.119 C 
BRANCH  23  24
ATOM     24  C   UNL     1       5.023   6.168  -4.530  0.00  0.00    -0.033 A 
ATOM     25  C   UNL     1       6.339   6.240  -4.045  0.00  0.00    +0.005 A 
ATOM     26  C   UNL     1       7.409   6.410  -4.924  0.00  0.00    +0.000 A 
ATOM     27  C   UNL     1       7.175   6.512  -6.293  0.00  0.00    +0.000 A 
ATOM     28  C   UNL     1       5.874   6.442  -6.786  0.00  0.00    +0.000 A 
ATOM     29  C   UNL     1       4.801   6.272  -5.909  0.00  0.00    +0.005 A 
ENDBRANCH  23  24
ENDBRANCH  20  23
ENDBRANCH  16  17
ENDBRANCH   1  16
TORSDOF 6
