REMARK  Name = 
REMARK  11 active torsions:
REMARK  status: ('A' for Active; 'I' for Inactive)
REMARK    1  A    between atoms: N_1  and  C_2
REMARK    2  A    between atoms: C_4  and  C_6
REMARK    3  A    between atoms: C_6  and  O_7
REMARK    4  A    between atoms: O_7  and  P_8
REMARK    5  A    between atoms: P_8  and  O_9
REMARK    6  A    between atoms: P_8  and  O_11
REMARK    7  A    between atoms: O_11  and  P_12
REMARK    8  A    between atoms: P_12  and  O_13
REMARK    9  A    between atoms: P_12  and  O_14
REMARK   10  A    between atoms: C_17  and  N_22
REMARK   11  A    between atoms: C_19  and  O_21
REMARK                            x       y       z     vdW  Elec       q    Type
REMARK                         _______ _______ _______ _____ _____    ______ ____
ROOT
ATOM      1  C   UNL     1       3.014   0.801  -2.279  0.00  0.00    +0.115 C 
ATOM      2  C   UNL     1       2.473   0.219  -3.590  0.00  0.00    +0.183 C 
ATOM      3  C   UNL     1       1.415   1.238  -4.042  0.00  0.00    +0.252 C 
ATOM      4  O   UNL     1       1.482   2.381  -3.159  0.00  0.00    -0.347 OA
ATOM      5  C   UNL     1       2.703   2.295  -2.408  0.00  0.00    +0.166 C 
ENDROOT
BRANCH   3   6
ATOM      6  N   UNL     1       1.595   1.686  -5.415  0.00  0.00    -0.286 N 
ATOM      7  C   UNL     1       1.558   0.882  -6.526  0.00  0.00    +0.167 A 
ATOM      8  N   UNL     1       1.421  -0.455  -6.571  0.00  0.00    -0.216 NA
ATOM      9  C   UNL     1       1.442  -0.888  -7.854  0.00  0.00    +0.225 A 
ATOM     10  N   UNL     1       1.564  -0.163  -8.988  0.00  0.00    -0.219 NA
ATOM     11  C   UNL     1       1.675   1.181  -8.882  0.00  0.00    +0.147 A 
ATOM     12  N   UNL     1       1.775   1.932 -10.045  0.00  0.00    -0.341 N 
ATOM     13  H   UNL     1       2.182   2.850  -9.903  0.00  0.00    +0.144 HD
ATOM     14  H   UNL     1       2.095   1.388 -10.835  0.00  0.00    +0.144 HD
ATOM     15  C   UNL     1       1.696   1.749  -7.596  0.00  0.00    +0.147 A 
ATOM     16  N   UNL     1       1.845   3.050  -7.162  0.00  0.00    -0.231 NA
ATOM     17  C   UNL     1       1.765   2.974  -5.851  0.00  0.00    +0.203 A 
ENDBRANCH   3   6
BRANCH   1  18
ATOM     18  N   UNL     1       4.432   0.489  -2.060  0.00  0.00    -0.323 NA
ATOM     19  H   UNL     1       5.020   0.917  -2.776  0.00  0.00    +0.119 HD
ATOM     20  H   UNL     1       4.733   0.902  -1.174  0.00  0.00    +0.119 HD
ENDBRANCH   1  18
BRANCH   2  21
ATOM     21  O   UNL     1       1.887  -1.068  -3.358  0.00  0.00    -0.386 OA
ATOM     22  H   UNL     1       1.699  -1.459  -4.232  0.00  0.00    +0.210 HD
ENDBRANCH   2  21
BRANCH   5  23
ATOM     23  C   UNL     1       2.531   3.030  -1.075  0.00  0.00    +0.205 C 
BRANCH  23  24
ATOM     24  O   UNL     1       3.715   2.987  -0.299  0.00  0.00    -0.284 OA
BRANCH  24  25
ATOM     25  P   UNL     1       3.662   3.709   1.183  0.00  0.00    +0.483 P 
ATOM     26  O   UNL     1       5.009   3.420   1.841  0.00  0.00    -0.227 OA
BRANCH  25  27
ATOM     27  O   UNL     1       4.381   5.121   0.491  0.00  0.00    -0.302 OA
ATOM     28  H   UNL     1       5.304   4.837   0.325  0.00  0.00    +0.222 HD
ENDBRANCH  25  27
BRANCH  25  29
ATOM     29  O   UNL     1       2.942   2.296   1.875  0.00  0.00    -0.186 OA
BRANCH  29  30
ATOM     30  P   UNL     1       2.400   2.309   3.360  0.00  0.00    +0.481 P 
ATOM     31  O   UNL     1       1.890   3.591   3.909  0.00  0.00    -0.227 OA
BRANCH  30  32
ATOM     32  O   UNL     1       3.416   1.446   4.227  0.00  0.00    -0.302 OA
ATOM     33  H   UNL     1       2.945   0.830   4.816  0.00  0.00    +0.222 HD
ENDBRANCH  30  32
BRANCH  30  34
ATOM     34  O   UNL     1       1.229   1.218   3.224  0.00  0.00    -0.302 OA
ATOM     35  H   UNL     1       0.443   1.582   2.777  0.00  0.00    +0.222 HD
ENDBRANCH  30  34
ENDBRANCH  29  30
ENDBRANCH  25  29
ENDBRANCH  24  25
ENDBRANCH  23  24
ENDBRANCH   5  23
TORSDOF 11
