REMARK  Name = 
REMARK  16 active torsions:
REMARK  status: ('A' for Active; 'I' for Inactive)
REMARK    1  A    between atoms: O_1  and  C_2
REMARK    2  A    between atoms: C_2  and  C_3
REMARK    3  A    between atoms: C_6  and  O_8
REMARK    4  A    between atoms: O_8  and  P_9
REMARK    5  A    between atoms: P_9  and  O_10
REMARK    6  A    between atoms: P_9  and  O_12
REMARK    7  A    between atoms: O_12  and  P_13
REMARK    8  A    between atoms: P_13  and  O_14
REMARK    9  A    between atoms: P_13  and  O_16
REMARK   10  A    between atoms: O_16  and  C_17
REMARK   11  A    between atoms: C_17  and  C_18
REMARK   12  A    between atoms: C_21  and  N_29
REMARK   13  A    between atoms: C_23  and  O_25
REMARK   14  A    between atoms: C_26  and  O_28
REMARK   15  A    between atoms: C_37  and  O_39
REMARK   16  A    between atoms: C_40  and  O_42
REMARK                            x       y       z     vdW  Elec       q    Type
REMARK                         _______ _______ _______ _____ _____    ______ ____
ROOT
ATOM      1  P   UNL     1      -5.628  -3.391   4.509  0.00  0.00    +0.483 P 
ATOM      2  O   UNL     1      -6.085  -2.229   5.395  0.00  0.00    -0.227 OA
ENDROOT
BRANCH   1   3
ATOM      3  O   UNL     1      -5.451  -2.761   3.012  0.00  0.00    -0.302 OA
ATOM      4  H   UNL     1      -5.845  -1.870   3.003  0.00  0.00    +0.222 HD
ENDBRANCH   1   3
BRANCH   1   5
ATOM      5  O   UNL     1      -7.278  -3.703   4.093  0.00  0.00    -0.186 OA
BRANCH   5   6
ATOM      6  P   UNL     1      -7.856  -5.055   5.003  0.00  0.00    +0.486 P 
ATOM      7  O   UNL     1      -8.948  -5.338   3.975  0.00  0.00    -0.227 OA
BRANCH   6   8
ATOM      8  O   UNL     1      -8.434  -6.408   5.914  0.00  0.00    -0.302 OA
ATOM      9  H   UNL     1      -8.921  -6.094   6.698  0.00  0.00    +0.222 HD
ENDBRANCH   6   8
BRANCH   6  10
ATOM     10  O   UNL     1      -6.481  -5.892   4.715  0.00  0.00    -0.254 OA
BRANCH  10  16
ATOM     11  C   UNL     1      -6.691  -6.867   1.252  0.00  0.00    +0.183 C 
ATOM     12  C   UNL     1      -5.380  -7.630   1.053  0.00  0.00    +0.228 C 
ATOM     13  F   UNL     1      -5.565  -8.543   0.054  0.00  0.00    -0.240 F 
ATOM     14  C   UNL     1      -5.012  -8.380   2.335  0.00  0.00    +0.184 C 
ATOM     15  C   UNL     1      -5.096  -7.473   3.567  0.00  0.00    +0.202 C 
ATOM     16  C   UNL     1      -6.462  -6.760   3.598  0.00  0.00    +0.293 C 
ATOM     17  O   UNL     1      -6.598  -6.012   2.399  0.00  0.00    -0.340 OA
BRANCH  14  18
ATOM     18  O   UNL     1      -3.684  -8.920   2.250  0.00  0.00    -0.386 OA
ATOM     19  H   UNL     1      -3.461  -9.225   3.152  0.00  0.00    +0.210 HD
ENDBRANCH  14  18
BRANCH  15  20
ATOM     20  O   UNL     1      -4.831  -8.270   4.734  0.00  0.00    -0.384 OA
ATOM     21  H   UNL     1      -5.680  -8.519   5.141  0.00  0.00    +0.210 HD
ENDBRANCH  15  20
BRANCH  11  22
ATOM     22  C   UNL     1      -7.065  -6.036   0.022  0.00  0.00    +0.190 C 
BRANCH  22  23
ATOM     23  O   UNL     1      -6.031  -5.120  -0.325  0.00  0.00    -0.392 OA
ATOM     24  H   UNL     1      -6.368  -4.587  -1.065  0.00  0.00    +0.210 HD
ENDBRANCH  22  23
ENDBRANCH  11  22
ENDBRANCH  10  16
ENDBRANCH   6  10
ENDBRANCH   5   6
ENDBRANCH   1   5
BRANCH   1  25
ATOM     25  O   UNL     1      -3.978  -3.079   4.925  0.00  0.00    -0.284 OA
BRANCH  25  26
ATOM     26  C   UNL     1      -3.340  -1.970   4.287  0.00  0.00    +0.206 C 
BRANCH  26  27
ATOM     27  C   UNL     1      -1.897  -1.763   4.748  0.00  0.00    +0.178 C 
ATOM     28  C   UNL     1      -1.749  -1.594   6.256  0.00  0.00    +0.178 C 
ATOM     29  C   UNL     1      -1.331  -2.972   6.773  0.00  0.00    +0.195 C 
ATOM     30  C   UNL     1      -1.218  -3.825   5.499  0.00  0.00    +0.255 C 
ATOM     31  O   UNL     1      -1.091  -2.908   4.402  0.00  0.00    -0.346 OA
BRANCH  30  32
ATOM     32  N   UNL     1      -0.107  -4.766   5.525  0.00  0.00    -0.271 N 
ATOM     33  C   UNL     1      -0.321  -5.957   6.208  0.00  0.00    +0.331 A 
ATOM     34  O   UNL     1      -1.338  -6.188   6.861  0.00  0.00    -0.246 OA
ATOM     35  N   UNL     1       0.695  -6.872   6.133  0.00  0.00    -0.275 N 
ATOM     36  H   UNL     1       0.545  -7.762   6.582  0.00  0.00    +0.173 HD
ATOM     37  C   UNL     1       1.908  -6.671   5.544  0.00  0.00    +0.254 A 
ATOM     38  O   UNL     1       2.794  -7.516   5.528  0.00  0.00    -0.268 OA
ATOM     39  C   UNL     1       2.112  -5.350   4.925  0.00  0.00    +0.088 A 
ATOM     40  C   UNL     1       1.103  -4.475   4.934  0.00  0.00    +0.098 A 
ENDBRANCH  30  32
BRANCH  29  41
ATOM     41  O   UNL     1      -2.289  -3.495   7.696  0.00  0.00    -0.385 OA
ATOM     42  H   UNL     1      -2.111  -4.454   7.782  0.00  0.00    +0.210 HD
ENDBRANCH  29  41
BRANCH  28  43
ATOM     43  O   UNL     1      -0.699  -0.642   6.513  0.00  0.00    -0.386 OA
ATOM     44  H   UNL     1       0.071  -0.883   5.968  0.00  0.00    +0.210 HD
ENDBRANCH  28  43
ENDBRANCH  26  27
ENDBRANCH  25  26
ENDBRANCH   1  25
TORSDOF 16
