REMARK  Name = 
REMARK  9 active torsions:
REMARK  status: ('A' for Active; 'I' for Inactive)
REMARK    1  A    between atoms: C_1  and  N_2
REMARK    2  A    between atoms: N_5  and  C_6
REMARK    3  A    between atoms: C_6  and  C_7
REMARK    4  A    between atoms: C_7  and  C_8
REMARK    5  A    between atoms: C_8  and  C_9
REMARK    6  A    between atoms: C_9  and  N_10
REMARK    7  A    between atoms: N_14  and  N_15
REMARK    8  A    between atoms: C_16  and  C_17
REMARK    9  A    between atoms: C_20  and  C_22
REMARK                            x       y       z     vdW  Elec       q    Type
REMARK                         _______ _______ _______ _____ _____    ______ ____
ROOT
ATOM      1  N   UNL     1       8.594   1.145  -4.945  0.00  0.00    -0.223 N 
ATOM      2  C   UNL     1       9.364   0.113  -5.433  0.00  0.00    +0.331 C 
ATOM      3  O   UNL     1       8.952  -0.988  -5.767  0.00  0.00    -0.250 OA
ATOM      4  N   UNL     1      10.691   0.575  -5.483  0.00  0.00    -0.168 N 
ATOM      5  C   UNL     1      10.780   1.972  -5.144  0.00  0.00    +0.232 C 
ATOM      6  C   UNL     1       9.365   2.246  -4.695  0.00  0.00    +0.242 C 
ATOM      7  O   UNL     1       8.984   3.312  -4.229  0.00  0.00    -0.273 OA
ENDROOT
BRANCH   4   8
ATOM      8  N   UNL     1      11.822  -0.056  -5.913  0.00  0.00    -0.180 NA
ATOM      9  C   UNL     1      11.843  -1.319  -6.200  0.00  0.00    +0.176 C 
BRANCH   9  10
ATOM     10  C   UNL     1      13.103  -1.879  -6.634  0.00  0.00    +0.148 A 
ATOM     11  O   UNL     1      13.194  -3.204  -6.981  0.00  0.00    -0.454 OA
ATOM     12  C   UNL     1      14.495  -3.440  -7.359  0.00  0.00    +0.136 A 
ATOM     13  C   UNL     1      15.225  -2.273  -7.235  0.00  0.00    +0.050 A 
ATOM     14  C   UNL     1      14.338  -1.279  -6.778  0.00  0.00    +0.051 A 
BRANCH  12  15
ATOM     15  C   UNL     1      14.851  -4.787  -7.814  0.00  0.00    +0.017 A 
ATOM     16  C   UNL     1      13.935  -5.848  -7.813  0.00  0.00    +0.013 A 
ATOM     17  C   UNL     1      14.305  -7.117  -8.284  0.00  0.00    +0.021 A 
ATOM     18  C   UNL     1      15.596  -7.336  -8.760  0.00  0.00    +0.041 A 
ATOM     19 CL   UNL     1      16.047  -8.884  -9.358  0.00  0.00    -0.084 Cl
ATOM     20  C   UNL     1      16.524  -6.305  -8.759  0.00  0.00    +0.021 A 
ATOM     21  C   UNL     1      16.153  -5.039  -8.287  0.00  0.00    +0.013 A 
ENDBRANCH  12  15
ENDBRANCH   9  10
ENDBRANCH   4   8
BRANCH   1  22
ATOM     22  C   UNL     1       7.147   1.134  -4.827  0.00  0.00    +0.118 C 
BRANCH  22  23
ATOM     23  C   UNL     1       6.609   0.191  -3.757  0.00  0.00    +0.021 C 
BRANCH  23  24
ATOM     24  C   UNL     1       7.040   0.583  -2.343  0.00  0.00    +0.017 C 
BRANCH  24  25
ATOM     25  C   UNL     1       6.495  -0.385  -1.282  0.00  0.00    +0.084 C 
BRANCH  25  30
ATOM     26  C   UNL     1       8.690  -4.129   0.834  0.00  0.00    +0.105 C 
ATOM     27  N   UNL     1       8.297  -2.728   0.987  0.00  0.00    -0.303 NA
ATOM     28  C   UNL     1       6.828  -2.577   0.917  0.00  0.00    +0.099 C 
ATOM     29  C   UNL     1       6.224  -2.675  -0.507  0.00  0.00    +0.100 C 
ATOM     30  N   UNL     1       6.867  -1.793  -1.506  0.00  0.00    -0.300 NA
ATOM     31  C   UNL     1       8.326  -2.024  -1.457  0.00  0.00    +0.100 C 
ATOM     32  C   UNL     1       8.939  -1.886  -0.044  0.00  0.00    +0.099 C 
ENDBRANCH  25  30
ENDBRANCH  24  25
ENDBRANCH  23  24
ENDBRANCH  22  23
ENDBRANCH   1  22
TORSDOF 8
