REMARK  Name = 
REMARK  13 active torsions:
REMARK  status: ('A' for Active; 'I' for Inactive)
REMARK    1  A    between atoms: C_1  and  O_2
REMARK    2  A    between atoms: O_2  and  C_3
REMARK    3  A    between atoms: C_3  and  C_5
REMARK    4  A    between atoms: C_5  and  C_7
REMARK    5  A    between atoms: C_5  and  C_17
REMARK    6  A    between atoms: C_7  and  C_8
REMARK    7  A    between atoms: C_12  and  C_14
REMARK    8  A    between atoms: C_17  and  C_19
REMARK    9  A    between atoms: C_17  and  N_20
REMARK   10  A    between atoms: C_21  and  C_23
REMARK   11  A    between atoms: C_26  and  C_29
REMARK   12  A    between atoms: C_33  and  C_34
REMARK   13  A    between atoms: C_34  and  N_35
REMARK                            x       y       z     vdW  Elec       q    Type
REMARK                         _______ _______ _______ _____ _____    ______ ____
ROOT
ATOM      1  C   UNL     1       5.148  -1.302  -2.203  0.00  0.00    +0.084 C 
ATOM      2  C   UNL     1       4.597  -0.685  -3.494  0.00  0.00    +0.028 C 
ENDROOT
BRANCH   1   3
ATOM      3  N   UNL     1       6.608  -1.340  -2.288  0.00  0.00    -0.308 N 
ATOM      4  H   UNL     1       7.127  -0.527  -1.971  0.00  0.00    +0.149 HD
ATOM      5  C   UNL     1       7.290  -2.350  -2.933  0.00  0.00    +0.244 C 
ATOM      6  O   UNL     1       6.734  -3.282  -3.500  0.00  0.00    -0.270 OA
BRANCH   5   7
ATOM      7  C   UNL     1       8.773  -2.219  -2.967  0.00  0.00    +0.037 A 
ATOM      8  C   UNL     1       9.463  -2.732  -4.066  0.00  0.00    +0.013 A 
ATOM      9  C   UNL     1      10.845  -2.537  -4.185  0.00  0.00    +0.009 A 
ATOM     10  C   UNL     1      11.576  -1.820  -3.218  0.00  0.00    -0.018 A 
ATOM     11  C   UNL     1      10.871  -1.383  -2.080  0.00  0.00    +0.009 A 
ATOM     12  C   UNL     1       9.489  -1.581  -1.949  0.00  0.00    +0.013 A 
BRANCH  10  13
ATOM     13  C   UNL     1      13.003  -1.469  -3.431  0.00  0.00    -0.018 A 
ATOM     14  C   UNL     1      13.482  -1.173  -4.725  0.00  0.00    +0.013 A 
ATOM     15  C   UNL     1      14.806  -0.765  -4.970  0.00  0.00    -0.033 A 
ATOM     16  C   UNL     1      15.671  -0.625  -3.880  0.00  0.00    +0.005 A 
ATOM     17  C   UNL     1      15.231  -0.917  -2.590  0.00  0.00    +0.001 A 
ATOM     18  C   UNL     1      13.915  -1.342  -2.371  0.00  0.00    +0.008 A 
BRANCH  15  19
ATOM     19  C   UNL     1      15.261  -0.370  -6.355  0.00  0.00    +0.113 C 
BRANCH  19  20
ATOM     20  N   UNL     1      14.684  -1.203  -7.407  0.00  0.00    -0.326 NA
ATOM     21  H   UNL     1      15.038  -0.890  -8.310  0.00  0.00    +0.119 HD
ATOM     22  H   UNL     1      15.011  -2.159  -7.283  0.00  0.00    +0.119 HD
ENDBRANCH  19  20
ENDBRANCH  15  19
ENDBRANCH  10  13
ENDBRANCH   5   7
ENDBRANCH   1   3
BRANCH   1  23
ATOM     23  C   UNL     1       4.675  -0.534  -0.947  0.00  0.00    +0.122 C 
BRANCH  23  24
ATOM     24  C   UNL     1       5.446  -1.047   0.260  0.00  0.00    +0.312 C 
ATOM     25  O   UNL     1       6.520  -0.560   0.602  0.00  0.00    -0.250 OA
BRANCH  24  27
ATOM     26  C   UNL     1       5.475  -2.643   2.016  0.00  0.00    +0.280 C 
ATOM     27  O   UNL     1       4.846  -2.114   0.844  0.00  0.00    -0.468 OA
ENDBRANCH  24  27
ENDBRANCH  23  24
BRANCH  23  28
ATOM     28  C   UNL     1       3.144  -0.605  -0.752  0.00  0.00    +0.051 C 
BRANCH  28  29
ATOM     29  C   UNL     1       2.642   0.063   0.511  0.00  0.00    -0.046 A 
ATOM     30  C   UNL     1       2.012  -0.702   1.506  0.00  0.00    +0.019 A 
ATOM     31  C   UNL     1       1.620  -0.113   2.714  0.00  0.00    +0.065 A 
ATOM     32  C   UNL     1       1.805   1.258   2.911  0.00  0.00    +0.016 A 
ATOM     33  C   UNL     1       2.400   2.030   1.912  0.00  0.00    +0.001 A 
ATOM     34  C   UNL     1       2.820   1.436   0.721  0.00  0.00    +0.004 A 
BRANCH  31  35
ATOM     35  C   UNL     1       1.048  -0.970   3.792  0.00  0.00    +0.308 C 
ATOM     36  N   UNL     1       1.218  -0.718   5.052  0.00  0.00    -0.099 NA
ATOM     37  H   UNL     1       1.822   0.097   5.191  0.00  0.00    +0.363 HD
ATOM     38  N   UNL     1       0.319  -2.076   3.490  0.00  0.00    -0.247 N 
ATOM     39  H   UNL     1      -0.127  -2.447   4.326  0.00  0.00    +0.288 HD
ATOM     40  H   UNL     1      -0.333  -1.981   2.720  0.00  0.00    +0.288 HD
ENDBRANCH  31  35
ENDBRANCH  28  29
ENDBRANCH  23  28
ENDBRANCH   1  23
TORSDOF 11
