REMARK  Name = 
REMARK  11 active torsions:
REMARK  status: ('A' for Active; 'I' for Inactive)
REMARK    1  A    between atoms: CA_2  and  C_3
REMARK    2  A    between atoms: CA_2  and  C_5
REMARK    3  A    between atoms: CA_2  and  N_7
REMARK    4  A    between atoms: C_3  and  C_4
REMARK    5  A    between atoms: C_5  and  O_6
REMARK    6  A    between atoms: N_14  and  C_15
REMARK    7  A    between atoms: C_15  and  C_16
REMARK    8  A    between atoms: C_15  and  C_17
REMARK    9  A    between atoms: C_18  and  O_19
REMARK   10  A    between atoms: O_19  and  C_20
REMARK   11  A    between atoms: C_20  and  C_21
REMARK                            x       y       z     vdW  Elec       q    Type
REMARK                         _______ _______ _______ _____ _____    ______ ____
ROOT
ATOM      1  N   UNL     1       2.808  -0.920  -1.167  0.00  0.00    -0.308 N 
ATOM      2  H   UNL     1       2.458  -1.797  -0.794  0.00  0.00    +0.149 HD
ATOM      3  C   UNL     1       4.184  -1.116  -1.307  0.00  0.00    +0.221 A 
ATOM      4  N   UNL     1       4.571  -2.411  -1.342  0.00  0.00    -0.178 NA
ATOM      5  C   UNL     1       5.893  -2.693  -1.486  0.00  0.00    +0.248 A 
ATOM      6  C   UNL     1       6.817  -1.654  -1.590  0.00  0.00    +0.169 A 
ATOM      7  N   UNL     1       8.185  -1.619  -1.740  0.00  0.00    -0.229 NA
ATOM      8  C   UNL     1       8.487  -0.340  -1.772  0.00  0.00    +0.202 A 
ATOM      9  N   UNL     1       7.378   0.455  -1.634  0.00  0.00    -0.312 N 
ATOM     10  C   UNL     1       6.293  -0.377  -1.530  0.00  0.00    +0.169 A 
ATOM     11  N   UNL     1       5.000  -0.049  -1.389  0.00  0.00    -0.195 NA
ENDROOT
BRANCH   9  12
ATOM     12  C   UNL     1       7.368   1.911  -1.605  0.00  0.00    +0.084 C 
ATOM     13  C   UNL     1       7.799   2.498  -2.951  0.00  0.00    +0.030 C 
ATOM     14  C   UNL     1       8.237   2.463  -0.472  0.00  0.00    +0.030 C 
ENDBRANCH   9  12
BRANCH   1  15
ATOM     15  CA  UNL     1       2.390   0.288  -0.443  0.00  0.00    +0.098 C 
BRANCH  15  16
ATOM     16  C   UNL     1       1.009   0.046   0.219  0.00  0.00    +0.021 C 
ATOM     17  C   UNL     1      -0.158  -0.144  -0.744  0.00  0.00    +0.006 C 
ENDBRANCH  15  16
BRANCH  15  18
ATOM     18  C   UNL     1       2.374   1.533  -1.363  0.00  0.00    +0.178 C 
BRANCH  18  19
ATOM     19  O   UNL     1       2.035   2.720  -0.642  0.00  0.00    -0.393 OA
ATOM     20  H   UNL     1       1.075   2.709  -0.491  0.00  0.00    +0.209 HD
ENDBRANCH  18  19
ENDBRANCH  15  18
ENDBRANCH   1  15
BRANCH   5  21
ATOM     21  O   UNL     1       6.348  -3.989  -1.398  0.00  0.00    -0.470 OA
BRANCH  21  22
ATOM     22  C   UNL     1       5.491  -4.948  -2.006  0.00  0.00    +0.266 C 
BRANCH  22  23
ATOM     23  C   UNL     1       6.228  -6.273  -1.969  0.00  0.00    -0.010 A 
ATOM     24  C   UNL     1       7.464  -6.411  -2.622  0.00  0.00    +0.007 A 
ATOM     25  C   UNL     1       8.181  -7.608  -2.544  0.00  0.00    +0.000 A 
ATOM     26  C   UNL     1       7.669  -8.683  -1.820  0.00  0.00    +0.000 A 
ATOM     27  C   UNL     1       6.441  -8.561  -1.178  0.00  0.00    +0.000 A 
ATOM     28  C   UNL     1       5.721  -7.364  -1.251  0.00  0.00    +0.007 A 
ENDBRANCH  22  23
ENDBRANCH  21  22
ENDBRANCH   5  21
TORSDOF 8
