REMARK  Name = 
REMARK  15 active torsions:
REMARK  status: ('A' for Active; 'I' for Inactive)
REMARK    1  A    between atoms: C_1  and  C_2
REMARK    2  A    between atoms: C_2  and  N_3
REMARK    3  A    between atoms: N_3  and  C_4
REMARK    4  A    between atoms: N_3  and  C_6
REMARK    5  A    between atoms: C_4  and  C_5
REMARK    6  A    between atoms: C_6  and  C_7
REMARK    7  A    between atoms: C_7  and  C_8
REMARK    8  A    between atoms: C_8  and  C_9
REMARK    9  A    between atoms: C_9  and  C_10
REMARK   10  A    between atoms: C_10  and  C_11
REMARK   11  A    between atoms: C_11  and  N_12
REMARK   12  A    between atoms: N_12  and  C_13
REMARK   13  A    between atoms: C_15  and  O_16
REMARK   14  A    between atoms: O_16  and  C_17
REMARK   15  A    between atoms: C_20  and  C_21
REMARK                            x       y       z     vdW  Elec       q    Type
REMARK                         _______ _______ _______ _____ _____    ______ ____
ROOT
ATOM      1  N   UNL     1      10.675  -0.700   5.537  0.00  0.00    -0.342 N 
ATOM      2  H   UNL     1      11.138   0.095   5.081  0.00  0.00    +0.146 HD
ENDROOT
BRANCH   1   3
ATOM      3  C   UNL     1      11.278  -0.833   6.831  0.00  0.00    +0.057 A 
ATOM      4  C   UNL     1      12.548  -0.259   7.067  0.00  0.00    +0.092 A 
ATOM      5  C   UNL     1      13.176  -0.465   8.325  0.00  0.00    +0.009 A 
ATOM      6  C   UNL     1      14.456   0.115   8.531  0.00  0.00    -0.040 A 
ATOM      7  C   UNL     1      15.031   0.866   7.502  0.00  0.00    +0.023 A 
ATOM      8  C   UNL     1      14.332   1.023   6.322  0.00  0.00    +0.112 A 
ATOM      9  C   UNL     1      15.260  -0.027   9.795  0.00  0.00    +0.044 C 
ATOM     10  C   UNL     1      12.500  -1.234   9.300  0.00  0.00    +0.056 A 
ATOM     11  C   UNL     1      11.258  -1.813   9.056  0.00  0.00    +0.123 A 
ATOM     12  N   UNL     1      13.118   0.488   6.094  0.00  0.00    -0.253 NA
ATOM     13  C   UNL     1      10.671  -1.630   7.817  0.00  0.00    +0.070 A 
BRANCH  11  14
ATOM     14  O   UNL     1      10.730  -2.538  10.089  0.00  0.00    -0.495 OA
ATOM     15  C   UNL     1       9.439  -3.102   9.874  0.00  0.00    +0.277 C 
ENDBRANCH  11  14
ENDBRANCH   1   3
BRANCH   1  16
ATOM     16  C   UNL     1       9.218  -0.615   5.538  0.00  0.00    +0.101 C 
BRANCH  16  17
ATOM     17  C   UNL     1       8.661  -0.422   4.132  0.00  0.00    +0.019 C 
BRANCH  17  18
ATOM     18  C   UNL     1       7.125  -0.443   4.133  0.00  0.00    +0.002 C 
BRANCH  18  19
ATOM     19  C   UNL     1       6.515   0.689   4.964  0.00  0.00    +0.001 C 
BRANCH  19  20
ATOM     20  C   UNL     1       4.987   0.639   4.953  0.00  0.00    +0.015 C 
BRANCH  20  21
ATOM     21  C   UNL     1       4.352   1.808   5.728  0.00  0.00    +0.084 C 
BRANCH  21  22
ATOM     22  N   UNL     1       4.709   3.152   5.236  0.00  0.00    -0.303 NA
BRANCH  22  24
ATOM     23  C   UNL     1       4.703   4.703   3.243  0.00  0.00    +0.020 C 
ATOM     24  C   UNL     1       4.327   3.345   3.829  0.00  0.00    +0.081 C 
ENDBRANCH  22  24
BRANCH  22  25
ATOM     25  C   UNL     1       4.224   4.204   6.146  0.00  0.00    +0.081 C 
ATOM     26  C   UNL     1       2.712   4.278   6.347  0.00  0.00    +0.020 C 
ENDBRANCH  22  25
ENDBRANCH  21  22
ENDBRANCH  20  21
ENDBRANCH  19  20
ENDBRANCH  18  19
ENDBRANCH  17  18
ENDBRANCH  16  17
ENDBRANCH   1  16
TORSDOF 11
