REMARK  Name = 
REMARK  2 active torsions:
REMARK  status: ('A' for Active; 'I' for Inactive)
REMARK    1  A    between atoms: N_5  and  C_18
REMARK    2  A    between atoms: C_21  and  N_28
REMARK                            x       y       z     vdW  Elec       q    Type
REMARK                         _______ _______ _______ _____ _____    ______ ____
ROOT
ATOM      1  C   UNL     1       1.987   0.169   0.043  0.00  0.00    +0.091 C 
ATOM      2  C   UNL     1       2.529   1.395  -0.708  0.00  0.00    +0.002 C 
ATOM      3  C   UNL     1       4.067   1.369  -0.766  0.00  0.00    +0.004 C 
ATOM      4  C   UNL     1       4.657   1.278   0.646  0.00  0.00    +0.004 C 
ATOM      5  C   UNL     1       3.535   1.267   1.699  0.00  0.00    +0.002 C 
ATOM      6  C   UNL     1       2.713   2.564   1.528  0.00  0.00    +0.004 C 
ATOM      7  C   UNL     1       2.113   2.636   0.110  0.00  0.00    +0.004 C 
ATOM      8  C   UNL     1       2.578   0.091   1.452  0.00  0.00    +0.091 C 
ATOM      9  C   UNL     1       3.181  -1.292   1.541  0.00  0.00    +0.230 C 
ATOM     10  O   UNL     1       3.829  -1.698   2.494  0.00  0.00    -0.274 OA
ATOM     11  N   UNL     1       2.795  -1.985   0.420  0.00  0.00    -0.209 N 
ATOM     12  C   UNL     1       2.291  -1.172  -0.567  0.00  0.00    +0.230 C 
ATOM     13  O   UNL     1       2.095  -1.451  -1.741  0.00  0.00    -0.274 OA
ENDROOT
BRANCH  11  14
ATOM     14  C   UNL     1       2.883  -3.389   0.286  0.00  0.00    +0.052 A 
ATOM     15  C   UNL     1       1.689  -4.169   0.134  0.00  0.00    +0.010 A 
ATOM     16  C   UNL     1       1.792  -5.571  -0.069  0.00  0.00    +0.061 A 
ATOM     17  C   UNL     1       0.590  -6.316  -0.222  0.00  0.00    +0.015 A 
ATOM     18  C   UNL     1      -0.668  -5.725  -0.129  0.00  0.00    +0.001 A 
ATOM     19  C   UNL     1      -0.767  -4.367   0.108  0.00  0.00    +0.001 A 
ATOM     20  C   UNL     1       3.097  -6.128  -0.093  0.00  0.00    +0.281 A 
ATOM     21  C   UNL     1       4.257  -5.366   0.109  0.00  0.00    +0.087 A 
ATOM     22  C   UNL     1       0.392  -3.604   0.230  0.00  0.00    +0.010 A 
ATOM     23  C   UNL     1       4.144  -3.996   0.317  0.00  0.00    +0.031 A 
BRANCH  20  24
ATOM     24  N   UNL     1       3.293  -7.552  -0.328  0.00  0.00    +0.080 N 
ATOM     25  O   UNL     1       2.782  -8.342   0.476  0.00  0.00    +0.041 OA
ATOM     26  O   UNL     1       3.989  -7.868  -1.303  0.00  0.00    -0.576 OA
ENDBRANCH  20  24
ENDBRANCH  11  14
TORSDOF 2
