REMARK  Name = 
REMARK  10 active torsions:
REMARK  status: ('A' for Active; 'I' for Inactive)
REMARK    1  A    between atoms: C_1  and  C_2
REMARK    2  A    between atoms: C_2  and  C_3
REMARK    3  A    between atoms: C_2  and  C_4
REMARK    4  A    between atoms: C_2  and  C_5
REMARK    5  A    between atoms: C_7  and  O_8
REMARK    6  A    between atoms: C_9  and  C_13
REMARK    7  A    between atoms: C_11  and  O_12
REMARK    8  A    between atoms: C_13  and  C_14
REMARK    9  A    between atoms: C_13  and  C_15
REMARK   10  A    between atoms: C_13  and  C_16
REMARK                            x       y       z     vdW  Elec       q    Type
REMARK                         _______ _______ _______ _____ _____    ______ ____
ROOT
ATOM      1  C   UNL     1       2.994  -1.226  -0.659  0.00  0.00    +0.003 A 
ATOM      2  C   UNL     1       2.681  -2.456  -0.064  0.00  0.00    +0.121 A 
ATOM      3  C   UNL     1       2.942  -3.683  -0.699  0.00  0.00    +0.053 A 
ATOM      4  C   UNL     1       3.502  -3.757  -1.985  0.00  0.00    +0.003 A 
ATOM      5  C   UNL     1       3.845  -2.529  -2.568  0.00  0.00    +0.121 A 
ATOM      6  C   UNL     1       3.601  -1.301  -1.927  0.00  0.00    +0.053 A 
ENDROOT
BRANCH   1   8
ATOM      7  C   UNL     1       1.134   0.412  -0.482  0.00  0.00    +0.015 C 
ATOM      8  C   UNL     1       2.593   0.141  -0.058  0.00  0.00    -0.009 C 
ATOM      9  C   UNL     1       2.684   0.215   1.485  0.00  0.00    +0.015 C 
ATOM     10  C   UNL     1       3.465   1.315  -0.575  0.00  0.00    +0.015 C 
ENDBRANCH   1   8
BRANCH   4  11
ATOM     11  C   UNL     1       3.663  -5.106  -2.717  0.00  0.00    -0.009 C 
ATOM     12  C   UNL     1       2.798  -5.116  -3.998  0.00  0.00    +0.015 C 
ATOM     13  C   UNL     1       3.199  -6.325  -1.877  0.00  0.00    +0.015 C 
ATOM     14  C   UNL     1       5.140  -5.372  -3.081  0.00  0.00    +0.015 C 
ENDBRANCH   4  11
BRANCH   2  15
ATOM     15  O   UNL     1       2.057  -2.493   1.151  0.00  0.00    -0.506 OA
ATOM     16  H   UNL     1       1.934  -3.416   1.425  0.00  0.00    +0.292 HD
ENDBRANCH   2  15
BRANCH   5  17
ATOM     17  O   UNL     1       4.407  -2.505  -3.816  0.00  0.00    -0.506 OA
ATOM     18  H   UNL     1       4.580  -1.585  -4.074  0.00  0.00    +0.292 HD
ENDBRANCH   5  17
TORSDOF 4
