REMARK  Name = 
REMARK  20 active torsions:
REMARK  status: ('A' for Active; 'I' for Inactive)
REMARK    1  A    between atoms: C_1  and  C_2
REMARK    2  A    between atoms: C_2  and  O_4
REMARK    3  A    between atoms: C_2  and  N_5
REMARK    4  A    between atoms: N_5  and  C_6
REMARK    5  A    between atoms: C_8  and  O_10
REMARK    6  A    between atoms: C_12  and  C_14
REMARK    7  A    between atoms: C_14  and  O_15
REMARK    8  A    between atoms: C_16  and  O_18
REMARK    9  A    between atoms: C_19  and  O_21
REMARK   10  A    between atoms: O_21  and  C_22
REMARK   11  A    between atoms: C_25  and  C_27
REMARK   12  A    between atoms: C_27  and  O_28
REMARK   13  A    between atoms: C_29  and  O_31
REMARK   14  A    between atoms: C_32  and  O_34
REMARK   15  A    between atoms: C_35  and  O_37
REMARK   16  A    between atoms: O_37  and  C_38
REMARK   17  A    between atoms: C_41  and  C_43
REMARK   18  A    between atoms: C_44  and  O_46
REMARK   19  A    between atoms: C_47  and  O_49
REMARK   20  A    between atoms: C_50  and  O_52
REMARK                            x       y       z     vdW  Elec       q    Type
REMARK                         _______ _______ _______ _____ _____    ______ ____
ROOT
ATOM      1  C   UNL     1       2.483   2.836   1.415  0.00  0.00    +0.283 C 
ATOM      2  C   UNL     1       3.690   1.965   0.847  0.00  0.00    +0.208 C 
ATOM      3  C   UNL     1       3.201   0.938  -0.220  0.00  0.00    +0.179 C 
ATOM      4  C   UNL     1       1.857   0.279   0.113  0.00  0.00    +0.177 C 
ATOM      5  C   UNL     1       0.862   1.391   0.433  0.00  0.00    +0.178 C 
ATOM      6  O   UNL     1       1.304   2.048   1.624  0.00  0.00    -0.341 OA
ENDROOT
BRANCH   4   7
ATOM      7  O   UNL     1       2.052  -0.640   1.193  0.00  0.00    -0.386 OA
ATOM      8  H   UNL     1       1.194  -0.951   1.523  0.00  0.00    +0.210 HD
ENDBRANCH   4   7
BRANCH   3   9
ATOM      9  O   UNL     1       4.194  -0.072  -0.484  0.00  0.00    -0.386 OA
ATOM     10  H   UNL     1       3.742  -0.933  -0.548  0.00  0.00    +0.210 HD
ENDBRANCH   3   9
BRANCH   5  11
ATOM     11  C   UNL     1      -0.556   0.850   0.635  0.00  0.00    +0.190 C 
BRANCH  11  12
ATOM     12  O   UNL     1      -1.481   1.923   0.780  0.00  0.00    -0.392 OA
ATOM     13  H   UNL     1      -1.325   2.319   1.657  0.00  0.00    +0.210 HD
ENDBRANCH  11  12
ENDBRANCH   5  11
BRANCH   2  14
ATOM     14  O   UNL     1       4.642   2.860   0.197  0.00  0.00    -0.338 OA
BRANCH  14  15
ATOM     15  C   UNL     1       5.948   2.294  -0.059  0.00  0.00    +0.282 C 
ATOM     16  C   UNL     1       6.782   3.303  -0.923  0.00  0.00    +0.201 C 
ATOM     17  C   UNL     1       8.273   2.924  -0.981  0.00  0.00    +0.179 C 
ATOM     18  C   UNL     1       8.784   2.628   0.434  0.00  0.00    +0.174 C 
ATOM     19  C   UNL     1       7.935   1.547   1.116  0.00  0.00    +0.149 C 
ATOM     20  C   UNL     1       8.106   0.131   0.552  0.00  0.00    +0.041 C 
ATOM     21  O   UNL     1       6.567   1.956   1.182  0.00  0.00    -0.343 OA
BRANCH  18  22
ATOM     22  O   UNL     1      10.168   2.278   0.403  0.00  0.00    -0.387 OA
ATOM     23  H   UNL     1      10.304   1.775  -0.424  0.00  0.00    +0.210 HD
ENDBRANCH  18  22
BRANCH  17  24
ATOM     24  O   UNL     1       8.590   1.828  -1.850  0.00  0.00    -0.386 OA
ATOM     25  H   UNL     1       7.776   1.415  -2.186  0.00  0.00    +0.210 HD
ENDBRANCH  17  24
BRANCH  16  26
ATOM     26  O   UNL     1       6.682   4.641  -0.403  0.00  0.00    -0.384 OA
ATOM     27  H   UNL     1       7.209   5.226  -0.975  0.00  0.00    +0.210 HD
ENDBRANCH  16  26
ENDBRANCH  14  15
ENDBRANCH   2  14
BRANCH   1  28
ATOM     28  O   UNL     1       2.798   3.490   2.685  0.00  0.00    -0.341 OA
BRANCH  28  30
ATOM     29  C   UNL     1       2.514   5.484   4.158  0.00  0.00    +0.144 C 
ATOM     30  C   UNL     1       1.883   4.571   3.039  0.00  0.00    +0.174 C 
ATOM     31  C   UNL     1       0.486   4.103   3.518  0.00  0.00    +0.176 C 
ATOM     32  C   UNL     1       0.494   3.463   4.913  0.00  0.00    +0.178 C 
ATOM     33  O   UNL     1       1.181   4.270   5.880  0.00  0.00    -0.342 OA
ATOM     34  C   UNL     1       2.486   4.714   5.511  0.00  0.00    +0.267 C 
BRANCH  34  35
ATOM     35  O   UNL     1       3.443   3.652   5.574  0.00  0.00    -0.366 OA
ATOM     36  H   UNL     1       3.621   3.354   4.674  0.00  0.00    +0.213 HD
ENDBRANCH  34  35
BRANCH  31  37
ATOM     37  O   UNL     1      -0.416   5.231   3.545  0.00  0.00    -0.387 OA
ATOM     38  H   UNL     1      -0.042   5.872   4.189  0.00  0.00    +0.210 HD
ENDBRANCH  31  37
BRANCH  29  39
ATOM     39  N   UNL     1       1.797   6.799   4.218  0.00  0.00    -0.282 NA
ATOM     40  H   UNL     1       1.866   7.253   3.305  0.00  0.00    +0.125 HD
BRANCH  39  42
ATOM     41  C   UNL     1       1.410   8.994   5.247  0.00  0.00    +0.055 C 
ATOM     42  C   UNL     1       2.305   7.755   5.190  0.00  0.00    +0.180 C 
BRANCH  42  43
ATOM     43  O   UNL     1       3.585   8.182   4.793  0.00  0.00    -0.378 OA
ATOM     44  H   UNL     1       4.188   7.434   4.915  0.00  0.00    +0.211 HD
ENDBRANCH  42  43
ENDBRANCH  39  42
ENDBRANCH  29  39
BRANCH  32  45
ATOM     45  C   UNL     1       0.992   2.014   4.956  0.00  0.00    +0.190 C 
BRANCH  45  46
ATOM     46  O   UNL     1       0.754   1.480   6.262  0.00  0.00    -0.392 OA
ATOM     47  H   UNL     1       1.090   2.156   6.885  0.00  0.00    +0.210 HD
ENDBRANCH  45  46
ENDBRANCH  32  45
ENDBRANCH  28  30
ENDBRANCH   1  28
TORSDOF 18
