REMARK  Name = 
REMARK  2 active torsions:
REMARK  status: ('A' for Active; 'I' for Inactive)
REMARK    1  A    between atoms: C_2  and  C_22
REMARK    2  A    between atoms: N_6  and  C_9
REMARK                            x       y       z     vdW  Elec       q    Type
REMARK                         _______ _______ _______ _____ _____    ______ ____
ROOT
ATOM      1  O   UNL     1       1.166   0.078  -0.217  0.00  0.00    -0.270 OA
ATOM      2  C   UNL     1       2.364  -0.073   0.018  0.00  0.00    +0.247 C 
ATOM      3  N   UNL     1       3.191   0.987   0.433  0.00  0.00    -0.295 N 
ATOM      4  C   UNL     1       2.494   2.177   0.924  0.00  0.00    +0.123 C 
ATOM      5  C   UNL     1       3.382   3.405   1.197  0.00  0.00    +0.104 C 
ATOM      6  N   UNL     1       4.701   3.154   1.787  0.00  0.00    -0.289 NA
ATOM      7  C   UNL     1       5.386   2.121   0.999  0.00  0.00    +0.104 C 
ATOM      8  C   UNL     1       4.592   0.824   0.832  0.00  0.00    +0.123 C 
ENDROOT
BRANCH   6   9
ATOM      9  C   UNL     1       4.767   3.051   3.260  0.00  0.00    +0.118 C 
ATOM     10  C   UNL     1       4.230   1.789   3.941  0.00  0.00    -0.018 A 
ATOM     11  C   UNL     1       5.291   1.052   4.515  0.00  0.00    -0.013 A 
ATOM     12  C   UNL     1       5.070  -0.197   5.077  0.00  0.00    +0.009 A 
ATOM     13  C   UNL     1       3.764  -0.692   5.112  0.00  0.00    +0.001 A 
ATOM     14  C   UNL     1       2.695   0.095   4.664  0.00  0.00    +0.000 A 
ATOM     15  C   UNL     1       6.503   1.837   4.432  0.00  0.00    -0.013 A 
ATOM     16  C   UNL     1       7.758   1.608   4.969  0.00  0.00    +0.009 A 
ATOM     17  C   UNL     1       8.751   2.570   4.779  0.00  0.00    +0.001 A 
ATOM     18  C   UNL     1       8.481   3.749   4.054  0.00  0.00    +0.000 A 
ATOM     19  C   UNL     1       7.213   3.987   3.524  0.00  0.00    +0.006 A 
ATOM     20  C   UNL     1       2.925   1.358   4.116  0.00  0.00    +0.006 A 
ATOM     21  C   UNL     1       6.227   3.029   3.729  0.00  0.00    -0.018 A 
ENDBRANCH   6   9
BRANCH   2  22
ATOM     22  C   UNL     1       2.925  -1.441  -0.174  0.00  0.00    +0.038 A 
ATOM     23  C   UNL     1       3.768  -2.035   0.770  0.00  0.00    +0.015 A 
ATOM     24  C   UNL     1       4.370  -3.273   0.541  0.00  0.00    +0.027 A 
ATOM     25  C   UNL     1       3.978  -3.965  -0.603  0.00  0.00    +0.046 A 
ATOM     26  N   UNL     1       4.355  -5.211  -1.048  0.00  0.00    -0.361 N 
ATOM     27  H   UNL     1       5.031  -5.801  -0.584  0.00  0.00    +0.165 HD
ATOM     28  C   UNL     1       3.638  -5.547  -2.163  0.00  0.00    +0.083 A 
ATOM     29  C   UNL     1       2.829  -4.479  -2.483  0.00  0.00    +0.027 A 
ATOM     30  C   UNL     1       3.045  -3.463  -1.511  0.00  0.00    +0.000 A 
ATOM     31  C   UNL     1       2.523  -2.169  -1.307  0.00  0.00    +0.023 A 
ENDBRANCH   2  22
TORSDOF 2
