REMARK  Name = 
REMARK  8 active torsions:
REMARK  status: ('A' for Active; 'I' for Inactive)
REMARK    1  A    between atoms: C_1  and  C_2
REMARK    2  A    between atoms: C_4  and  O_10
REMARK    3  A    between atoms: C_6  and  C_7
REMARK    4  A    between atoms: C_6  and  C_8
REMARK    5  A    between atoms: O_10  and  C_11
REMARK    6  A    between atoms: C_11  and  C_13
REMARK    7  A    between atoms: C_13  and  O_14
REMARK    8  A    between atoms: C_13  and  C_15
REMARK                            x       y       z     vdW  Elec       q    Type
REMARK                         _______ _______ _______ _____ _____    ______ ____
ROOT
ATOM      1  C   UNL     1       2.500  -4.074  -1.777  0.00  0.00    +0.341 C 
ATOM      2  O   UNL     1       1.485  -4.032  -1.085  0.00  0.00    -0.248 OA
ENDROOT
BRANCH   1   3
ATOM      3  O   UNL     1       3.174  -2.987  -2.256  0.00  0.00    -0.459 OA
BRANCH   3  11
ATOM      4  C   UNL     1       1.092   0.025   0.366  0.00  0.00    +0.007 C 
ATOM      5  C   UNL     1       2.570   0.044  -0.027  0.00  0.00    -0.010 C 
ATOM      6  C   UNL     1       2.914   1.117  -1.075  0.00  0.00    +0.010 C 
ATOM      7  C   UNL     1       2.602   0.766  -2.552  0.00  0.00    -0.031 C 
ATOM      8  C   UNL     1       3.329   1.787  -3.455  0.00  0.00    +0.011 C 
ATOM      9  C   UNL     1       1.099   0.890  -2.864  0.00  0.00    +0.011 C 
ATOM     10  C   UNL     1       3.114  -0.655  -2.877  0.00  0.00    +0.051 C 
ATOM     11  C   UNL     1       2.616  -1.710  -1.882  0.00  0.00    +0.177 C 
ATOM     12  C   UNL     1       3.061  -1.341  -0.462  0.00  0.00    +0.048 C 
ENDBRANCH   3  11
ENDBRANCH   1   3
BRANCH   1  13
ATOM     13  C   UNL     1       3.171  -5.386  -2.194  0.00  0.00    +0.253 C 
BRANCH  13  14
ATOM     14  C   UNL     1       2.716  -5.872  -3.554  0.00  0.00    -0.008 A 
ATOM     15  C   UNL     1       1.361  -6.139  -3.815  0.00  0.00    +0.007 A 
ATOM     16  C   UNL     1       0.958  -6.633  -5.058  0.00  0.00    +0.000 A 
ATOM     17  C   UNL     1       1.902  -6.865  -6.054  0.00  0.00    +0.000 A 
ATOM     18  C   UNL     1       3.249  -6.599  -5.811  0.00  0.00    +0.000 A 
ATOM     19  C   UNL     1       3.654  -6.109  -4.569  0.00  0.00    +0.007 A 
ENDBRANCH  13  14
BRANCH  13  20
ATOM     20  O   UNL     1       2.895  -6.424  -1.248  0.00  0.00    -0.376 OA
ATOM     21  H   UNL     1       1.953  -6.326  -1.011  0.00  0.00    +0.211 HD
ENDBRANCH  13  20
ENDBRANCH   1  13
TORSDOF 5
