REMARK  Name = 
REMARK  7 active torsions:
REMARK  status: ('A' for Active; 'I' for Inactive)
REMARK    1  A    between atoms: C_1  and  C_2
REMARK    2  A    between atoms: N_4  and  CA_5
REMARK    3  A    between atoms: CA_5  and  CB_7
REMARK    4  A    between atoms: CA_5  and  C_12
REMARK    5  A    between atoms: CB_7  and  CG_8
REMARK    6  A    between atoms: CG_8  and  CD_9
REMARK    7  A    between atoms: C_12  and  O_13
REMARK                            x       y       z     vdW  Elec       q    Type
REMARK                         _______ _______ _______ _____ _____    ______ ____
ROOT
ATOM      1  CA  GLN A   1       4.589  -1.113  -0.494  0.00  0.00    +0.182 C 
ENDROOT
BRANCH   1   4
ATOM      2  C   UNK A   0       0.915  -0.144  -0.500  0.00  0.00    +0.109 C 
ATOM      3  C   UNK A   0       2.405   0.045  -0.490  0.00  0.00    +0.211 C 
ATOM      4  N   GLN A   1       3.126  -1.122  -0.441  0.00  0.00    -0.303 N 
ATOM      5  H   GLN A   1       2.660  -2.024  -0.398  0.00  0.00    +0.149 HD
ATOM      6  O   UNK A   0       2.921   1.157  -0.554  0.00  0.00    -0.276 OA
ENDBRANCH   1   4
BRANCH   1   7
ATOM      7  C   GLN A   1       5.050  -2.329  -1.301  0.00  0.00    +0.325 C 
ATOM      8  OXT GLN A   1       4.583  -3.453  -1.157  0.00  0.00    -0.249 OA
BRANCH   7   9
ATOM      9  O   GLN A   1       6.042  -2.062  -2.182  0.00  0.00    -0.479 OA
ATOM     10  H   GLN A   1       6.374  -1.132  -2.138  0.00  0.00    +0.295 HD
ENDBRANCH   7   9
ENDBRANCH   1   7
BRANCH   1  11
ATOM     11  CB  GLN A   1       5.168  -1.130   0.927  0.00  0.00    +0.043 C 
BRANCH  11  12
ATOM     12  CG  GLN A   1       6.693  -1.212   1.020  0.00  0.00    +0.098 C 
BRANCH  12  13
ATOM     13  CD  GLN A   1       7.378  -0.089   0.277  0.00  0.00    +0.211 C 
ATOM     14  OE1 GLN A   1       7.243   0.073  -0.932  0.00  0.00    -0.276 OA
ATOM     15  NE2 GLN A   1       8.163   0.723   1.034  0.00  0.00    -0.329 N 
ATOM     16 HE21 GLN A   1       8.664   1.471   0.571  0.00  0.00    +0.145 HD
ATOM     17 HE22 GLN A   1       8.406   0.518   1.995  0.00  0.00    +0.145 HD
ENDBRANCH  12  13
ENDBRANCH  11  12
ENDBRANCH   1  11
TORSDOF 6
