REMARK  Name = 
REMARK  3 active torsions:
REMARK  status: ('A' for Active; 'I' for Inactive)
REMARK    1  A    between atoms: O_1  and  B_2
REMARK    2  A    between atoms: B_2  and  O_3
REMARK    3  A    between atoms: B_2  and  C_4
REMARK                            x       y       z     vdW  Elec       q    Type
REMARK                         _______ _______ _______ _____ _____    ______ ____
ROOT
ATOM      1  C   UNL     1       3.149   0.386   1.132  0.00  0.00    +0.000 A 
ATOM      2  S   UNL     1       3.978  -0.799   2.011  0.00  0.00    +0.000 S 
ATOM      3  C   UNL     1       4.463   0.243   3.237  0.00  0.00    +0.000 A 
ATOM      4  C   UNL     1       5.225  -0.047   4.365  0.00  0.00    +0.000 A 
ATOM      5  C   UNL     1       5.508   0.996   5.261  0.00  0.00    +0.000 A 
ATOM      6  C   UNL     1       5.027   2.297   5.012  0.00  0.00    +0.000 A 
ATOM      7  C   UNL     1       4.261   2.565   3.866  0.00  0.00    +0.000 A 
ATOM      8  C   UNL     1       3.984   1.520   2.978  0.00  0.00    +0.000 A 
ATOM      9  C   UNL     1       3.244   1.611   1.796  0.00  0.00    +0.000 A 
ENDROOT
BRANCH   1  10
ATOM     10  B   UNL     1       2.397   0.131  -0.220  0.00  0.00    +0.000 B 
BRANCH  10  11
ATOM     11  O   UNL     1       2.352  -1.213  -0.793  0.00  0.00    +0.000 OA
ATOM     12  H   UNL     1       2.812  -1.133  -1.667  0.00  0.00    +0.000 HD
ENDBRANCH  10  11
BRANCH  10  13
ATOM     13  O   UNL     1       1.739   1.234  -0.917  0.00  0.00    +0.000 OA
ATOM     14  H   UNL     1       0.781   0.980  -0.948  0.00  0.00    +0.000 HD
ENDBRANCH  10  13
ENDBRANCH   1  10
TORSDOF 3
