REMARK  Name = 
REMARK  33 active torsions:
REMARK  status: ('A' for Active; 'I' for Inactive)
REMARK    1  A    between atoms: O_1  and  C_2
REMARK    2  A    between atoms: C_2  and  C_4
REMARK    3  A    between atoms: C_2  and  C_43
REMARK    4  A    between atoms: C_4  and  C_5
REMARK    5  A    between atoms: C_4  and  C_6
REMARK    6  A    between atoms: C_4  and  C_7
REMARK    7  A    between atoms: C_7  and  O_8
REMARK    8  A    between atoms: O_8  and  P_9
REMARK    9  A    between atoms: P_9  and  O_11
REMARK   10  A    between atoms: P_9  and  O_12
REMARK   11  A    between atoms: O_12  and  P_13
REMARK   12  A    between atoms: P_13  and  O_15
REMARK   13  A    between atoms: P_13  and  O_16
REMARK   14  A    between atoms: O_16  and  C_17
REMARK   15  A    between atoms: C_17  and  C_18
REMARK   16  A    between atoms: C_21  and  N_33
REMARK   17  A    between atoms: C_23  and  O_25
REMARK   18  A    between atoms: C_26  and  O_28
REMARK   19  A    between atoms: O_28  and  P_29
REMARK   20  A    between atoms: P_29  and  O_30
REMARK   21  A    between atoms: P_29  and  O_31
REMARK   22  A    between atoms: N_45  and  C_46
REMARK   23  A    between atoms: C_46  and  C_47
REMARK   24  A    between atoms: C_47  and  C_48
REMARK   25  A    between atoms: N_50  and  C_51
REMARK   26  A    between atoms: C_51  and  C_52
REMARK   27  A    between atoms: C_52  and  S_53
REMARK   28  A    between atoms: S_53  and  C_54
REMARK   29  A    between atoms: C_54  and  C_56
REMARK   30  A    between atoms: C_57  and  C_58
REMARK   31  A    between atoms: C_61  and  N_62
REMARK   32  A    between atoms: N_62  and  C_63
REMARK   33  A    between atoms: N_62  and  C_64
REMARK                            x       y       z     vdW  Elec       q    Type
REMARK                         _______ _______ _______ _____ _____    ______ ____
ROOT
ATOM      1  P   UNL     1       6.998  -5.771  -4.804  0.00  0.00    +0.483 P 
ATOM      2  O   UNL     1       7.630  -4.625  -5.544  0.00  0.00    -0.227 OA
ENDROOT
BRANCH   1   3
ATOM      3  O   UNL     1       7.460  -5.838  -3.293  0.00  0.00    -0.302 OA
ATOM      4  H   UNL     1       7.405  -6.782  -3.079  0.00  0.00    +0.222 HD
ENDBRANCH   1   3
BRANCH   1   5
ATOM      5  O   UNL     1       7.832  -7.107  -5.118  0.00  0.00    -0.286 OA
BRANCH   5   6
ATOM      6  C   UNL     1       8.974  -7.796  -4.687  0.00  0.00    +0.181 C 
BRANCH   6   7
ATOM      7  C   UNL     1       9.694  -7.765  -3.322  0.00  0.00    +0.024 C 
ATOM      8  C   UNL     1      11.016  -8.554  -3.656  0.00  0.00    +0.016 C 
ATOM      9  C   UNL     1      10.141  -6.331  -3.008  0.00  0.00    +0.016 C 
BRANCH   7  10
ATOM     10  C   UNL     1       9.056  -8.605  -2.144  0.00  0.00    +0.208 C 
BRANCH  10  11
ATOM     11  C   UNL     1       7.833  -8.159  -1.303  0.00  0.00    +0.242 C 
ATOM     12  N   UNL     1       6.737  -9.010  -1.404  0.00  0.00    -0.313 N 
ATOM     13  H   UNL     1       6.824  -9.714  -2.135  0.00  0.00    +0.149 HD
ATOM     14  O   UNL     1       7.836  -7.142  -0.622  0.00  0.00    -0.273 OA
BRANCH  12  15
ATOM     15  C   UNL     1       5.398  -8.683  -0.930  0.00  0.00    +0.113 C 
BRANCH  15  16
ATOM     16  C   UNL     1       4.987  -7.283  -1.272  0.00  0.00    +0.114 C 
BRANCH  16  17
ATOM     17  C   UNL     1       5.420  -6.854  -2.661  0.00  0.00    +0.215 C 
ATOM     18  N   UNL     1       5.682  -7.994  -3.687  0.00  0.00    -0.314 N 
ATOM     19  H   UNL     1       5.042  -8.719  -3.388  0.00  0.00    +0.149 HD
ATOM     20  O   UNL     1       5.352  -5.622  -2.848  0.00  0.00    -0.276 OA
BRANCH  18  21
ATOM     21  C   UNL     1       5.958  -8.479  -5.355  0.00  0.00    +0.115 C 
BRANCH  21  22
ATOM     22  C   UNL     1       6.314  -7.707  -6.847  0.00  0.00    +0.096 C 
BRANCH  22  23
ATOM     23  S   UNL     1       6.544  -9.016  -8.048  0.00  0.00    -0.082 S 
BRANCH  23  24
ATOM     24  C   UNL     1       7.959  -9.525  -7.289  0.00  0.00    +0.213 C 
ATOM     25  O   UNL     1       7.999 -10.479  -6.563  0.00  0.00    -0.280 OA
BRANCH  24  26
ATOM     26  C   UNL     1       9.115  -8.699  -7.618  0.00  0.00    +0.058 C 
ATOM     27  C   UNL     1       9.759  -9.581  -8.395  0.00  0.00    +0.012 C 
BRANCH  27  28
ATOM     28  C   UNL     1       9.781  -9.297  -9.815  0.00  0.00    -0.025 A 
ATOM     29  C   UNL     1       9.546 -10.282 -10.769  0.00  0.00    +0.010 A 
ATOM     30  C   UNL     1       9.509  -9.996 -12.166  0.00  0.00    +0.023 A 
ATOM     31  C   UNL     1       9.677  -8.714 -12.712  0.00  0.00    +0.029 A 
ATOM     32  C   UNL     1       9.800  -7.798 -11.638  0.00  0.00    +0.023 A 
ATOM     33  C   UNL     1       9.838  -8.021 -10.262  0.00  0.00    +0.010 A 
BRANCH  31  34
ATOM     34  N   UNL     1       9.706  -8.494 -14.109  0.00  0.00    -0.336 N 
ATOM     35  C   UNL     1       8.857  -9.418 -14.898  0.00  0.00    +0.129 C 
ATOM     36  C   UNL     1      10.011  -7.435 -15.171  0.00  0.00    +0.129 C 
ENDBRANCH  31  34
ENDBRANCH  27  28
ENDBRANCH  24  26
ENDBRANCH  23  24
ENDBRANCH  22  23
ENDBRANCH  21  22
ENDBRANCH  18  21
ENDBRANCH  16  17
ENDBRANCH  15  16
ENDBRANCH  12  15
ENDBRANCH  10  11
BRANCH  10  37
ATOM     37  O   UNL     1       8.748  -9.929  -2.636  0.00  0.00    -0.382 OA
ATOM     38  H   UNL     1       9.417 -10.528  -2.256  0.00  0.00    +0.210 HD
ENDBRANCH  10  37
ENDBRANCH   7  10
ENDBRANCH   6   7
ENDBRANCH   5   6
ENDBRANCH   1   5
BRANCH   1  39
ATOM     39  O   UNL     1       5.402  -6.093  -5.197  0.00  0.00    -0.186 OA
BRANCH  39  40
ATOM     40  P   UNL     1       3.815  -6.786  -5.176  0.00  0.00    +0.483 P 
ATOM     41  O   UNL     1       3.589  -6.804  -3.644  0.00  0.00    -0.227 OA
BRANCH  40  42
ATOM     42  O   UNL     1       3.486  -8.366  -5.275  0.00  0.00    -0.302 OA
ATOM     43  H   UNL     1       2.636  -8.529  -4.813  0.00  0.00    +0.222 HD
ENDBRANCH  40  42
BRANCH  40  44
ATOM     44  O   UNL     1       4.067  -6.766  -6.887  0.00  0.00    -0.284 OA
BRANCH  44  45
ATOM     45  C   UNL     1       3.137  -7.358  -7.777  0.00  0.00    +0.206 C 
BRANCH  45  46
ATOM     46  C   UNL     1       3.473  -7.070  -9.267  0.00  0.00    +0.179 C 
ATOM     47  C   UNL     1       3.507  -5.591  -9.501  0.00  0.00    +0.194 C 
ATOM     48  C   UNL     1       4.922  -5.204  -9.906  0.00  0.00    +0.196 C 
ATOM     49  C   UNL     1       5.607  -6.540 -10.227  0.00  0.00    +0.253 C 
ATOM     50  O   UNL     1       4.645  -7.599  -9.974  0.00  0.00    -0.346 OA
BRANCH  49  51
ATOM     51  N   UNL     1       6.275  -6.499 -11.547  0.00  0.00    -0.286 N 
ATOM     52  C   UNL     1       7.236  -5.526 -11.791  0.00  0.00    +0.167 A 
ATOM     53  N   UNL     1       7.509  -4.496 -10.972  0.00  0.00    -0.216 NA
ATOM     54  C   UNL     1       8.601  -3.823 -11.369  0.00  0.00    +0.225 A 
ATOM     55  N   UNL     1       9.425  -4.085 -12.378  0.00  0.00    -0.219 NA
ATOM     56  C   UNL     1       9.244  -5.220 -13.058  0.00  0.00    +0.147 A 
ATOM     57  N   UNL     1      10.516  -5.717 -13.381  0.00  0.00    -0.341 N 
ATOM     58  H   UNL     1      10.674  -6.727 -13.286  0.00  0.00    +0.144 HD
ATOM     59  H   UNL     1      11.342  -5.204 -13.113  0.00  0.00    +0.144 HD
ATOM     60  C   UNL     1       7.954  -5.916 -12.911  0.00  0.00    +0.147 A 
ATOM     61  N   UNL     1       7.291  -7.063 -13.417  0.00  0.00    -0.231 NA
ATOM     62  C   UNL     1       6.304  -7.376 -12.578  0.00  0.00    +0.203 A 
ENDBRANCH  49  51
BRANCH  48  63
ATOM     63  O   UNL     1       5.550  -4.480  -8.860  0.00  0.00    -0.385 OA
ATOM     64  H   UNL     1       6.452  -4.280  -9.193  0.00  0.00    +0.210 HD
ENDBRANCH  48  63
BRANCH  47  65
ATOM     65  O   UNL     1       2.694  -5.547 -10.639  0.00  0.00    -0.278 OA
BRANCH  65  66
ATOM     66  P   UNL     1       2.601  -3.999 -11.407  0.00  0.00    +0.473 P 
ATOM     67  O   UNL     1       2.518  -2.615 -12.095  0.00  0.00    -0.228 OA
BRANCH  66  68
ATOM     68  O   UNL     1       1.158  -3.870 -10.647  0.00  0.00    -0.303 OA
ATOM     69  H   UNL     1       1.198  -3.269  -9.886  0.00  0.00    +0.222 HD
ENDBRANCH  66  68
BRANCH  66  70
ATOM     70  O   UNL     1       2.073  -4.835 -12.709  0.00  0.00    -0.303 OA
ATOM     71  H   UNL     1       2.796  -5.123 -13.288  0.00  0.00    +0.222 HD
ENDBRANCH  66  70
ENDBRANCH  65  66
ENDBRANCH  47  65
ENDBRANCH  45  46
ENDBRANCH  44  45
ENDBRANCH  40  44
ENDBRANCH  39  40
ENDBRANCH   1  39
TORSDOF 29
