REMARK  Name = 
REMARK  15 active torsions:
REMARK  status: ('A' for Active; 'I' for Inactive)
REMARK    1  A    between atoms: C_1  and  N_2
REMARK    2  A    between atoms: N_2  and  C_3
REMARK    3  A    between atoms: C_5  and  O_7
REMARK    4  A    between atoms: O_7  and  C_8
REMARK    5  A    between atoms: C_10  and  O_12
REMARK    6  A    between atoms: O_12  and  C_13
REMARK    7  A    between atoms: C_13  and  C_15
REMARK    8  A    between atoms: C_16  and  O_17
REMARK    9  A    between atoms: C_23  and  O_24
REMARK   10  A    between atoms: O_24  and  C_25
REMARK   11  A    between atoms: C_27  and  C_28
REMARK   12  A    between atoms: C_33  and  C_41
REMARK   13  A    between atoms: C_49  and  C_51
REMARK   14  A    between atoms: C_52  and  O_54
REMARK   15  A    between atoms: C_55  and  O_57
REMARK                            x       y       z     vdW  Elec       q    Type
REMARK                         _______ _______ _______ _____ _____    ______ ____
ROOT
ATOM      1  C   UNL     1       5.034  -0.453  -1.152  0.00  0.00    +0.198 C 
ATOM      2  C   UNL     1       4.589  -0.960  -2.575  0.00  0.00    +0.008 C 
ATOM      3  C   UNL     1       5.736  -1.686  -3.126  0.00  0.00    +0.031 C 
ATOM      4  C   UNL     1       5.600  -2.576  -4.236  0.00  0.00    -0.063 C 
ATOM      5  C   UNL     1       5.221  -2.882  -5.337  0.00  0.00    -0.055 C 
ATOM      6  C   UNL     1       4.581  -2.482  -6.578  0.00  0.00    +0.208 C 
ATOM      7  C   UNL     1       5.449  -0.919  -6.873  0.00  0.00    +0.243 C 
ATOM      8  C   UNL     1       4.664  -0.142  -5.928  0.00  0.00    -0.062 C 
ATOM      9  C   UNL     1       4.185  -0.008  -4.826  0.00  0.00    -0.071 C 
ATOM     10  O   UNL     1       5.210  -2.018  -7.709  0.00  0.00    -0.334 OA
ATOM     11  C   UNL     1       6.862  -1.105  -2.710  0.00  0.00    +0.037 C 
ATOM     12  C   UNL     1       3.807  -0.271  -3.460  0.00  0.00    +0.067 C 
ATOM     13  C   UNL     1       6.638  -0.270  -1.475  0.00  0.00    +0.234 C 
ENDROOT
BRANCH   6  14
ATOM     14  C   UNL     1       3.060  -2.426  -6.691  0.00  0.00    +0.265 C 
ATOM     15  O   UNL     1       2.412  -3.688  -6.611  0.00  0.00    -0.423 OA
ATOM     16  C   UNL     1       1.204  -3.498  -7.241  0.00  0.00    +0.511 C 
ATOM     17  O   UNL     1       0.233  -4.222  -7.115  0.00  0.00    -0.203 OA
ATOM     18  O   UNL     1       1.226  -2.380  -8.032  0.00  0.00    -0.430 OA
ATOM     19  C   UNL     1       2.571  -1.948  -8.036  0.00  0.00    +0.284 C 
ENDBRANCH   6  14
BRANCH   1  20
ATOM     20  O   UNL     1       4.503   0.819  -0.729  0.00  0.00    -0.338 OA
BRANCH  20  27
ATOM     21  C   UNL     1       2.378   0.597   0.851  0.00  0.00    +0.141 C 
ATOM     22  C   UNL     1       1.090   1.499   1.008  0.00  0.00    +0.167 C 
ATOM     23  C   UNL     1       0.209   1.425  -0.245  0.00  0.00    +0.173 C 
ATOM     24  C   UNL     1       1.036   1.671  -1.513  0.00  0.00    +0.149 C 
ATOM     25  C   UNL     1       0.211   1.248  -2.729  0.00  0.00    +0.041 C 
ATOM     26  O   UNL     1       2.248   0.909  -1.538  0.00  0.00    -0.344 OA
ATOM     27  C   UNL     1       3.123   1.133  -0.429  0.00  0.00    +0.271 C 
BRANCH  21  29
ATOM     28  C   UNL     1       3.760  -0.635   2.448  0.00  0.00    +0.101 C 
ATOM     29  N   UNL     1       3.112   0.630   2.129  0.00  0.00    -0.310 NA
ATOM     30  H   UNL     1       2.470   0.884   2.887  0.00  0.00    +0.122 HD
ENDBRANCH  21  29
BRANCH  22  31
ATOM     31  O   UNL     1       0.298   1.125   2.155  0.00  0.00    -0.387 OA
ATOM     32  H   UNL     1       0.290   0.156   2.222  0.00  0.00    +0.210 HD
ENDBRANCH  22  31
BRANCH  23  33
ATOM     33  O   UNL     1      -0.859   2.378  -0.185  0.00  0.00    -0.387 OA
ATOM     34  H   UNL     1      -1.432   2.119   0.560  0.00  0.00    +0.210 HD
ENDBRANCH  23  33
ENDBRANCH  20  27
ENDBRANCH   1  20
BRANCH  13  35
ATOM     35  O   UNL     1       7.770  -0.638  -0.617  0.00  0.00    -0.451 OA
BRANCH  35  36
ATOM     36  C   UNL     1       7.793  -1.793   0.081  0.00  0.00    +0.344 C 
ATOM     37  O   UNL     1       6.762  -2.294   0.532  0.00  0.00    -0.245 OA
BRANCH  36  38
ATOM     38  C   UNL     1       9.114  -2.566   0.127  0.00  0.00    +0.108 A 
ATOM     39  C   UNL     1      10.451  -2.054  -0.005  0.00  0.00    +0.003 A 
ATOM     40  C   UNL     1      10.761  -0.682   0.023  0.00  0.00    +0.055 A 
ATOM     41  C   UNL     1      12.080  -0.203  -0.012  0.00  0.00    +0.121 A 
ATOM     42  C   UNL     1      13.145  -1.070  -0.168  0.00  0.00    +0.049 A 
ATOM     43  C   UNL     1      12.915  -2.454  -0.257  0.00  0.00    -0.039 A 
ATOM     44  C   UNL     1      14.090  -3.370  -0.538  0.00  0.00    +0.044 C 
ATOM     45  C   UNL     1      11.580  -2.953  -0.098  0.00  0.00    -0.014 A 
ATOM     46  C   UNL     1      11.336  -4.330   0.019  0.00  0.00    +0.012 A 
ATOM     47  C   UNL     1      10.067  -4.826   0.267  0.00  0.00    +0.047 A 
ATOM     48  C   UNL     1       8.981  -3.961   0.322  0.00  0.00    +0.131 A 
BRANCH  41  49
ATOM     49  O   UNL     1      12.138   1.161   0.170  0.00  0.00    -0.495 OA
ATOM     50  C   UNL     1      13.400   1.807   0.193  0.00  0.00    +0.277 C 
ENDBRANCH  41  49
BRANCH  48  51
ATOM     51  O   UNL     1       7.793  -4.585   0.608  0.00  0.00    -0.506 OA
ATOM     52  H   UNL     1       7.110  -3.900   0.775  0.00  0.00    +0.292 HD
ENDBRANCH  48  51
ENDBRANCH  36  38
ENDBRANCH  35  36
ENDBRANCH  13  35
TORSDOF 11
