REMARK  Name = 
REMARK  20 active torsions:
REMARK  status: ('A' for Active; 'I' for Inactive)
REMARK    1  A    between atoms: N_4  and  C_5
REMARK    2  A    between atoms: C_5  and  C_6
REMARK    3  A    between atoms: C_6  and  C_7
REMARK    4  A    between atoms: C_7  and  C_8
REMARK    5  A    between atoms: C_8  and  C_9
REMARK    6  A    between atoms: C_9  and  N_11
REMARK    7  A    between atoms: C_9  and  C_59
REMARK    8  A    between atoms: C_12  and  C_14
REMARK    9  A    between atoms: C_14  and  C_16
REMARK   10  A    between atoms: C_14  and  N_24
REMARK   11  A    between atoms: C_16  and  C_17
REMARK   12  A    between atoms: C_20  and  O_21
REMARK   13  A    between atoms: C_25  and  C_27
REMARK   14  A    between atoms: C_32  and  C_34
REMARK   15  A    between atoms: C_34  and  C_36
REMARK   16  A    between atoms: C_34  and  N_43
REMARK   17  A    between atoms: C_36  and  C_37
REMARK   18  A    between atoms: C_44  and  C_46
REMARK   19  A    between atoms: C_50  and  C_52
REMARK   20  A    between atoms: C_52  and  N_53
REMARK                            x       y       z     vdW  Elec       q    Type
REMARK                         _______ _______ _______ _____ _____    ______ ____
ROOT
ATOM      1  N   UNL     1       8.577  11.441   7.261  0.00  0.00    -0.302 N 
ATOM      2  H   UNL     1       8.501  10.450   7.071  0.00  0.00    +0.150 HD
ATOM      3  C   UNL     1       7.474  12.243   7.022  0.00  0.00    +0.234 C 
ATOM      4  O   UNL     1       7.475  13.415   7.422  0.00  0.00    -0.274 OA
ENDROOT
BRANCH   3   5
ATOM      5  C   UNL     1       6.204  11.567   6.359  0.00  0.00    +0.163 C 
ATOM      6  N   UNL     1       6.301  10.227   5.723  0.00  0.00    -0.288 N 
ATOM      7  C   UNL     1       5.924   9.830   4.436  0.00  0.00    +0.237 C 
ATOM      8  O   UNL     1       5.278   8.790   4.275  0.00  0.00    -0.274 OA
ATOM      9  C   UNL     1       5.807   9.547   6.938  0.00  0.00    +0.111 C 
ATOM     10  C   UNL     1       5.268  10.897   7.397  0.00  0.00    +0.051 C 
BRANCH   7  11
ATOM     11  C   UNL     1       6.287  10.727   3.208  0.00  0.00    +0.159 C 
BRANCH  11  12
ATOM     12  N   UNL     1       5.131  11.582   2.807  0.00  0.00    -0.304 N 
ATOM     13  H   UNL     1       4.200  11.179   2.817  0.00  0.00    +0.149 HD
ATOM     14  C   UNL     1       5.350  12.693   1.998  0.00  0.00    +0.217 C 
ATOM     15  O   UNL     1       6.492  13.044   1.702  0.00  0.00    -0.275 OA
BRANCH  14  16
ATOM     16  C   UNL     1       4.139  13.484   1.470  0.00  0.00    +0.075 C 
ATOM     17  C   UNL     1       3.393  12.805   0.311  0.00  0.00    +0.013 C 
ATOM     18  C   UNL     1       2.190  13.638  -0.171  0.00  0.00    +0.007 C 
ATOM     19  C   UNL     1       1.231  14.027   0.966  0.00  0.00    +0.027 C 
ATOM     20  C   UNL     1       2.023  14.749   2.069  0.00  0.00    +0.007 C 
ATOM     21  C   UNL     1       3.198  13.918   2.596  0.00  0.00    +0.013 C 
BRANCH  19  22
ATOM     22  C   UNL     1       0.457  12.799   1.484  0.00  0.00    +0.247 C 
BRANCH  22  23
ATOM     23  N   UNL     1      -0.497  13.226   2.503  0.00  0.00    -0.114 NA
ATOM     24  C   UNL     1      -1.155  12.324   3.131  0.00  0.00    +0.376 C 
ATOM     25  N   UNL     1      -2.067  12.702   4.060  0.00  0.00    -0.289 N 
ATOM     26  H   UNL     1      -2.067  12.170   4.916  0.00  0.00    +0.255 HD
ATOM     27  H   UNL     1      -2.001  13.699   4.236  0.00  0.00    +0.255 HD
ATOM     28  N   UNL     1      -1.104  10.988   3.009  0.00  0.00    -0.289 N 
ATOM     29  H   UNL     1      -1.517  10.396   3.710  0.00  0.00    +0.255 HD
ATOM     30  H   UNL     1      -0.387  10.569   2.436  0.00  0.00    +0.255 HD
ENDBRANCH  22  23
ENDBRANCH  19  22
ENDBRANCH  14  16
ENDBRANCH  11  12
BRANCH  11  31
ATOM     31  C   UNL     1       6.695   9.851   1.967  0.00  0.00    +0.035 C 
BRANCH  31  32
ATOM     32  C   UNL     1       7.895   8.878   2.117  0.00  0.00    -0.009 C 
ATOM     33  C   UNL     1       9.202   9.536   2.588  0.00  0.00    +0.003 C 
ATOM     34  C   UNL     1      10.006  10.225   1.484  0.00  0.00    +0.000 C 
ATOM     35  C   UNL     1      10.270   9.294   0.308  0.00  0.00    +0.000 C 
ATOM     36  C   UNL     1       8.957   8.767  -0.254  0.00  0.00    +0.000 C 
ATOM     37  C   UNL     1       8.139   8.052   0.825  0.00  0.00    +0.003 C 
ENDBRANCH  31  32
ENDBRANCH  11  31
ENDBRANCH   7  11
ENDBRANCH   3   5
BRANCH   1  38
ATOM     38  C   UNL     1       9.850  11.945   7.843  0.00  0.00    +0.163 C 
BRANCH  38  41
ATOM     39  N   UNL     1       8.791  13.049   9.791  0.00  0.00    -0.302 N 
ATOM     40  H   UNL     1       8.368  13.618   9.061  0.00  0.00    +0.150 HD
ATOM     41  C   UNL     1       9.812  12.217   9.388  0.00  0.00    +0.234 C 
ATOM     42  O   UNL     1      10.659  11.830  10.186  0.00  0.00    -0.274 OA
BRANCH  39  43
ATOM     43  C   UNL     1       8.508  13.379  11.202  0.00  0.00    +0.159 C 
BRANCH  43  44
ATOM     44  C   UNL     1       6.977  13.536  11.384  0.00  0.00    +0.231 C 
ATOM     45  O   UNL     1       6.422  13.601  12.479  0.00  0.00    -0.274 OA
ATOM     46  N   UNL     1       6.220  13.707  10.259  0.00  0.00    -0.328 N 
ATOM     47  H   UNL     1       5.222  13.761  10.406  0.00  0.00    +0.145 HD
ATOM     48  H   UNL     1       6.543  13.391   9.355  0.00  0.00    +0.145 HD
ENDBRANCH  43  44
BRANCH  43  49
ATOM     49  C   UNL     1       9.268  14.645  11.649  0.00  0.00    +0.032 C 
BRANCH  49  50
ATOM     50  C   UNL     1       9.069  14.999  13.136  0.00  0.00    +0.005 C 
BRANCH  50  51
ATOM     51  C   UNL     1       9.739  16.306  13.587  0.00  0.00    +0.041 C 
BRANCH  51  52
ATOM     52  C   UNL     1       9.230  17.509  12.798  0.00  0.00    +0.243 C 
BRANCH  52  57
ATOM     53  N   UNL     1       9.960  21.004  13.221  0.00  0.00    -0.289 N 
ATOM     54  H   UNL     1      10.636  20.830  13.958  0.00  0.00    +0.255 HD
ATOM     55  H   UNL     1      10.333  21.629  12.523  0.00  0.00    +0.255 HD
ATOM     56  C   UNL     1       9.490  19.832  12.746  0.00  0.00    +0.376 C 
ATOM     57  N   UNL     1       9.798  18.742  13.349  0.00  0.00    -0.114 NA
ATOM     58  N   UNL     1       8.710  20.015  11.662  0.00  0.00    -0.289 N 
ATOM     59  H   UNL     1       8.433  19.211  11.119  0.00  0.00    +0.255 HD
ATOM     60  H   UNL     1       8.748  20.891  11.165  0.00  0.00    +0.255 HD
ENDBRANCH  52  57
ENDBRANCH  51  52
ENDBRANCH  50  51
ENDBRANCH  49  50
ENDBRANCH  43  49
ENDBRANCH  39  43
ENDBRANCH  38  41
BRANCH  38  61
ATOM     61  C   UNL     1      11.064  11.088   7.401  0.00  0.00    +0.067 C 
BRANCH  61  62
ATOM     62  C   UNL     1      11.135   9.660   7.905  0.00  0.00    -0.045 A 
ATOM     63  C   UNL     1      11.886   9.362   9.054  0.00  0.00    +0.007 A 
ATOM     64  C   UNL     1      11.947   8.063   9.557  0.00  0.00    +0.045 A 
ATOM     65  C   UNL     1      11.268   7.045   8.907  0.00  0.00    +0.117 A 
ATOM     66  C   UNL     1      10.555   7.302   7.740  0.00  0.00    +0.045 A 
ATOM     67  C   UNL     1      10.495   8.607   7.236  0.00  0.00    +0.007 A 
BRANCH  65  68
ATOM     68  O   UNL     1      11.329   5.794   9.450  0.00  0.00    -0.507 OA
ATOM     69  H   UNL     1      10.705   5.221   8.978  0.00  0.00    +0.292 HD
ENDBRANCH  65  68
ENDBRANCH  61  62
ENDBRANCH  38  61
ENDBRANCH   1  38
TORSDOF 20
