REMARK  Name = 
REMARK  13 active torsions:
REMARK  status: ('A' for Active; 'I' for Inactive)
REMARK    1  A    between atoms: C_1  and  N_2
REMARK    2  A    between atoms: N_2  and  C_3
REMARK    3  A    between atoms: N_2  and  C_4
REMARK    4  A    between atoms: C_13  and  S_14
REMARK    5  A    between atoms: S_14  and  N_17
REMARK    6  A    between atoms: N_17  and  C_18
REMARK    7  A    between atoms: C_18  and  C_19
REMARK    8  A    between atoms: C_19  and  C_20
REMARK    9  A    between atoms: C_20  and  C_21
REMARK   10  A    between atoms: C_21  and  C_22
REMARK   11  A    between atoms: C_22  and  N_24
REMARK   12  A    between atoms: C_22  and  C_25
REMARK   13  A    between atoms: C_25  and  O_26
REMARK                            x       y       z     vdW  Elec       q    Type
REMARK                         _______ _______ _______ _____ _____    ______ ____
ROOT
ATOM      1  S   UNK     1       6.562   7.834  -9.532  0.00  0.00    +0.059 S 
ATOM      2  O   UNK     1       5.860   6.871  -8.711  0.00  0.00    -0.153 OA
ATOM      3  O   UNK     1       7.470   8.797  -8.947  0.00  0.00    -0.153 OA
ENDROOT
BRANCH   1   9
ATOM      4  C   UNK     1       2.641   8.174 -13.096  0.00  0.00    +0.037 A 
ATOM      5  C   UNK     1       3.582   8.803 -12.212  0.00  0.00    +0.005 A 
ATOM      6  C   UNK     1       3.688  10.212 -12.120  0.00  0.00    +0.010 A 
ATOM      7  C   UNK     1       4.617  10.854 -11.307  0.00  0.00    +0.003 A 
ATOM      8  C   UNK     1       5.464  10.102 -10.518  0.00  0.00    +0.029 A 
ATOM      9  C   UNK     1       5.367   8.707 -10.533  0.00  0.00    +0.113 A 
ATOM     10  C   UNK     1       4.420   8.026 -11.358  0.00  0.00    +0.010 A 
ATOM     11  C   UNK     1       4.248   6.618 -11.379  0.00  0.00    +0.010 A 
ATOM     12  C   UNK     1       3.338   6.000 -12.230  0.00  0.00    +0.002 A 
ATOM     13  C   UNK     1       2.561   6.773 -13.081  0.00  0.00    +0.024 A 
BRANCH   4  15
ATOM     14  C   UNK     1       0.467   8.386 -14.226  0.00  0.00    +0.129 C 
ATOM     15  N   UNK     1       1.794   8.934 -13.942  0.00  0.00    -0.336 N 
ATOM     16  C   UNK     1       2.450   9.615 -15.063  0.00  0.00    +0.129 C 
ENDBRANCH   4  15
ENDBRANCH   1   9
BRANCH   1  17
ATOM     17  N   UNK     1       7.444   6.966 -10.671  0.00  0.00    -0.190 NA
ATOM     18  H   UNK     1       7.037   6.049 -10.842  0.00  0.00    +0.148 HD
BRANCH  17  19
ATOM     19  C   UNK     1       8.059   7.694 -11.789  0.00  0.00    +0.106 C 
BRANCH  19  20
ATOM     20  C   UNK     1       8.836   6.741 -12.701  0.00  0.00    +0.017 C 
BRANCH  20  21
ATOM     21  C   UNK     1       7.920   5.692 -13.334  0.00  0.00    +0.003 C 
BRANCH  21  22
ATOM     22  C   UNK     1       8.648   4.764 -14.314  0.00  0.00    +0.030 C 
BRANCH  22  23
ATOM     23  C   UNK     1       7.740   3.657 -14.878  0.00  0.00    +0.161 C 
BRANCH  23  24
ATOM     24  N   UNK     1       6.558   4.233 -15.582  0.00  0.00    -0.318 NA
ATOM     25  H   UNK     1       6.905   4.842 -16.329  0.00  0.00    +0.119 HD
ATOM     26  H   UNK     1       6.087   3.469 -16.080  0.00  0.00    +0.119 HD
ENDBRANCH  23  24
BRANCH  23  27
ATOM     27  C   UNK     1       7.233   2.750 -13.744  0.00  0.00    +0.322 C 
ATOM     28  O   UNK     1       7.876   1.861 -13.210  0.00  0.00    -0.249 OA
BRANCH  27  29
ATOM     29  O   UNK     1       5.973   3.101 -13.365  0.00  0.00    -0.480 OA
ATOM     30  H   UNK     1       5.705   3.844 -13.962  0.00  0.00    +0.295 HD
ENDBRANCH  27  29
ENDBRANCH  23  27
ENDBRANCH  22  23
ENDBRANCH  21  22
ENDBRANCH  20  21
ENDBRANCH  19  20
ENDBRANCH  17  19
ENDBRANCH   1  17
TORSDOF 11
