REMARK  Name = 
REMARK  5 active torsions:
REMARK  status: ('A' for Active; 'I' for Inactive)
REMARK    1  A    between atoms: C_1  and  N_2
REMARK    2  A    between atoms: N_2  and  C_3
REMARK    3  A    between atoms: C_6  and  C_8
REMARK    4  A    between atoms: C_15  and  S_17
REMARK    5  A    between atoms: S_17  and  N_18
REMARK                            x       y       z     vdW  Elec       q    Type
REMARK                         _______ _______ _______ _____ _____    ______ ____
ROOT
ATOM      1  C   UNL     1       2.895  -1.103   0.729  0.00  0.00    +0.088 C 
ATOM      2  C   UNL     1       2.187  -2.426   0.627  0.00  0.00    +0.004 A 
ATOM      3  C   UNL     1       0.854  -2.726   1.075  0.00  0.00    +0.043 A 
ATOM      4  C   UNL     1       0.437  -3.990   0.706  0.00  0.00    +0.144 A 
ATOM      5  S   UNL     1       1.708  -4.883  -0.002  0.00  0.00    -0.050 S 
ATOM      6  C   UNL     1       2.766  -3.555   0.088  0.00  0.00    +0.132 A 
ATOM      7  S   UNL     1       4.409  -3.800  -0.494  0.00  0.00    +0.006 S 
ATOM      8  O   UNL     1       5.038  -4.623   0.520  0.00  0.00    -0.169 OA
ATOM      9  O   UNL     1       4.271  -4.231  -1.869  0.00  0.00    -0.169 OA
ATOM     10  C   UNL     1       5.109  -2.153  -0.408  0.00  0.00    +0.135 C 
ATOM     11  C   UNL     1       5.292  -1.542  -1.791  0.00  0.00    +0.032 C 
ATOM     12  C   UNL     1       4.444  -1.227   0.639  0.00  0.00    +0.049 C 
ENDROOT
BRANCH   1  14
ATOM     13  C   UNL     1       0.986   0.156  -0.180  0.00  0.00    +0.101 C 
ATOM     14  N   UNL     1       2.409  -0.178  -0.308  0.00  0.00    -0.312 NA
ATOM     15  H   UNL     1       2.919   0.701  -0.202  0.00  0.00    +0.122 HD
ENDBRANCH   1  14
BRANCH   4  16
ATOM     16  S   UNL     1      -1.138  -4.801   0.783  0.00  0.00    +0.062 S 
ATOM     17  O   UNL     1      -2.063  -3.759   1.166  0.00  0.00    -0.153 OA
ATOM     18  O   UNL     1      -0.937  -6.001   1.566  0.00  0.00    -0.153 OA
BRANCH  16  19
ATOM     19  N   UNL     1      -1.530  -5.244  -0.785  0.00  0.00    -0.203 NA
ATOM     20  H   UNL     1      -1.717  -4.438  -1.378  0.00  0.00    +0.144 HD
ATOM     21  H   UNL     1      -0.869  -5.917  -1.170  0.00  0.00    +0.144 HD
ENDBRANCH  16  19
ENDBRANCH   4  16
TORSDOF 3
