REMARK  Name = 
REMARK  5 active torsions:
REMARK  status: ('A' for Active; 'I' for Inactive)
REMARK    1  A    between atoms: O_1  and  C_2
REMARK    2  A    between atoms: C_2  and  C_4
REMARK    3  A    between atoms: C_4  and  N_5
REMARK    4  A    between atoms: C_6  and  C_14
REMARK    5  A    between atoms: C_19  and  C_22
REMARK                            x       y       z     vdW  Elec       q    Type
REMARK                         _______ _______ _______ _____ _____    ______ ____
ROOT
ATOM      1  C   UNL     1       4.928   2.672  -1.003  0.00  0.00    +0.266 C 
ATOM      2  N   UNL     1       3.919   3.132  -1.836  0.00  0.00    -0.259 N 
ATOM      3  H   UNL     1       3.384   2.508  -2.428  0.00  0.00    +0.157 HD
ATOM      4  C   UNL     1       3.573   4.472  -1.962  0.00  0.00    +0.165 A 
ATOM      5  S   UNL     1       4.698   5.706  -1.587  0.00  0.00    -0.060 S 
ATOM      6  C   UNL     1       3.589   6.891  -2.096  0.00  0.00    +0.077 A 
ATOM      7  C   UNL     1       2.396   6.308  -2.468  0.00  0.00    +0.082 A 
ATOM      8  N   UNL     1       2.432   4.902  -2.474  0.00  0.00    -0.225 NA
ATOM      9  O   UNL     1       5.533   3.389  -0.211  0.00  0.00    -0.268 OA
ENDROOT
BRANCH   1  18
ATOM     10  N   UNL     1       4.554   0.102  -1.200  0.00  0.00    -0.325 N 
ATOM     11  C   UNL     1       5.361  -1.027  -1.060  0.00  0.00    +0.050 A 
ATOM     12  C   UNL     1       6.660  -0.578  -0.830  0.00  0.00    +0.001 A 
ATOM     13  C   UNL     1       7.695  -1.509  -0.618  0.00  0.00    +0.010 A 
ATOM     14  C   UNL     1       7.410  -2.875  -0.643  0.00  0.00    +0.001 A 
ATOM     15  C   UNL     1       6.111  -3.314  -0.876  0.00  0.00    +0.002 A 
ATOM     16  C   UNL     1       6.610   0.832  -0.840  0.00  0.00    +0.041 A 
ATOM     17  C   UNL     1       5.067  -2.405  -1.089  0.00  0.00    +0.026 A 
ATOM     18  C   UNL     1       5.306   1.259  -1.067  0.00  0.00    +0.106 A 
BRANCH  10  19
ATOM     19  C   UNL     1       3.111   0.015  -1.333  0.00  0.00    +0.242 C 
BRANCH  19  20
ATOM     20  C   UNL     1       2.708  -0.004  -2.781  0.00  0.00    +0.325 C 
ATOM     21  O   UNL     1       2.904   0.946  -3.528  0.00  0.00    -0.249 OA
BRANCH  20  22
ATOM     22  O   UNL     1       2.089  -1.132  -3.195  0.00  0.00    -0.479 OA
ATOM     23  H   UNL     1       1.993  -1.842  -2.532  0.00  0.00    +0.295 HD
ENDBRANCH  20  22
ENDBRANCH  19  20
ENDBRANCH  10  19
ENDBRANCH   1  18
BRANCH   7  24
ATOM     24  C   UNL     1       1.237   7.081  -2.947  0.00  0.00    +0.019 A 
ATOM     25  C   UNL     1       0.874   8.364  -2.478  0.00  0.00    +0.050 A 
ATOM     26 CL   UNL     1       1.617   9.151  -1.123  0.00  0.00    -0.083 Cl
ATOM     27  C   UNL     1      -0.178   9.078  -3.077  0.00  0.00    +0.020 A 
ATOM     28  C   UNL     1      -0.913   8.516  -4.118  0.00  0.00    +0.001 A 
ATOM     29  C   UNL     1      -0.605   7.231  -4.552  0.00  0.00    +0.001 A 
ATOM     30  C   UNL     1       0.456   6.523  -3.974  0.00  0.00    +0.011 A 
ENDBRANCH   7  24
TORSDOF 5
