REMARK  Name = 
REMARK  12 active torsions:
REMARK  status: ('A' for Active; 'I' for Inactive)
REMARK    1  A    between atoms: C_1  and  C_2
REMARK    2  A    between atoms: C_2  and  O_4
REMARK    3  A    between atoms: O_4  and  C_5
REMARK    4  A    between atoms: C_7  and  N_9
REMARK    5  A    between atoms: C_10  and  O_12
REMARK    6  A    between atoms: O_12  and  P_13
REMARK    7  A    between atoms: P_13  and  O_14
REMARK    8  A    between atoms: P_13  and  O_15
REMARK    9  A    between atoms: C_17  and  C_28
REMARK   10  A    between atoms: C_20  and  O_21
REMARK   11  A    between atoms: C_20  and  C_25
REMARK   12  A    between atoms: C_28  and  O_29
REMARK                            x       y       z     vdW  Elec       q    Type
REMARK                         _______ _______ _______ _____ _____    ______ ____
ROOT
ATOM      1  C   UNL     1       4.286   0.714   0.471  0.00  0.00    +0.228 C 
ATOM      2  C   UNL     1       4.899   1.640   1.539  0.00  0.00    +0.213 C 
ATOM      3  O   UNL     1       5.229   0.867   2.749  0.00  0.00    -0.348 OA
ATOM      4  C   UNL     1       6.286  -0.089   2.520  0.00  0.00    +0.203 C 
ATOM      5  C   UNL     1       7.595   0.731   2.513  0.00  0.00    +0.121 C 
ATOM      6  S   UNL     1       7.769   1.905   1.156  0.00  0.00    -0.111 S 
ATOM      7  C   UNL     1       5.940  -1.077   1.339  0.00  0.00    +0.194 C 
ATOM      8  C   UNL     1       6.052   2.606   1.107  0.00  0.00    +0.218 C 
ATOM      9  C   UNL     1       4.566  -0.801   0.698  0.00  0.00    +0.128 C 
ENDROOT
BRANCH   8  10
ATOM     10  C   UNL     1       5.900   3.143  -0.363  0.00  0.00    +0.256 C 
ATOM     11  O   UNL     1       6.138   2.470  -1.362  0.00  0.00    -0.272 OA
ATOM     12  N   UNL     1       5.512   4.442  -0.523  0.00  0.00    -0.326 N 
ATOM     13  H   UNL     1       5.531   5.094   0.252  0.00  0.00    +0.145 HD
ATOM     14  H   UNL     1       5.544   4.812  -1.468  0.00  0.00    +0.145 HD
ENDBRANCH   8  10
BRANCH   9  15
ATOM     15  N   UNL     1       3.510  -1.504   1.461  0.00  0.00    -0.322 NA
ATOM     16  H   UNL     1       2.885  -1.946   0.780  0.00  0.00    +0.119 HD
ATOM     17  H   UNL     1       2.931  -0.822   1.952  0.00  0.00    +0.119 HD
ENDBRANCH   9  15
BRANCH   4  18
ATOM     18  C   UNL     1       6.464  -0.953   3.795  0.00  0.00    +0.341 C 
ATOM     19  O   UNL     1       6.887  -2.103   3.775  0.00  0.00    -0.248 OA
BRANCH  18  20
ATOM     20  O   UNL     1       6.322  -0.267   4.947  0.00  0.00    -0.479 OA
ATOM     21  H   UNL     1       6.024   0.654   4.808  0.00  0.00    +0.295 HD
ENDBRANCH  18  20
ENDBRANCH   4  18
BRANCH   8  22
ATOM     22  O   UNL     1       6.044   3.702   2.038  0.00  0.00    -0.368 OA
ATOM     23  H   UNL     1       6.972   3.986   2.111  0.00  0.00    +0.212 HD
ENDBRANCH   8  22
BRANCH   1  24
ATOM     24  O   UNL     1       2.835   0.935   0.539  0.00  0.00    -0.457 OA
BRANCH  24  26
ATOM     25  C   UNL     1       0.628   0.654  -0.223  0.00  0.00    +0.136 C 
ATOM     26  C   UNL     1       2.089   0.475  -0.501  0.00  0.00    +0.304 C 
ATOM     27  O   UNL     1       2.531  -0.052  -1.511  0.00  0.00    -0.251 OA
ENDBRANCH  24  26
ENDBRANCH   1  24
BRANCH   7  28
ATOM     28  O   UNL     1       6.869  -1.171   0.261  0.00  0.00    -0.278 OA
BRANCH  28  29
ATOM     29  P   UNL     1       8.475  -1.580   0.759  0.00  0.00    +0.473 P 
ATOM     30  O   UNL     1       9.912  -1.945   1.204  0.00  0.00    -0.228 OA
BRANCH  29  31
ATOM     31  O   UNL     1       8.966  -0.687  -0.524  0.00  0.00    -0.303 OA
ATOM     32  H   UNL     1       9.201   0.225  -0.269  0.00  0.00    +0.222 HD
ENDBRANCH  29  31
BRANCH  29  33
ATOM     33  O   UNL     1       8.260  -2.925  -0.142  0.00  0.00    -0.303 OA
ATOM     34  H   UNL     1       8.661  -2.732  -1.010  0.00  0.00    +0.222 HD
ENDBRANCH  29  33
ENDBRANCH  28  29
ENDBRANCH   7  28
TORSDOF 11
