REMARK  Name = 
REMARK  5 active torsions:
REMARK  status: ('A' for Active; 'I' for Inactive)
REMARK    1  A    between atoms: C_1  and  C_2
REMARK    2  A    between atoms: C_2  and  O_4
REMARK    3  A    between atoms: C_2  and  C_5
REMARK    4  A    between atoms: C_5  and  O_7
REMARK    5  A    between atoms: C_5  and  C_8
REMARK                            x       y       z     vdW  Elec       q    Type
REMARK                         _______ _______ _______ _____ _____    ______ ____
ROOT
ATOM      1  C   UNL     1       4.649  -1.324   0.254  0.00  0.00    +0.068 C 
ATOM      2  C   UNL     1       5.327  -2.692   0.186  0.00  0.00    +0.156 C 
ATOM      3  N   UNL     1       6.757  -2.583   0.407  0.00  0.00    -0.322 N 
ATOM      4  H   UNL     1       7.340  -3.362   0.112  0.00  0.00    +0.148 HD
ATOM      5  C   UNL     1       7.416  -1.375   0.264  0.00  0.00    +0.154 A 
ATOM      6  N   UNL     1       8.789  -1.398   0.186  0.00  0.00    -0.199 NA
ATOM      7  C   UNL     1       9.424  -0.275   0.105  0.00  0.00    +0.195 A 
ATOM      8  N   UNL     1       8.795   0.924   0.095  0.00  0.00    -0.293 N 
ATOM      9  H   UNL     1       9.310   1.782   0.009  0.00  0.00    +0.172 HD
ATOM     10  C   UNL     1       7.438   1.043   0.119  0.00  0.00    +0.280 A 
ATOM     11  O   UNL     1       6.905   2.149   0.081  0.00  0.00    -0.265 OA
ATOM     12  N   UNL     1      10.778  -0.252   0.029  0.00  0.00    -0.329 N 
ATOM     13  H   UNL     1      11.251   0.535   0.453  0.00  0.00    +0.145 HD
ATOM     14  H   UNL     1      11.191  -1.147   0.273  0.00  0.00    +0.145 HD
ATOM     15  C   UNL     1       6.672  -0.240   0.208  0.00  0.00    +0.168 A 
ATOM     16  N   UNL     1       5.287  -0.184   0.241  0.00  0.00    -0.243 NA
ENDROOT
BRANCH   1  17
ATOM     17  C   UNL     1       3.115  -1.346   0.256  0.00  0.00    +0.188 C 
BRANCH  17  19
ATOM     18  C   UNL     1       0.992  -0.104   0.925  0.00  0.00    +0.040 C 
ATOM     19  C   UNL     1       2.517  -0.104   0.940  0.00  0.00    +0.146 C 
BRANCH  19  20
ATOM     20  O   UNL     1       2.901  -0.085   2.319  0.00  0.00    -0.389 OA
ATOM     21  H   UNL     1       3.296   0.792   2.480  0.00  0.00    +0.210 HD
ENDBRANCH  19  20
ENDBRANCH  17  19
BRANCH  17  22
ATOM     22  O   UNL     1       2.698  -1.473  -1.105  0.00  0.00    -0.383 OA
ATOM     23  H   UNL     1       1.740  -1.635  -1.112  0.00  0.00    +0.210 HD
ENDBRANCH  17  22
ENDBRANCH   1  17
TORSDOF 4
