REMARK  Name = 
REMARK  19 active torsions:
REMARK  status: ('A' for Active; 'I' for Inactive)
REMARK    1  A    between atoms: C_2  and  C_4
REMARK    2  A    between atoms: C_4  and  C_6
REMARK    3  A    between atoms: C_4  and  N_16
REMARK    4  A    between atoms: C_6  and  C_7
REMARK    5  A    between atoms: C_17  and  C_19
REMARK    6  A    between atoms: C_19  and  C_21
REMARK    7  A    between atoms: C_19  and  C_30
REMARK    8  A    between atoms: C_21  and  C_22
REMARK    9  A    between atoms: C_22  and  C_23
REMARK   10  A    between atoms: C_23  and  C_24
REMARK   11  A    between atoms: C_30  and  P_31
REMARK   12  A    between atoms: P_31  and  O_32
REMARK   13  A    between atoms: P_31  and  C_34
REMARK   14  A    between atoms: C_34  and  C_36
REMARK   15  A    between atoms: C_34  and  N_43
REMARK   16  A    between atoms: C_36  and  C_37
REMARK   17  A    between atoms: C_44  and  O_46
REMARK   18  A    between atoms: O_46  and  C_47
REMARK   19  A    between atoms: C_47  and  C_48
REMARK                            x       y       z     vdW  Elec       q    Type
REMARK                         _______ _______ _______ _____ _____    ______ ____
ROOT
ATOM      1  C   UNL     1       7.306   0.852  -1.686  0.00  0.00    +0.084 C 
ENDROOT
BRANCH   1   4
ATOM      2  N   UNL     1       5.222   2.126  -2.163  0.00  0.00    -0.303 N 
ATOM      3  H   UNL     1       5.765   2.955  -1.920  0.00  0.00    +0.149 HD
ATOM      4  C   UNL     1       5.786   0.882  -1.985  0.00  0.00    +0.217 C 
ATOM      5  O   UNL     1       5.085  -0.150  -2.020  0.00  0.00    -0.275 OA
BRANCH   2   6
ATOM      6  C   UNL     1       3.770   2.392  -2.440  0.00  0.00    +0.163 C 
BRANCH   6  10
ATOM      7  N   UNL     1       2.788   4.427  -3.576  0.00  0.00    -0.328 N 
ATOM      8  H   UNL     1       2.547   3.886  -4.399  0.00  0.00    +0.145 HD
ATOM      9  H   UNL     1       2.901   5.418  -3.756  0.00  0.00    +0.145 HD
ATOM     10  C   UNL     1       3.690   3.926  -2.682  0.00  0.00    +0.231 C 
ATOM     11  O   UNL     1       4.414   4.715  -2.071  0.00  0.00    -0.274 OA
ENDBRANCH   6  10
BRANCH   6  12
ATOM     12  C   UNL     1       3.127   1.534  -3.558  0.00  0.00    +0.069 C 
BRANCH  12  13
ATOM     13  C   UNL     1       3.818   1.614  -4.897  0.00  0.00    -0.020 A 
ATOM     14  C   UNL     1       3.522   0.891  -6.093  0.00  0.00    +0.003 A 
ATOM     15  C   UNL     1       4.612   1.077  -6.935  0.00  0.00    +0.047 A 
ATOM     16  C   UNL     1       4.847   0.271  -8.054  0.00  0.00    +0.026 A 
ATOM     17  C   UNL     1       3.806  -0.480  -8.560  0.00  0.00    +0.002 A 
ATOM     18  C   UNL     1       2.618  -0.542  -7.857  0.00  0.00    +0.001 A 
ATOM     19  N   UNL     1       5.228   2.204  -6.462  0.00  0.00    -0.360 N 
ATOM     20  H   UNL     1       5.804   2.829  -7.002  0.00  0.00    +0.165 HD
ATOM     21  C   UNL     1       2.500   0.062  -6.590  0.00  0.00    +0.010 A 
ATOM     22  C   UNL     1       4.892   2.426  -5.175  0.00  0.00    +0.087 A 
ENDBRANCH  12  13
ENDBRANCH   6  12
ENDBRANCH   2   6
ENDBRANCH   1   4
BRANCH   1  23
ATOM     23  C   UNL     1       8.180   1.420  -2.867  0.00  0.00    +0.111 C 
BRANCH  23  24
ATOM     24  P   UNL     1       9.862   1.983  -2.492  0.00  0.00    +0.223 P 
ATOM     25  O   UNL     1      10.554   1.092  -1.521  0.00  0.00    -0.289 OA
BRANCH  24  26
ATOM     26  O   UNL     1       9.620   3.371  -1.700  0.00  0.00    -0.342 OA
ATOM     27  H   UNL     1       9.350   3.232  -0.771  0.00  0.00    +0.218 HD
ENDBRANCH  24  26
BRANCH  24  28
ATOM     28  C   UNL     1      11.097   2.366  -3.783  0.00  0.00    +0.167 C 
BRANCH  28  29
ATOM     29  N   UNL     1      10.628   2.914  -5.037  0.00  0.00    -0.269 N 
ATOM     30  H   UNL     1      11.258   2.842  -5.829  0.00  0.00    +0.153 HD
ATOM     31  C   UNL     1       9.869   4.042  -5.099  0.00  0.00    +0.401 C 
ATOM     32  O   UNL     1       9.040   4.380  -4.275  0.00  0.00    -0.226 OA
BRANCH  31  33
ATOM     33  O   UNL     1      10.064   4.611  -6.311  0.00  0.00    -0.446 OA
BRANCH  33  34
ATOM     34  C   UNL     1       8.920   5.270  -6.875  0.00  0.00    +0.269 C 
BRANCH  34  35
ATOM     35  C   UNL     1       8.219   4.270  -7.761  0.00  0.00    -0.010 A 
ATOM     36  C   UNL     1       7.601   4.649  -8.959  0.00  0.00    +0.007 A 
ATOM     37  C   UNL     1       6.871   3.722  -9.694  0.00  0.00    +0.000 A 
ATOM     38  C   UNL     1       6.855   2.393  -9.302  0.00  0.00    +0.000 A 
ATOM     39  C   UNL     1       7.558   1.982  -8.170  0.00  0.00    +0.000 A 
ATOM     40  C   UNL     1       8.135   2.934  -7.358  0.00  0.00    +0.007 A 
ENDBRANCH  34  35
ENDBRANCH  33  34
ENDBRANCH  31  33
ENDBRANCH  28  29
BRANCH  28  41
ATOM     41  C   UNL     1      12.037   1.143  -4.013  0.00  0.00    +0.067 C 
BRANCH  41  42
ATOM     42  C   UNL     1      13.295   1.310  -4.855  0.00  0.00    -0.045 A 
ATOM     43  C   UNL     1      13.568   0.405  -5.894  0.00  0.00    +0.004 A 
ATOM     44  C   UNL     1      14.802   0.410  -6.558  0.00  0.00    +0.000 A 
ATOM     45  C   UNL     1      15.777   1.337  -6.206  0.00  0.00    +0.000 A 
ATOM     46  C   UNL     1      15.515   2.273  -5.199  0.00  0.00    +0.000 A 
ATOM     47  C   UNL     1      14.281   2.253  -4.528  0.00  0.00    +0.004 A 
ENDBRANCH  41  42
ENDBRANCH  28  41
ENDBRANCH  24  28
ENDBRANCH  23  24
ENDBRANCH   1  23
BRANCH   1  48
ATOM     48  C   UNL     1       7.584  -0.633  -1.288  0.00  0.00    +0.013 C 
BRANCH  48  49
ATOM     49  C   UNL     1       8.940  -1.044  -0.723  0.00  0.00    +0.005 C 
BRANCH  49  50
ATOM     50  C   UNL     1       9.344  -0.301   0.566  0.00  0.00    +0.035 C 
BRANCH  50  51
ATOM     51  C   UNL     1      10.794  -0.522   0.952  0.00  0.00    -0.047 A 
ATOM     52  C   UNL     1      11.295  -1.813   1.147  0.00  0.00    +0.003 A 
ATOM     53  C   UNL     1      12.651  -2.013   1.412  0.00  0.00    +0.000 A 
ATOM     54  C   UNL     1      13.525  -0.929   1.481  0.00  0.00    +0.000 A 
ATOM     55  C   UNL     1      13.039   0.363   1.310  0.00  0.00    +0.000 A 
ATOM     56  C   UNL     1      11.680   0.564   1.064  0.00  0.00    +0.003 A 
ENDBRANCH  50  51
ENDBRANCH  49  50
ENDBRANCH  48  49
ENDBRANCH   1  48
TORSDOF 19
