REMARK  Name = 
REMARK  8 active torsions:
REMARK  status: ('A' for Active; 'I' for Inactive)
REMARK    1  A    between atoms: C_1  and  C_2
REMARK    2  A    between atoms: C_2  and  C_3
REMARK    3  A    between atoms: N_10  and  O_11
REMARK    4  A    between atoms: O_11  and  C_12
REMARK    5  A    between atoms: C_12  and  C_13
REMARK    6  A    between atoms: C_13  and  C_14
REMARK    7  A    between atoms: C_14  and  O_15
REMARK    8  A    between atoms: O_15  and  C_16
REMARK                            x       y       z     vdW  Elec       q    Type
REMARK                         _______ _______ _______ _____ _____    ______ ____
ROOT
ATOM      1  C   UNL     1       2.734  -0.924   0.959  0.00  0.00    +0.101 C 
ATOM      2  C   UNL     1       3.526  -0.144  -0.100  0.00  0.00    +0.265 C 
ATOM      3  N   UNL     1       2.744   1.027  -0.513  0.00  0.00    -0.084 N 
ATOM      4  C   UNL     1       2.842   1.318  -1.852  0.00  0.00    +0.415 C 
ATOM      5  N   UNL     1       2.440   2.562  -2.233  0.00  0.00    -0.247 N 
ATOM      6  H   UNL     1       1.682   2.924  -1.672  0.00  0.00    +0.241 HD
ATOM      7  H   UNL     1       2.266   2.609  -3.230  0.00  0.00    +0.241 HD
ATOM      8  N   UNL     1       3.250   0.497  -2.766  0.00  0.00    -0.005 NA
ATOM      9  C   UNL     1       3.619  -0.749  -2.371  0.00  0.00    +0.420 C 
ATOM     10  N   UNL     1       3.868  -1.649  -3.354  0.00  0.00    -0.247 N 
ATOM     11  H   UNL     1       4.150  -1.211  -4.219  0.00  0.00    +0.241 HD
ATOM     12  H   UNL     1       4.479  -2.393  -3.040  0.00  0.00    +0.241 HD
ATOM     13  N   UNL     1       3.783  -1.126  -1.156  0.00  0.00    -0.066 NA
ATOM     14  C   UNL     1       4.900   0.263   0.455  0.00  0.00    +0.101 C 
ENDROOT
BRANCH   3  15
ATOM     15  O   UNL     1       2.814   2.152   0.348  0.00  0.00    -0.213 OA
BRANCH  15  16
ATOM     16  C   UNL     1       1.582   2.230   1.076  0.00  0.00    +0.213 C 
BRANCH  16  17
ATOM     17  C   UNL     1       1.529   3.509   1.911  0.00  0.00    +0.073 C 
BRANCH  17  18
ATOM     18  C   UNL     1       1.499   4.765   1.046  0.00  0.00    +0.231 C 
BRANCH  18  19
ATOM     19  O   UNL     1       1.315   5.906   1.892  0.00  0.00    -0.492 OA
BRANCH  19  20
ATOM     20  C   UNL     1       1.299   7.129   1.272  0.00  0.00    +0.121 A 
ATOM     21  C   UNL     1       1.157   8.232   2.122  0.00  0.00    +0.047 A 
ATOM     22  C   UNL     1       1.145   9.533   1.608  0.00  0.00    +0.019 A 
ATOM     23  C   UNL     1       1.273   9.732   0.236  0.00  0.00    +0.018 A 
ATOM     24 BR   UNL     1       1.277  11.485  -0.471  0.00  0.00    -0.050 Br
ATOM     25  C   UNL     1       1.403   8.643  -0.622  0.00  0.00    +0.019 A 
ATOM     26  C   UNL     1       1.415   7.343  -0.104  0.00  0.00    +0.047 A 
ENDBRANCH  19  20
ENDBRANCH  18  19
ENDBRANCH  17  18
ENDBRANCH  16  17
ENDBRANCH  15  16
ENDBRANCH   3  15
TORSDOF 6
