REMARK  Name = 
REMARK  6 active torsions:
REMARK  status: ('A' for Active; 'I' for Inactive)
REMARK    1  A    between atoms: C_2  and  C_27
REMARK    2  A    between atoms: C_17  and  C_18
REMARK    3  A    between atoms: C_21  and  O_23
REMARK    4  A    between atoms: C_25  and  C_26
REMARK    5  A    between atoms: C_27  and  C_29
REMARK    6  A    between atoms: C_29  and  O_30
REMARK                            x       y       z     vdW  Elec       q    Type
REMARK                         _______ _______ _______ _____ _____    ______ ____
ROOT
ATOM      1  C   UNL     1      -0.000  -0.000   1.655  0.00  0.00    +0.064 C 
ATOM      2  C   UNL     1      -0.000  -0.000  -0.174  0.00  0.00    -0.017 C 
ATOM      3  C   UNL     1      -0.000  -0.000  -0.174  0.00  0.00    +0.012 C 
ATOM      4  C   UNL     1      -0.000  -0.000  -0.174  0.00  0.00    -0.001 C 
ATOM      5  C   UNL     1      -0.000  -0.000  -0.174  0.00  0.00    -0.001 C 
ATOM      6  C   UNL     1      -0.000  -0.000  -0.174  0.00  0.00    +0.031 C 
ATOM      7  C   UNL     1      -0.000  -0.000  -0.174  0.00  0.00    +0.119 C 
ATOM      8  C   UNL     1      -0.000  -0.000  -0.174  0.00  0.00    -0.005 C 
ATOM      9  C   UNL     1      -0.000  -0.000  -0.174  0.00  0.00    +0.016 C 
ATOM     10  C   UNL     1      -0.000  -0.000  -0.174  0.00  0.00    -0.060 C 
ATOM     11  C   UNL     1      -0.000  -0.000  -0.174  0.00  0.00    +0.046 C 
ATOM     12  C   UNL     1      -0.000  -0.000  -0.174  0.00  0.00    +0.156 C 
ATOM     13  O   UNL     1      -0.000  -0.000  -0.174  0.00  0.00    -0.293 OA
ATOM     14  C   UNL     1      -0.000  -0.000  -0.174  0.00  0.00    +0.080 C 
ATOM     15  C   UNL     1      -0.000  -0.000  -0.174  0.00  0.00    +0.032 C 
ATOM     16  C   UNL     1      -0.000  -0.000  -0.174  0.00  0.00    +0.019 C 
ATOM     17  C   UNL     1      -0.000  -0.000  -0.174  0.00  0.00    +0.008 C 
ATOM     18  C   UNL     1      -0.000  -0.000  -0.192  0.00  0.00    +0.005 C 
ATOM     19  C   UNL     1      -0.000  -0.000  -0.174  0.00  0.00    +0.039 C 
ATOM     20  C   UNL     1      -0.000  -0.000  -0.174  0.00  0.00    +0.012 C 
ENDROOT
BRANCH   1  21
ATOM     21  C   UNL     1      -0.000  -0.000  -0.174  0.00  0.00    +0.162 C 
ATOM     22  O   UNL     1       0.898   1.153  -1.105  0.00  0.00    -0.295 OA
BRANCH  21  23
ATOM     23  C   UNL     1      -1.610   1.737   0.136  0.00  0.00    +0.230 C 
BRANCH  23  24
ATOM     24  O   UNL     1      -0.760   1.393  -1.420  0.00  0.00    -0.388 OA
ATOM     25  H   UNL     1      -0.000   0.000  -0.347  0.00  0.00    +0.210 HD
ENDBRANCH  23  24
ENDBRANCH  21  23
ENDBRANCH   1  21
BRANCH   7  26
ATOM     26  O   UNL     1      -0.000  -0.000  -0.174  0.00  0.00    -0.391 OA
ATOM     27  H   UNL     1       0.000   0.000   0.000  0.00  0.00    +0.210 HD
ENDBRANCH   7  26
TORSDOF 4
