REMARK  Name = 
REMARK  12 active torsions:
REMARK  status: ('A' for Active; 'I' for Inactive)
REMARK    1  A    between atoms: C_1  and  C_2
REMARK    2  A    between atoms: C_2  and  C_3
REMARK    3  A    between atoms: C_3  and  C_24
REMARK    4  A    between atoms: C_4  and  C_5
REMARK    5  A    between atoms: C_4  and  C_12
REMARK    6  A    between atoms: C_8  and  O_9
REMARK    7  A    between atoms: C_15  and  O_16
REMARK    8  A    between atoms: O_16  and  C_17
REMARK    9  A    between atoms: C_17  and  C_18
REMARK   10  A    between atoms: C_18  and  N_19
REMARK   11  A    between atoms: N_19  and  C_20
REMARK   12  A    between atoms: N_19  and  C_21
REMARK                            x       y       z     vdW  Elec       q    Type
REMARK                         _______ _______ _______ _____ _____    ______ ____
ROOT
ATOM      1  C   UNL     1       2.922  -0.846  -1.117  0.00  0.00    -0.032 C 
ATOM      2  C   UNL     1       2.073  -1.440  -2.004  0.00  0.00    -0.007 C 
ENDROOT
BRANCH   1   3
ATOM      3  C   UNL     1       4.392  -0.950  -1.343  0.00  0.00    -0.021 A 
ATOM      4  C   UNL     1       5.113  -2.037  -0.836  0.00  0.00    +0.008 A 
ATOM      5  C   UNL     1       6.476  -2.161  -1.107  0.00  0.00    +0.001 A 
ATOM      6  C   UNL     1       7.128  -1.196  -1.877  0.00  0.00    +0.000 A 
ATOM      7  C   UNL     1       6.421  -0.101  -2.370  0.00  0.00    +0.001 A 
ATOM      8  C   UNL     1       5.057   0.025  -2.100  0.00  0.00    +0.008 A 
ENDBRANCH   1   3
BRANCH   2   9
ATOM      9  C   UNL     1       0.609  -1.279  -1.904  0.00  0.00    -0.017 A 
ATOM     10  C   UNL     1      -0.203  -2.181  -1.205  0.00  0.00    +0.012 A 
ATOM     11  C   UNL     1      -1.589  -1.975  -1.145  0.00  0.00    +0.046 A 
ATOM     12  C   UNL     1      -2.170  -0.885  -1.796  0.00  0.00    +0.121 A 
ATOM     13  C   UNL     1      -1.349  -0.007  -2.512  0.00  0.00    +0.046 A 
ATOM     14  C   UNL     1       0.026  -0.204  -2.571  0.00  0.00    +0.012 A 
BRANCH  12  15
ATOM     15  O   UNL     1      -3.538  -0.756  -1.683  0.00  0.00    -0.491 OA
BRANCH  15  16
ATOM     16  C   UNL     1      -4.067   0.338  -2.440  0.00  0.00    +0.244 C 
BRANCH  16  17
ATOM     17  C   UNL     1      -5.594   0.434  -2.368  0.00  0.00    +0.124 C 
BRANCH  17  18
ATOM     18  N   UNL     1      -6.103   1.626  -3.087  0.00  0.00    -0.305 NA
ATOM     19  C   UNL     1      -7.548   1.754  -2.905  0.00  0.00    +0.104 C 
ATOM     20  C   UNL     1      -5.783   1.601  -4.517  0.00  0.00    +0.104 C 
ENDBRANCH  17  18
ENDBRANCH  16  17
ENDBRANCH  15  16
ENDBRANCH  12  15
ENDBRANCH   2   9
BRANCH   2  21
ATOM     21  C   UNL     1       2.624  -2.195  -3.166  0.00  0.00    -0.017 A 
ATOM     22  C   UNL     1       2.968  -1.531  -4.355  0.00  0.00    +0.012 A 
ATOM     23  C   UNL     1       3.567  -2.227  -5.404  0.00  0.00    +0.046 A 
ATOM     24  C   UNL     1       3.819  -3.587  -5.266  0.00  0.00    +0.117 A 
ATOM     25  C   UNL     1       3.442  -4.274  -4.117  0.00  0.00    +0.046 A 
ATOM     26  C   UNL     1       2.837  -3.577  -3.068  0.00  0.00    +0.012 A 
BRANCH  24  27
ATOM     27  O   UNL     1       4.460  -4.221  -6.289  0.00  0.00    -0.507 OA
ATOM     28  H   UNL     1       4.735  -5.098  -5.975  0.00  0.00    +0.292 HD
ENDBRANCH  24  27
ENDBRANCH   2  21
BRANCH   1  30
ATOM     29  C   UNL     1       1.247   0.313   0.613  0.00  0.00    +0.009 C 
ATOM     30  C   UNL     1       2.656  -0.017   0.139  0.00  0.00    +0.033 C 
ENDBRANCH   1  30
TORSDOF 9
