REMARK  Name = 
REMARK  6 active torsions:
REMARK  status: ('A' for Active; 'I' for Inactive)
REMARK    1  A    between atoms: N_1  and  CA_2
REMARK    2  A    between atoms: CA_2  and  C_4
REMARK    3  A    between atoms: CA_2  and  C_10
REMARK    4  A    between atoms: C_4  and  O_6
REMARK    5  A    between atoms: C_4  and  C_7
REMARK    6  A    between atoms: C_10  and  O_11
REMARK                            x       y       z     vdW  Elec       q    Type
REMARK                         _______ _______ _______ _____ _____    ______ ____
ROOT
ATOM      1  CA  UNL     1       2.471   2.082   1.523  0.00  0.00    +0.198 C 
ENDROOT
BRANCH   1   2
ATOM      2  N   UNL     1       2.829   3.497   1.900  0.00  0.00    -0.316 NA
ATOM      3  H1  UNL     1       2.751   4.054   1.039  0.00  0.00    +0.119 HD
ATOM      4  H2  UNL     1       2.062   3.858   2.477  0.00  0.00    +0.119 HD
ENDBRANCH   1   2
BRANCH   1   5
ATOM      5  C   UNL     1       3.033   1.150   2.598  0.00  0.00    +0.325 C 
ATOM      6  OXT UNL     1       2.828  -0.055   2.658  0.00  0.00    -0.249 OA
BRANCH   5   7
ATOM      7  O   UNL     1       3.792   1.826   3.501  0.00  0.00    -0.479 OA
ATOM      8  H   UNL     1       3.822   2.760   3.161  0.00  0.00    +0.295 HD
ENDBRANCH   5   7
ENDBRANCH   1   5
BRANCH   1   9
ATOM      9  C   UNL     1       2.988   1.601   0.149  0.00  0.00    +0.227 C 
BRANCH   9  10
ATOM     10  C   UNL     1       2.289   2.362  -0.986  0.00  0.00    +0.241 C 
ATOM     11  O   UNL     1       1.487   3.276  -0.816  0.00  0.00    -0.273 OA
ATOM     12  N   UNL     1       2.634   1.979  -2.253  0.00  0.00    -0.327 N 
ATOM     13  H   UNL     1       2.173   2.457  -3.017  0.00  0.00    +0.145 HD
ATOM     14  H   UNL     1       3.140   1.131  -2.464  0.00  0.00    +0.145 HD
ENDBRANCH   9  10
BRANCH   9  15
ATOM     15  O   UNL     1       4.403   1.766   0.051  0.00  0.00    -0.380 OA
ATOM     16  H   UNL     1       4.694   1.344  -0.774  0.00  0.00    +0.211 HD
ENDBRANCH   9  15
ENDBRANCH   1   9
TORSDOF 6
