REMARK  Name = 
REMARK  12 active torsions:
REMARK  status: ('A' for Active; 'I' for Inactive)
REMARK    1  A    between atoms: C_1  and  C_2
REMARK    2  A    between atoms: C_2  and  C_3
REMARK    3  A    between atoms: C_3  and  C_4
REMARK    4  A    between atoms: C_4  and  C_5
REMARK    5  A    between atoms: C_5  and  C_6
REMARK    6  A    between atoms: C_6  and  C_7
REMARK    7  A    between atoms: C_7  and  C_8
REMARK    8  A    between atoms: C_8  and  C_9
REMARK    9  A    between atoms: C_9  and  C_10
REMARK   10  A    between atoms: C_10  and  C_11
REMARK   11  A    between atoms: C_11  and  C_12
REMARK   12  A    between atoms: C_13  and  O_14
REMARK                            x       y       z     vdW  Elec       q    Type
REMARK                         _______ _______ _______ _____ _____    ______ ____
ROOT
ATOM      1  C   UNL     1      12.655  -5.505  -4.789  0.00  0.00    +0.047 C 
ATOM      2  C   UNL     1      13.319  -6.384  -3.750  0.00  0.00    +0.212 C 
ATOM      3  O   UNL     1      12.658  -7.059  -2.970  0.00  0.00    -0.285 OA
ATOM      4  C   UNL     1      14.773  -6.336  -3.752  0.00  0.00    +0.129 A 
ATOM      5  N   UNL     1      15.568  -6.984  -2.814  0.00  0.00    -0.243 NA
ATOM      6  C   UNL     1      16.836  -6.743  -3.072  0.00  0.00    +0.157 A 
ATOM      7  S   UNL     1      17.152  -5.756  -4.441  0.00  0.00    -0.071 S 
ATOM      8  C   UNL     1      15.476  -5.626  -4.695  0.00  0.00    +0.093 A 
ATOM      9  C   UNL     1      14.877  -4.862  -5.749  0.00  0.00    +0.236 C 
ATOM     10  O   UNL     1      15.499  -4.276  -6.630  0.00  0.00    -0.283 OA
ATOM     11  C   UNL     1      13.360  -4.799  -5.703  0.00  0.00    +0.172 C 
ENDROOT
BRANCH  11  12
ATOM     12  O   UNL     1      12.764  -3.965  -6.639  0.00  0.00    -0.503 OA
ATOM     13  H   UNL     1      11.828  -3.821  -6.432  0.00  0.00    +0.292 HD
ENDBRANCH  11  12
BRANCH   1  14
ATOM     14  C   UNL     1      11.144  -5.516  -4.726  0.00  0.00    +0.043 C 
BRANCH  14  15
ATOM     15  C   UNL     1      10.612  -4.421  -3.799  0.00  0.00    +0.005 C 
BRANCH  15  16
ATOM     16  C   UNL     1       9.085  -4.409  -3.793  0.00  0.00    +0.000 C 
BRANCH  16  17
ATOM     17  C   UNL     1       8.547  -3.325  -2.863  0.00  0.00    +0.000 C 
BRANCH  17  18
ATOM     18  C   UNL     1       7.021  -3.310  -2.862  0.00  0.00    +0.000 C 
BRANCH  18  19
ATOM     19  C   UNL     1       6.491  -2.228  -1.927  0.00  0.00    +0.000 C 
BRANCH  19  20
ATOM     20  C   UNL     1       4.966  -2.207  -1.919  0.00  0.00    -0.000 C 
BRANCH  20  21
ATOM     21  C   UNL     1       4.441  -1.122  -0.983  0.00  0.00    -0.000 C 
BRANCH  21  22
ATOM     22  C   UNL     1       2.914  -1.102  -0.975  0.00  0.00    -0.000 C 
BRANCH  22  24
ATOM     23  C   UNL     1       0.862  -0.002  -0.037  0.00  0.00    +0.004 C 
ATOM     24  C   UNL     1       2.379  -0.019  -0.042  0.00  0.00    -0.003 C 
ENDBRANCH  22  24
ENDBRANCH  21  22
ENDBRANCH  20  21
ENDBRANCH  19  20
ENDBRANCH  18  19
ENDBRANCH  17  18
ENDBRANCH  16  17
ENDBRANCH  15  16
ENDBRANCH  14  15
ENDBRANCH   1  14
TORSDOF 11
