REMARK  Name = 
REMARK  7 active torsions:
REMARK  status: ('A' for Active; 'I' for Inactive)
REMARK    1  A    between atoms: C_2  and  C_4
REMARK    2  A    between atoms: C_5  and  N_6
REMARK    3  A    between atoms: N_7  and  C1*_10
REMARK    4  A    between atoms: C4*_13  and  C5*_15
REMARK    5  A    between atoms: C5*_15  and  O5*_16
REMARK    6  A    between atoms: C3*_17  and  O3*_19
REMARK    7  A    between atoms: C2*_20  and  O2*_22
REMARK                            x       y       z     vdW  Elec       q    Type
REMARK                         _______ _______ _______ _____ _____    ______ ____
ROOT
ATOM      1  C   UNL     1       3.445  -0.720  -6.639  0.00  0.00    +0.164 A 
ATOM      2  N   UNL     1       3.161  -2.077  -6.681  0.00  0.00    -0.229 NA
ATOM      3  C   UNL     1       3.761  -2.593  -5.633  0.00  0.00    +0.203 A 
ATOM      4  N   UNL     1       4.488  -1.655  -4.944  0.00  0.00    -0.289 N 
ATOM      5  C   UNL     1       4.236  -0.435  -5.539  0.00  0.00    +0.131 A 
ENDROOT
BRANCH   1   9
ATOM      6  N   UNL     1       2.295  -0.349  -8.678  0.00  0.00    -0.324 N 
ATOM      7  H   UNL     1       2.182  -1.354  -8.683  0.00  0.00    +0.145 HD
ATOM      8  H   UNL     1       2.003   0.219  -9.453  0.00  0.00    +0.145 HD
ATOM      9  C   UNL     1       2.986   0.231  -7.648  0.00  0.00    +0.263 C 
ATOM     10  O   UNL     1       3.200   1.437  -7.619  0.00  0.00    -0.269 OA
ENDBRANCH   1   9
BRANCH   4  11
ATOM     11  C1* UNL     1       5.340  -1.905  -3.786  0.00  0.00    +0.253 C 
ATOM     12  C2* UNL     1       6.061  -3.258  -3.720  0.00  0.00    +0.195 C 
ATOM     13  C3* UNL     1       7.506  -2.971  -4.155  0.00  0.00    +0.178 C 
ATOM     14  C4* UNL     1       7.550  -1.469  -4.434  0.00  0.00    +0.177 C 
ATOM     15  O4* UNL     1       6.407  -0.924  -3.742  0.00  0.00    -0.346 OA
BRANCH  12  16
ATOM     16  O2* UNL     1       5.978  -3.778  -2.383  0.00  0.00    -0.385 OA
ATOM     17  H2* UNL     1       6.636  -3.311  -1.838  0.00  0.00    +0.210 HD
ENDBRANCH  12  16
BRANCH  13  18
ATOM     18  O3* UNL     1       8.431  -3.335  -3.125  0.00  0.00    -0.386 OA
ATOM     19  H3* UNL     1       8.528  -2.596  -2.499  0.00  0.00    +0.210 HD
ENDBRANCH  13  18
BRANCH  14  20
ATOM     20  C5* UNL     1       7.526  -1.149  -5.938  0.00  0.00    +0.190 C 
BRANCH  20  21
ATOM     21  O5* UNL     1       7.489   0.259  -6.145  0.00  0.00    -0.392 OA
ATOM     22  H5* UNL     1       6.582   0.548  -5.903  0.00  0.00    +0.210 HD
ENDBRANCH  20  21
ENDBRANCH  14  20
ENDBRANCH   4  11
BRANCH   5  23
ATOM     23  N   UNL     1       4.772   0.720  -5.092  0.00  0.00    -0.343 N 
ATOM     24  H   UNL     1       5.240   0.792  -4.186  0.00  0.00    +0.144 HD
ATOM     25  H   UNL     1       4.435   1.612  -5.466  0.00  0.00    +0.144 HD
ENDBRANCH   5  23
TORSDOF 7
