REMARK  Name = 
REMARK  6 active torsions:
REMARK  status: ('A' for Active; 'I' for Inactive)
REMARK    1  A    between atoms: C_5  and  C_7
REMARK    2  A    between atoms: C_7  and  C_8
REMARK    3  A    between atoms: C_8  and  C_9
REMARK    4  A    between atoms: C_9  and  C_10
REMARK    5  A    between atoms: C_10  and  C_11
REMARK    6  A    between atoms: C_11  and  O_12
REMARK                            x       y       z     vdW  Elec       q    Type
REMARK                         _______ _______ _______ _____ _____    ______ ____
ROOT
ATOM      1  C   UNL     1       2.235   0.084   0.068  0.00  0.00    +0.105 C 
ATOM      2  N   UNL     1       2.530  -0.576   1.320  0.00  0.00    -0.294 N 
ATOM      3  H   UNL     1       2.249  -0.274   2.243  0.00  0.00    +0.151 HD
ATOM      4  C   UNL     1       2.810  -1.915   1.093  0.00  0.00    +0.300 C 
ATOM      5  O   UNL     1       2.931  -2.777   1.941  0.00  0.00    -0.253 OA
ATOM      6  N   UNL     1       2.928  -2.093  -0.274  0.00  0.00    -0.294 N 
ATOM      7  H   UNL     1       3.253  -2.978  -0.642  0.00  0.00    +0.151 HD
ATOM      8  C   UNL     1       2.946  -0.813  -0.953  0.00  0.00    +0.108 C 
ATOM      9  C   UNL     1       4.396  -0.305  -1.161  0.00  0.00    +0.069 C 
ATOM     10  S   UNL     1       4.503   1.362  -0.408  0.00  0.00    -0.154 S 
ATOM     11  C   UNL     1       2.736   1.506  -0.074  0.00  0.00    +0.093 C 
ENDROOT
BRANCH   9  12
ATOM     12  C   UNL     1       4.725  -0.258  -2.659  0.00  0.00    +0.016 C 
BRANCH  12  13
ATOM     13  C   UNL     1       6.157   0.184  -2.989  0.00  0.00    +0.002 C 
BRANCH  13  14
ATOM     14  C   UNL     1       6.428   0.234  -4.498  0.00  0.00    +0.011 C 
BRANCH  14  15
ATOM     15  C   UNL     1       5.552   1.255  -5.224  0.00  0.00    +0.120 C 
BRANCH  15  16
ATOM     16  C   UNL     1       5.761   1.246  -6.717  0.00  0.00    +0.305 C 
ATOM     17  O   UNL     1       4.899   0.918  -7.519  0.00  0.00    -0.251 OA
BRANCH  16  18
ATOM     18  O   UNL     1       6.987   1.665  -7.098  0.00  0.00    -0.481 OA
ATOM     19  H   UNL     1       7.565   1.926  -6.356  0.00  0.00    +0.295 HD
ENDBRANCH  16  18
ENDBRANCH  15  16
ENDBRANCH  14  15
ENDBRANCH  13  14
ENDBRANCH  12  13
ENDBRANCH   9  12
TORSDOF 6
