REMARK  Name = 
REMARK  16 active torsions:
REMARK  status: ('A' for Active; 'I' for Inactive)
REMARK    1  A    between atoms: C_2  and  C_3
REMARK    2  A    between atoms: C_2  and  C_8
REMARK    3  A    between atoms: C_2  and  C_13
REMARK    4  A    between atoms: C_3  and  C_4
REMARK    5  A    between atoms: C_4  and  C_5
REMARK    6  A    between atoms: C_5  and  C_6
REMARK    7  A    between atoms: C_6  and  C_7
REMARK    8  A    between atoms: C_8  and  C_9
REMARK    9  A    between atoms: N_11  and  O_12
REMARK   10  A    between atoms: N_15  and  CA_16
REMARK   11  A    between atoms: CA_16  and  CB_18
REMARK   12  A    between atoms: CA_16  and  C_21
REMARK   13  A    between atoms: CB_18  and  CG1_19
REMARK   14  A    between atoms: CB_18  and  CG2_20
REMARK   15  A    between atoms: CA_27  and  C_29
REMARK   16  A    between atoms: C_29  and  O_30
REMARK                            x       y       z     vdW  Elec       q    Type
REMARK                         _______ _______ _______ _____ _____    ______ ____
ROOT
ATOM      1  C   UNK A   0       2.885   1.373   0.738  0.00  0.00    +0.217 C 
ATOM      2  N   VAL A   1       3.942   0.988   1.527  0.00  0.00    -0.304 N 
ATOM      3  H   VAL A   1       4.490   0.165   1.293  0.00  0.00    +0.149 HD
ATOM      4  O   UNK A   0       2.285   2.432   0.912  0.00  0.00    -0.275 OA
ENDROOT
BRANCH   1   5
ATOM      5  C   UNK A   0       2.521   0.411  -0.395  0.00  0.00    +0.084 C 
BRANCH   5   6
ATOM      6  C   UNK A   0       1.026   0.613  -0.714  0.00  0.00    +0.110 C 
BRANCH   6   7
ATOM      7  C   UNK A   0       0.485  -0.283  -1.806  0.00  0.00    +0.236 C 
ATOM      8  N   UNK A   0      -0.604   0.246  -2.461  0.00  0.00    -0.197 N 
ATOM      9  H   UNK A   0      -1.162   1.013  -2.102  0.00  0.00    +0.182 HD
ATOM     10  O   UNK A   0       0.946  -1.385  -2.094  0.00  0.00    -0.274 OA
BRANCH   8  11
ATOM     11  O   UNK A   0      -1.195  -0.563  -3.458  0.00  0.00    -0.295 OA
ATOM     12  H   UNK A   0      -0.608  -1.351  -3.466  0.00  0.00    +0.241 HD
ENDBRANCH   8  11
ENDBRANCH   6   7
ENDBRANCH   5   6
BRANCH   5  13
ATOM     13  C   UNK A   0       3.382   0.703  -1.635  0.00  0.00    +0.013 C 
BRANCH  13  14
ATOM     14  C   UNK A   0       4.881   0.491  -1.413  0.00  0.00    +0.001 C 
BRANCH  14  15
ATOM     15  C   UNK A   0       5.677   0.744  -2.691  0.00  0.00    -0.000 C 
BRANCH  15  16
ATOM     16  C   UNK A   0       7.171   0.564  -2.435  0.00  0.00    -0.003 C 
ATOM     17  C   UNK A   0       7.982   0.859  -3.683  0.00  0.00    +0.004 C 
ENDBRANCH  15  16
ENDBRANCH  14  15
ENDBRANCH  13  14
ENDBRANCH   5  13
ENDBRANCH   1   5
BRANCH   2  18
ATOM     18  CA  VAL A   1       4.420   1.776   2.675  0.00  0.00    +0.162 C 
BRANCH  18  19
ATOM     19  C   VAL A   1       5.942   1.485   2.874  0.00  0.00    +0.236 C 
ATOM     20  N   PRO A   2       6.722   2.374   3.598  0.00  0.00    -0.295 N 
ATOM     21  CA  PRO A   2       8.172   2.147   3.775  0.00  0.00    +0.101 C 
ATOM     22  CB  PRO A   2       8.739   3.505   4.222  0.00  0.00    +0.026 C 
ATOM     23  CG  PRO A   2       7.669   4.511   3.831  0.00  0.00    +0.021 C 
ATOM     24  CD  PRO A   2       6.370   3.732   3.984  0.00  0.00    +0.108 C 
ATOM     25  O   VAL A   1       6.429   0.439   2.427  0.00  0.00    -0.274 OA
BRANCH  21  26
ATOM     26  C   PRO A   2       8.497   1.043   4.796  0.00  0.00    +0.178 C 
BRANCH  26  27
ATOM     27  O   PRO A   2       7.942   1.348   6.080  0.00  0.00    -0.393 OA
ATOM     28  H   PRO A   2       6.981   1.419   5.943  0.00  0.00    +0.209 HD
ENDBRANCH  26  27
ENDBRANCH  21  26
ENDBRANCH  18  19
BRANCH  18  29
ATOM     29  CB  VAL A   1       3.619   1.454   3.965  0.00  0.00    +0.012 C 
ATOM     30  CG2 VAL A   1       3.700  -0.030   4.345  0.00  0.00    +0.009 C 
ATOM     31  CG1 VAL A   1       2.143   1.862   3.866  0.00  0.00    +0.009 C 
ENDBRANCH  18  29
ENDBRANCH   2  18
TORSDOF 13
