REMARK  Name = 
REMARK  10 active torsions:
REMARK  status: ('A' for Active; 'I' for Inactive)
REMARK    1  A    between atoms: C_1  and  C_2
REMARK    2  A    between atoms: C_3  and  N_4
REMARK    3  A    between atoms: C_8  and  C_10
REMARK    4  A    between atoms: C_21  and  O_22
REMARK    5  A    between atoms: O_22  and  C_23
REMARK    6  A    between atoms: C_23  and  C_24
REMARK    7  A    between atoms: C_24  and  C_25
REMARK    8  A    between atoms: C_25  and  C_26
REMARK    9  A    between atoms: C_26  and  C_27
REMARK   10  A    between atoms: C_27  and  O_28
REMARK                            x       y       z     vdW  Elec       q    Type
REMARK                         _______ _______ _______ _____ _____    ______ ____
ROOT
ATOM      1  C   UNL     1       0.888  -0.217   0.326  0.00  0.00    +0.049 C 
ATOM      2  C   UNL     1       2.377  -0.055   0.160  0.00  0.00    +0.012 A 
ATOM      3  C   UNL     1       3.217  -1.183   0.009  0.00  0.00    +0.125 A 
ATOM      4  C   UNL     1       4.613  -0.993   0.048  0.00  0.00    +0.046 A 
ATOM      5  C   UNL     1       5.179   0.268   0.200  0.00  0.00    +0.005 A 
ATOM      6  C   UNL     1       4.361   1.380   0.290  0.00  0.00    +0.024 A 
ATOM      7  C   UNL     1       2.972   1.231   0.252  0.00  0.00    +0.041 A 
ENDROOT
BRANCH   7   8
ATOM      8  N   UNL     1       2.172   2.386   0.217  0.00  0.00    -0.269 N 
ATOM      9  H   UNL     1       1.298   2.335  -0.300  0.00  0.00    +0.156 HD
ATOM     10  C   UNL     1       2.389   3.547   0.916  0.00  0.00    +0.310 C 
ATOM     11  N   UNL     1       1.528   4.584   0.620  0.00  0.00    -0.236 N 
ATOM     12  H   UNL     1       1.680   5.397   1.201  0.00  0.00    +0.159 HD
ATOM     13  C   UNL     1       0.586   4.621  -0.393  0.00  0.00    +0.253 C 
ATOM     14  O   UNL     1       0.410   3.670  -1.159  0.00  0.00    -0.270 OA
ATOM     15  O   UNL     1       3.240   3.715   1.784  0.00  0.00    -0.252 OA
BRANCH  13  16
ATOM     16  C   UNL     1      -0.307   5.806  -0.530  0.00  0.00    +0.055 A 
ATOM     17  C   UNL     1      -0.074   7.103  -0.048  0.00  0.00    +0.054 A 
ATOM     18 CL   UNL     1       1.342   7.558   0.826  0.00  0.00    -0.083 Cl
ATOM     19  C   UNL     1      -1.014   8.118  -0.287  0.00  0.00    +0.040 A 
ATOM     20  C   UNL     1      -2.179   7.848  -1.008  0.00  0.00    +0.042 A 
ATOM     21 CL   UNL     1      -3.316   9.098  -1.309  0.00  0.00    -0.083 Cl
ATOM     22  C   UNL     1      -2.424   6.569  -1.484  0.00  0.00    +0.021 A 
ATOM     23  C   UNL     1      -1.491   5.562  -1.251  0.00  0.00    +0.016 A 
ENDBRANCH  13  16
ENDBRANCH   7   8
BRANCH   3  24
ATOM     24  O   UNL     1       2.638  -2.440  -0.164  0.00  0.00    -0.492 OA
BRANCH  24  25
ATOM     25  C   UNL     1       3.615  -3.467  -0.378  0.00  0.00    +0.229 C 
BRANCH  25  26
ATOM     26  C   UNL     1       3.105  -4.892  -0.607  0.00  0.00    +0.041 C 
BRANCH  26  27
ATOM     27  C   UNL     1       4.353  -5.788  -0.715  0.00  0.00    +0.014 C 
BRANCH  27  28
ATOM     28  C   UNL     1       4.077  -7.269  -0.937  0.00  0.00    +0.120 C 
BRANCH  28  29
ATOM     29  C   UNL     1       5.372  -8.051  -1.011  0.00  0.00    +0.305 C 
ATOM     30  O   UNL     1       6.499  -7.572  -0.914  0.00  0.00    -0.251 OA
BRANCH  29  31
ATOM     31  O   UNL     1       5.171  -9.373  -1.201  0.00  0.00    -0.481 OA
ATOM     32  H   UNL     1       4.230  -9.622  -1.259  0.00  0.00    +0.295 HD
ENDBRANCH  29  31
ENDBRANCH  28  29
ENDBRANCH  27  28
ENDBRANCH  26  27
ENDBRANCH  25  26
ENDBRANCH  24  25
ENDBRANCH   3  24
TORSDOF 9
