REMARK  Name = 
REMARK  5 active torsions:
REMARK  status: ('A' for Active; 'I' for Inactive)
REMARK    1  A    between atoms: C_2  and  O_3
REMARK    2  A    between atoms: C_5  and  C_7
REMARK    3  A    between atoms: C_7  and  O_8
REMARK    4  A    between atoms: C_9  and  O_11
REMARK    5  A    between atoms: C_12  and  O_14
REMARK                            x       y       z     vdW  Elec       q    Type
REMARK                         _______ _______ _______ _____ _____    ______ ____
ROOT
ATOM      1  C   UNL     1       2.132  -0.183  -0.104  0.00  0.00    +0.284 C 
ATOM      2  C   UNL     1       2.580   0.957  -1.026  0.00  0.00    +0.252 C 
ATOM      3  F   UNL     1       1.911   2.088  -0.647  0.00  0.00    -0.237 F 
ATOM      4  C   UNL     1       2.233   0.641  -2.479  0.00  0.00    +0.184 C 
ATOM      5  C   UNL     1       2.710  -0.764  -2.868  0.00  0.00    +0.177 C 
ATOM      6  C   UNL     1       2.242  -1.805  -1.847  0.00  0.00    +0.178 C 
ATOM      7  O   UNL     1       2.671  -1.436  -0.525  0.00  0.00    -0.340 OA
ENDROOT
BRANCH   1   8
ATOM      8  O   UNL     1       0.709  -0.262  -0.053  0.00  0.00    -0.365 OA
ATOM      9  H   UNL     1       0.377   0.650  -0.153  0.00  0.00    +0.213 HD
ENDBRANCH   1   8
BRANCH   4  10
ATOM     10  O   UNL     1       2.854   1.598  -3.355  0.00  0.00    -0.386 OA
ATOM     11  H   UNL     1       2.770   1.230  -4.259  0.00  0.00    +0.210 HD
ENDBRANCH   4  10
BRANCH   5  12
ATOM     12  O   UNL     1       2.250  -1.055  -4.194  0.00  0.00    -0.386 OA
ATOM     13  H   UNL     1       1.301  -1.273  -4.156  0.00  0.00    +0.210 HD
ENDBRANCH   5  12
BRANCH   6  14
ATOM     14  C   UNL     1       2.819  -3.189  -2.162  0.00  0.00    +0.190 C 
BRANCH  14  15
ATOM     15  O   UNL     1       2.341  -4.141  -1.212  0.00  0.00    -0.392 OA
ATOM     16  H   UNL     1       2.497  -3.743  -0.334  0.00  0.00    +0.210 HD
ENDBRANCH  14  15
ENDBRANCH   6  14
TORSDOF 5
