REMARK  Name = 
REMARK  10 active torsions:
REMARK  status: ('A' for Active; 'I' for Inactive)
REMARK    1  A    between atoms: C_1  and  C_2
REMARK    2  A    between atoms: C_2  and  C_3
REMARK    3  A    between atoms: C_2  and  C_4
REMARK    4  A    between atoms: C_4  and  O_5
REMARK    5  A    between atoms: O_5  and  C_6
REMARK    6  A    between atoms: C_7  and  C_21
REMARK    7  A    between atoms: C_9  and  C_12
REMARK    8  A    between atoms: C_14  and  C_15
REMARK    9  A    between atoms: C_16  and  C_18
REMARK   10  A    between atoms: C_18  and  O_19
REMARK                            x       y       z     vdW  Elec       q    Type
REMARK                         _______ _______ _______ _____ _____    ______ ____
ROOT
ATOM      1  C   UNL     1       5.121  -0.030   2.698  0.00  0.00    +0.138 A 
ATOM      2  C   UNL     1       5.444  -1.278   3.238  0.00  0.00    +0.047 A 
ATOM      3  C   UNL     1       6.270  -1.368   4.367  0.00  0.00    +0.014 A 
ATOM      4  C   UNL     1       6.786  -0.219   4.982  0.00  0.00    +0.009 A 
ATOM      5  C   UNL     1       6.459   1.029   4.427  0.00  0.00    +0.033 A 
ATOM      6  C   UNL     1       5.638   1.127   3.292  0.00  0.00    +0.094 A 
ENDROOT
BRANCH   4   7
ATOM      7  C   UNL     1       7.660  -0.349   6.162  0.00  0.00    +0.109 A 
ATOM      8  S   UNL     1       7.694   0.878   7.366  0.00  0.00    -0.060 S 
ATOM      9  C   UNL     1       8.855  -0.006   8.261  0.00  0.00    +0.119 A 
ATOM     10  C   UNL     1       9.144  -1.189   7.600  0.00  0.00    +0.060 A 
ATOM     11  C   UNL     1      10.112  -2.240   8.030  0.00  0.00    +0.067 C 
ATOM     12  N   UNL     1       8.437  -1.382   6.417  0.00  0.00    -0.243 NA
BRANCH   9  13
ATOM     13  C   UNL     1       9.397   0.486   9.509  0.00  0.00    +0.345 C 
ATOM     14  O   UNL     1      10.220  -0.093  10.203  0.00  0.00    -0.244 OA
BRANCH  13  15
ATOM     15  O   UNL     1       8.895   1.697   9.873  0.00  0.00    -0.477 OA
ATOM     16  H   UNL     1       8.246   2.039   9.226  0.00  0.00    +0.295 HD
ENDBRANCH  13  15
ENDBRANCH   9  13
ENDBRANCH   4   7
BRANCH   6  17
ATOM     17  C   UNL     1       5.331   2.432   2.777  0.00  0.00    +0.103 C 
ATOM     18  N   UNL     1       5.104   3.510   2.409  0.00  0.00    -0.191 NA
ENDBRANCH   6  17
BRANCH   1  19
ATOM     19  O   UNL     1       4.364   0.139   1.571  0.00  0.00    -0.490 OA
BRANCH  19  20
ATOM     20  C   UNL     1       3.368  -0.853   1.312  0.00  0.00    +0.232 C 
BRANCH  20  22
ATOM     21  C   UNL     1       1.239  -1.296   0.048  0.00  0.00    +0.010 C 
ATOM     22  C   UNL     1       2.344  -0.278   0.321  0.00  0.00    +0.020 C 
ATOM     23  C   UNL     1       1.743   1.033   0.834  0.00  0.00    +0.010 C 
ENDBRANCH  20  22
ENDBRANCH  19  20
ENDBRANCH   1  19
TORSDOF 7
