REMARK  Name = 
REMARK  7 active torsions:
REMARK  status: ('A' for Active; 'I' for Inactive)
REMARK    1  A    between atoms: O_1  and  C_2
REMARK    2  A    between atoms: C_2  and  C_3
REMARK    3  A    between atoms: C_6  and  O_8
REMARK    4  A    between atoms: O_8  and  C_9
REMARK    5  A    between atoms: C_20  and  O_22
REMARK    6  A    between atoms: C_23  and  O_25
REMARK    7  A    between atoms: C_26  and  O_28
REMARK                            x       y       z     vdW  Elec       q    Type
REMARK                         _______ _______ _______ _____ _____    ______ ____
ROOT
ATOM      1  C   UNL     1       3.101   0.889   0.895  0.00  0.00    +0.179 C 
ATOM      2  C   UNL     1       2.768   2.334   0.476  0.00  0.00    +0.177 C 
ATOM      3  C   UNL     1       3.515   2.774  -0.792  0.00  0.00    +0.180 C 
ATOM      4  C   UNL     1       5.014   2.429  -0.720  0.00  0.00    +0.214 C 
ATOM      5  C   UNL     1       5.229   0.968  -0.274  0.00  0.00    +0.339 C 
ATOM      6  O   UNL     1       4.516   0.665   0.928  0.00  0.00    -0.331 OA
ENDROOT
BRANCH   2   7
ATOM      7  O   UNL     1       3.137   3.194   1.568  0.00  0.00    -0.386 OA
ATOM      8  H   UNL     1       2.916   4.110   1.323  0.00  0.00    +0.210 HD
ENDBRANCH   2   7
BRANCH   3   9
ATOM      9  O   UNL     1       2.912   2.241  -1.977  0.00  0.00    -0.386 OA
ATOM     10  H   UNL     1       2.872   1.264  -1.895  0.00  0.00    +0.210 HD
ENDBRANCH   3   9
BRANCH   4  11
ATOM     11  O   UNL     1       5.615   2.676  -2.006  0.00  0.00    -0.383 OA
ATOM     12  H   UNL     1       5.128   2.135  -2.655  0.00  0.00    +0.210 HD
ENDBRANCH   4  11
BRANCH   1  13
ATOM     13  C   UNL     1       2.361  -0.217   0.119  0.00  0.00    +0.190 C 
BRANCH  13  14
ATOM     14  O   UNL     1       2.664  -0.222  -1.277  0.00  0.00    -0.392 OA
ATOM     15  H   UNL     1       2.247  -1.026  -1.643  0.00  0.00    +0.210 HD
ENDBRANCH  13  14
ENDBRANCH   1  13
BRANCH   5  16
ATOM     16  O   UNL     1       6.639   0.738  -0.081  0.00  0.00    -0.459 OA
BRANCH  16  17
ATOM     17  C   UNL     1       6.951  -0.550   0.214  0.00  0.00    +0.150 A 
ATOM     18  C   UNL     1       8.114  -0.994   0.924  0.00  0.00    +0.061 A 
ATOM     19  C   UNL     1       9.254  -0.401   1.518  0.00  0.00    +0.068 A 
ATOM     20  C   UNL     1      10.211  -1.195   2.170  0.00  0.00    +0.037 A 
ATOM     21  C   UNL     1      10.038  -2.578   2.260  0.00  0.00    +0.019 A 
ATOM     22  C   UNL     1       8.920  -3.197   1.697  0.00  0.00    +0.027 A 
ATOM     23 BR   UNL     1      11.777  -0.465   2.957  0.00  0.00    -0.049 Br
ATOM     24 CL   UNL     1       9.375   1.303   1.371  0.00  0.00    -0.082 Cl
ATOM     25  C   UNL     1       7.991  -2.387   1.031  0.00  0.00    +0.052 A 
ATOM     26  N   UNL     1       6.836  -2.756   0.391  0.00  0.00    -0.358 N 
ATOM     27  H   UNL     1       6.498  -3.703   0.316  0.00  0.00    +0.165 HD
ATOM     28  C   UNL     1       6.219  -1.662  -0.141  0.00  0.00    +0.130 A 
ENDBRANCH  16  17
ENDBRANCH   5  16
TORSDOF 7
