REMARK  Name = 
REMARK  13 active torsions:
REMARK  status: ('A' for Active; 'I' for Inactive)
REMARK    1  A    between atoms: C_1  and  O_2
REMARK    2  A    between atoms: O_2  and  N_3
REMARK    3  A    between atoms: C_4  and  C_5
REMARK    4  A    between atoms: C_4  and  C_27
REMARK    5  A    between atoms: N_7  and  CA_8
REMARK    6  A    between atoms: CA_8  and  C_10
REMARK    7  A    between atoms: CA_8  and  C_12
REMARK    8  A    between atoms: CA_15  and  C_16
REMARK    9  A    between atoms: C_16  and  O_17
REMARK   10  A    between atoms: C_19  and  C_20
REMARK   11  A    between atoms: C_20  and  C_21
REMARK   12  A    between atoms: C_21  and  O_23
REMARK   13  A    between atoms: O_23  and  C_24
REMARK                            x       y       z     vdW  Elec       q    Type
REMARK                         _______ _______ _______ _____ _____    ______ ____
ROOT
ATOM      1  CA  UNL     1       5.294  -0.542   4.982  0.00  0.00    +0.166 C 
ENDROOT
BRANCH   1   2
ATOM      2  C   UNL     1       4.083  -0.748   5.933  0.00  0.00    +0.156 C 
ATOM      3  S   UNL     1       4.437  -0.858   7.701  0.00  0.00    -0.132 S 
ATOM      4  C   UNL     1       4.821  -2.604   7.834  0.00  0.00    +0.104 C 
ATOM      5  C   UNL     1       3.900  -3.527   7.089  0.00  0.00    -0.021 C 
ATOM      6  CA  UNL     1       3.172  -3.145   6.009  0.00  0.00    +0.114 C 
ATOM      7  N   UNL     1       3.222  -1.846   5.474  0.00  0.00    -0.325 N 
ATOM      8  H   UNL     1       3.196  -1.823   4.459  0.00  0.00    +0.147 HD
BRANCH   6   9
ATOM      9  C   UNL     1       2.247  -4.177   5.352  0.00  0.00    +0.351 C 
ATOM     10  OXT UNL     1       1.910  -5.233   5.863  0.00  0.00    -0.244 OA
BRANCH   9  11
ATOM     11  O   UNL     1       1.810  -3.831   4.125  0.00  0.00    -0.476 OA
ATOM     12  H   UNL     1       2.019  -2.928   3.852  0.00  0.00    +0.295 HD
ENDBRANCH   9  11
ENDBRANCH   6   9
BRANCH   5  13
ATOM     13  C   UNL     1       3.927  -4.940   7.678  0.00  0.00    +0.154 C 
BRANCH  13  14
ATOM     14  C   UNL     1       4.542  -5.963   6.734  0.00  0.00    +0.311 C 
ATOM     15  O   UNL     1       5.092  -5.714   5.672  0.00  0.00    -0.251 OA
BRANCH  14  16
ATOM     16  O   UNL     1       4.432  -7.212   7.295  0.00  0.00    -0.468 OA
ATOM     17  C   UNL     1       4.924  -8.275   6.477  0.00  0.00    +0.280 C 
ENDBRANCH  14  16
ENDBRANCH  13  14
ENDBRANCH   5  13
ENDBRANCH   1   2
BRANCH   1  19
ATOM     18  C   UNL     1       5.888  -2.470   3.564  0.00  0.00    +0.268 C 
ATOM     19  N   UNL     1       6.097  -1.735   4.715  0.00  0.00    -0.298 N 
ATOM     20  H   UNL     1       6.871  -2.023   5.312  0.00  0.00    +0.150 HD
ATOM     21  O   UNL     1       4.997  -2.194   2.771  0.00  0.00    -0.268 OA
BRANCH  18  23
ATOM     22  N   UNL     1       7.952  -3.598   4.071  0.00  0.00    -0.078 NA
ATOM     23  C   UNL     1       6.862  -3.661   3.344  0.00  0.00    +0.190 C 
BRANCH  23  24
ATOM     24  C   UNL     1       6.518  -4.733   2.379  0.00  0.00    +0.107 A 
ATOM     25  N   UNL     1       7.377  -5.802   2.091  0.00  0.00    -0.223 NA
ATOM     26  C   UNL     1       6.842  -6.636   1.240  0.00  0.00    +0.156 A 
ATOM     27  N   UNL     1       7.446  -7.762   0.833  0.00  0.00    -0.338 N 
ATOM     28  H   UNL     1       8.435  -7.823   1.032  0.00  0.00    +0.144 HD
ATOM     29  H   UNL     1       7.156  -8.170  -0.045  0.00  0.00    +0.144 HD
ATOM     30  S   UNL     1       5.304  -6.183   0.644  0.00  0.00    -0.060 S 
ATOM     31  C   UNL     1       5.339  -4.801   1.653  0.00  0.00    +0.078 A 
ENDBRANCH  23  24
BRANCH  22  33
ATOM     32  C   UNL     1       9.990  -4.542   4.628  0.00  0.00    +0.313 C 
ATOM     33  O   UNL     1       8.809  -4.686   3.858  0.00  0.00    -0.396 OA
ENDBRANCH  22  33
ENDBRANCH  18  23
ENDBRANCH   1  19
BRANCH   1  34
ATOM     34  C   UNL     1       6.178   0.621   5.393  0.00  0.00    +0.248 C 
ATOM     35  O   UNL     1       6.306   1.642   4.724  0.00  0.00    -0.299 OA
ENDBRANCH   1  34
TORSDOF 11
