REMARK  Name = 
REMARK  12 active torsions:
REMARK  status: ('A' for Active; 'I' for Inactive)
REMARK    1  A    between atoms: C_2  and  C_3
REMARK    2  A    between atoms: C_2  and  N_7
REMARK    3  A    between atoms: C_2  and  B_32
REMARK    4  A    between atoms: C_3  and  C_4
REMARK    5  A    between atoms: C_4  and  C_5
REMARK    6  A    between atoms: C_4  and  C_6
REMARK    7  A    between atoms: C_8  and  C_10
REMARK    8  A    between atoms: C_10  and  C_12
REMARK    9  A    between atoms: C_10  and  N_23
REMARK   10  A    between atoms: C_12  and  C_13
REMARK   11  A    between atoms: B_32  and  O_33
REMARK   12  A    between atoms: B_32  and  O_34
REMARK                            x       y       z     vdW  Elec       q    Type
REMARK                         _______ _______ _______ _____ _____    ______ ____
ROOT
ATOM      1  C   UNL     1       2.673  -3.270   2.266  0.00  0.00    +0.000 C 
ENDROOT
BRANCH   1   2
ATOM      2  N   UNL     1       2.196  -3.561   3.619  0.00  0.00    +0.000 N 
ATOM      3  H   UNL     1       2.462  -2.868   4.324  0.00  0.00    +0.000 HD
ATOM      4  C   UNL     1       1.477  -4.682   3.952  0.00  0.00    +0.000 C 
ATOM      5  N   UNL     1       1.071  -4.956   5.249  0.00  0.00    +0.000 N 
ATOM      6  C   UNL     1       0.297  -6.155   5.564  0.00  0.00    +0.000 C 
ATOM      7  C   UNL     1      -1.011  -5.719   6.239  0.00  0.00    +0.000 C 
ATOM      8  O   UNL     1      -0.739  -4.949   7.398  0.00  0.00    +0.000 OA
ATOM      9  C   UNL     1      -0.036  -3.768   7.048  0.00  0.00    +0.000 C 
ATOM     10  C   UNL     1       1.318  -4.112   6.414  0.00  0.00    +0.000 C 
ATOM     11  O   UNL     1       1.194  -5.477   3.065  0.00  0.00    +0.000 OA
ENDBRANCH   1   2
BRANCH   1  14
ATOM     12  N   UNL     1       0.733  -1.788   1.697  0.00  0.00    +0.000 N 
ATOM     13  H   UNL     1       0.123  -2.584   1.943  0.00  0.00    +0.000 HD
ATOM     14  C   UNL     1       2.085  -1.943   1.803  0.00  0.00    +0.000 C 
ATOM     15  O   UNL     1       2.830  -1.011   1.532  0.00  0.00    +0.000 OA
BRANCH  12  16
ATOM     16  C   UNL     1       0.108  -0.536   1.278  0.00  0.00    +0.000 C 
BRANCH  16  17
ATOM     17  B   UNL     1      -0.731   0.066   2.508  0.00  0.00    +0.000 B 
BRANCH  17  18
ATOM     18  O   UNL     1       0.004   0.823   3.520  0.00  0.00    +0.000 OA
ATOM     19  H   UNL     1       0.512   1.511   3.016  0.00  0.00    +0.000 HD
ENDBRANCH  17  18
BRANCH  17  20
ATOM     20  O   UNL     1      -1.945  -0.635   2.927  0.00  0.00    +0.000 OA
ATOM     21  H   UNL     1      -1.638  -1.513   3.269  0.00  0.00    +0.000 HD
ENDBRANCH  17  20
ENDBRANCH  16  17
BRANCH  16  22
ATOM     22  C   UNL     1      -0.774  -0.762   0.026  0.00  0.00    +0.000 C 
BRANCH  22  23
ATOM     23  C   UNL     1      -1.479   0.515  -0.518  0.00  0.00    +0.000 C 
ATOM     24  C   UNL     1      -2.376   0.153  -1.710  0.00  0.00    +0.000 C 
ATOM     25  C   UNL     1      -0.479   1.601  -0.946  0.00  0.00    +0.000 C 
ENDBRANCH  22  23
ENDBRANCH  16  22
ENDBRANCH  12  16
ENDBRANCH   1  14
BRANCH   1  26
ATOM     26  C   UNL     1       4.228  -3.261   2.298  0.00  0.00    +0.000 C 
BRANCH  26  27
ATOM     27  C   UNL     1       4.885  -2.983   0.946  0.00  0.00    +0.000 A 
ATOM     28  C   UNL     1       4.649  -3.908  -0.086  0.00  0.00    +0.000 A 
ATOM     29  C   UNL     1       5.217  -3.749  -1.348  0.00  0.00    +0.000 A 
ATOM     30  C   UNL     1       6.038  -2.661  -1.617  0.00  0.00    +0.000 A 
ATOM     31  C   UNL     1       6.303  -1.714  -0.622  0.00  0.00    +0.000 A 
ATOM     32  C   UNL     1       7.137  -0.623  -0.919  0.00  0.00    +0.000 A 
ATOM     33  C   UNL     1       7.417   0.336   0.051  0.00  0.00    +0.000 A 
ATOM     34  C   UNL     1       6.870   0.215   1.325  0.00  0.00    +0.000 A 
ATOM     35  C   UNL     1       6.040  -0.863   1.642  0.00  0.00    +0.000 A 
ATOM     36  C   UNL     1       5.734  -1.856   0.677  0.00  0.00    +0.000 A 
ENDBRANCH  26  27
ENDBRANCH   1  26
TORSDOF 10
