REMARK  Name = 
REMARK  17 active torsions:
REMARK  status: ('A' for Active; 'I' for Inactive)
REMARK    1  A    between atoms: C_1  and  N_2
REMARK    2  A    between atoms: N_2  and  C_3
REMARK    3  A    between atoms: C_5  and  O_7
REMARK    4  A    between atoms: C_11  and  O_13
REMARK    5  A    between atoms: O_13  and  C_14
REMARK    6  A    between atoms: C_16  and  N_18
REMARK    7  A    between atoms: C_20  and  N_22
REMARK    8  A    between atoms: C_23  and  O_25
REMARK    9  A    between atoms: C_26  and  O_28
REMARK   10  A    between atoms: C_29  and  N_31
REMARK   11  A    between atoms: C_36  and  O_38
REMARK   12  A    between atoms: O_38  and  C_39
REMARK   13  A    between atoms: C_42  and  C_44
REMARK   14  A    between atoms: C_44  and  O_45
REMARK   15  A    between atoms: C_46  and  N_48
REMARK   16  A    between atoms: C_49  and  O_51
REMARK   17  A    between atoms: C_52  and  O_54
REMARK                            x       y       z     vdW  Elec       q    Type
REMARK                         _______ _______ _______ _____ _____    ______ ____
ROOT
ATOM      1  C   UNL     1       8.177   4.452   5.445  0.00  0.00    +0.141 C 
ATOM      2  C   UNL     1       8.542   5.900   5.993  0.00  0.00    +0.273 C 
ATOM      3  O   UNL     1       8.616   6.901   4.966  0.00  0.00    -0.344 OA
ATOM      4  C   UNL     1       7.456   6.965   4.155  0.00  0.00    +0.154 C 
ATOM      5  C   UNL     1       7.423   5.712   3.298  0.00  0.00    +0.180 C 
ATOM      6  O   UNL     1       6.353   5.735   2.335  0.00  0.00    -0.341 OA
ATOM      7  C   UNL     1       6.433   6.852   1.460  0.00  0.00    +0.268 C 
ATOM      8  C   UNL     1       6.371   8.172   2.279  0.00  0.00    +0.110 C 
ATOM      9  C   UNL     1       7.513   8.223   3.289  0.00  0.00    +0.058 C 
ATOM     10  C   UNL     1       7.204   4.524   4.225  0.00  0.00    +0.168 C 
ENDROOT
BRANCH   1  12
ATOM     11  C   UNL     1       8.005   3.215   7.636  0.00  0.00    +0.101 C 
ATOM     12  N   UNL     1       7.419   3.516   6.347  0.00  0.00    -0.310 NA
ATOM     13  H   UNL     1       7.293   2.629   5.848  0.00  0.00    +0.122 HD
ENDBRANCH   1  12
BRANCH   8  14
ATOM     14  N   UNL     1       6.296   9.383   1.453  0.00  0.00    -0.323 NA
ATOM     15  H   UNL     1       6.323  10.214   2.033  0.00  0.00    +0.119 HD
ATOM     16  H   UNL     1       7.096   9.409   0.817  0.00  0.00    +0.119 HD
ENDBRANCH   8  14
BRANCH  10  17
ATOM     17  O   UNL     1       5.837   4.589   4.712  0.00  0.00    -0.387 OA
ATOM     18  H   UNL     1       5.856   4.106   5.564  0.00  0.00    +0.210 HD
ENDBRANCH  10  17
BRANCH   7  19
ATOM     19  O   UNL     1       7.565   6.718   0.578  0.00  0.00    -0.342 OA
BRANCH  19  20
ATOM     20  C   UNL     1       7.566   5.429  -0.109  0.00  0.00    +0.169 C 
ATOM     21  C   UNL     1       6.363   5.258  -1.077  0.00  0.00    +0.175 C 
ATOM     22  C   UNL     1       6.429   3.940  -1.850  0.00  0.00    +0.162 C 
ATOM     23  C   UNL     1       7.771   3.735  -2.567  0.00  0.00    +0.084 C 
ATOM     24  C   UNL     1       8.954   3.899  -1.616  0.00  0.00    +0.042 C 
ATOM     25  C   UNL     1       8.910   5.252  -0.882  0.00  0.00    +0.084 C 
BRANCH  25  26
ATOM     26  N   UNL     1      10.076   5.304   0.018  0.00  0.00    -0.325 NA
ATOM     27  H   UNL     1      10.937   5.283  -0.531  0.00  0.00    +0.119 HD
ATOM     28  H   UNL     1      10.070   6.203   0.505  0.00  0.00    +0.119 HD
ENDBRANCH  25  26
BRANCH  23  29
ATOM     29  N   UNL     1       7.755   2.399  -3.193  0.00  0.00    -0.325 NA
ATOM     30  H   UNL     1       8.650   2.243  -3.677  0.00  0.00    +0.119 HD
ATOM     31  H   UNL     1       7.706   1.674  -2.471  0.00  0.00    +0.119 HD
ENDBRANCH  23  29
BRANCH  22  32
ATOM     32  O   UNL     1       5.381   3.901  -2.828  0.00  0.00    -0.388 OA
ATOM     33  H   UNL     1       5.606   3.156  -3.417  0.00  0.00    +0.210 HD
ENDBRANCH  22  32
BRANCH  21  34
ATOM     34  O   UNL     1       5.102   5.242  -0.383  0.00  0.00    -0.387 OA
ATOM     35  H   UNL     1       5.190   4.691   0.416  0.00  0.00    +0.210 HD
ENDBRANCH  21  34
ENDBRANCH  19  20
ENDBRANCH   7  19
BRANCH   2  36
ATOM     36  O   UNL     1       9.825   5.917   6.650  0.00  0.00    -0.318 OA
BRANCH  36  37
ATOM     37  C   UNL     1      10.072   7.202   7.255  0.00  0.00    +0.285 C 
ATOM     38  C   UNL     1      11.563   7.439   7.674  0.00  0.00    +0.200 C 
ATOM     39  C   UNL     1      11.627   8.303   8.969  0.00  0.00    +0.167 C 
ATOM     40  C   UNL     1      10.518   9.364   8.951  0.00  0.00    +0.114 C 
ATOM     41  C   UNL     1       9.145   8.661   8.943  0.00  0.00    +0.166 C 
ATOM     42  O   UNL     1       9.190   7.347   8.374  0.00  0.00    -0.341 OA
BRANCH  40  43
ATOM     43  N   UNL     1      10.689  10.307  10.077  0.00  0.00    -0.323 NA
ATOM     44  H   UNL     1      10.027  11.079   9.985  0.00  0.00    +0.119 HD
ATOM     45  H   UNL     1      10.437   9.848  10.954  0.00  0.00    +0.119 HD
ENDBRANCH  40  43
BRANCH  39  46
ATOM     46  O   UNL     1      12.893   8.951   9.099  0.00  0.00    -0.387 OA
ATOM     47  H   UNL     1      12.713   9.723   9.680  0.00  0.00    +0.210 HD
ENDBRANCH  39  46
BRANCH  38  48
ATOM     48  O   UNL     1      12.313   6.222   7.816  0.00  0.00    -0.384 OA
ATOM     49  H   UNL     1      12.508   6.084   8.757  0.00  0.00    +0.210 HD
ENDBRANCH  38  48
BRANCH  41  50
ATOM     50  C   UNL     1       8.076   9.538   8.275  0.00  0.00    +0.189 C 
BRANCH  50  51
ATOM     51  O   UNL     1       6.782   8.962   8.418  0.00  0.00    -0.392 OA
ATOM     52  H   UNL     1       6.810   8.091   7.982  0.00  0.00    +0.210 HD
ENDBRANCH  50  51
ENDBRANCH  41  50
ENDBRANCH  36  37
ENDBRANCH   2  36
TORSDOF 16
