REMARK  Name = 
REMARK  8 active torsions:
REMARK  status: ('A' for Active; 'I' for Inactive)
REMARK    1  A    between atoms: C_1  and  C_2
REMARK    2  A    between atoms: C_4  and  C_9
REMARK    3  A    between atoms: C_12  and  O_14
REMARK    4  A    between atoms: C_15  and  C_17
REMARK    5  A    between atoms: C_17  and  O_18
REMARK    6  A    between atoms: O_18  and  P_19
REMARK    7  A    between atoms: P_19  and  O_20
REMARK    8  A    between atoms: P_19  and  O_21
REMARK                            x       y       z     vdW  Elec       q    Type
REMARK                         _______ _______ _______ _____ _____    ______ ____
ROOT
ATOM      1  C   UNL     1       5.459   2.573  -0.354  0.00  0.00    +0.153 C 
ATOM      2  O   UNL     1       6.576   2.615   0.556  0.00  0.00    -0.364 OA
ATOM      3  C   UNL     1       6.800   3.992   0.917  0.00  0.00    +0.174 C 
ATOM      4  C   UNL     1       5.817   4.836   0.098  0.00  0.00    +0.148 C 
ATOM      5  C   UNL     1       4.685   3.863  -0.125  0.00  0.00    +0.070 C 
ENDROOT
BRANCH   1  13
ATOM      6  C   UNL     1       2.684  -0.488   2.611  0.00  0.00    +0.049 C 
ATOM      7  C   UNL     1       3.319  -0.106   1.314  0.00  0.00    +0.014 A 
ATOM      8  C   UNL     1       3.080  -1.021   0.156  0.00  0.00    +0.252 A 
ATOM      9  O   UNL     1       2.391  -2.030   0.249  0.00  0.00    -0.268 OA
ATOM     10  N   UNL     1       3.678  -0.662  -1.025  0.00  0.00    -0.329 N 
ATOM     11  H   UNL     1       3.515  -1.289  -1.802  0.00  0.00    +0.168 HD
ATOM     12  C   UNL     1       4.439   0.464  -1.194  0.00  0.00    +0.092 A 
ATOM     13  C   UNL     1       4.657   1.311  -0.173  0.00  0.00    -0.002 A 
ATOM     14  C   UNL     1       4.085   0.986   1.128  0.00  0.00    +0.016 A 
ENDBRANCH   1  13
BRANCH   4  15
ATOM     15  O   UNL     1       5.375   6.016   0.745  0.00  0.00    -0.389 OA
ATOM     16  H   UNL     1       4.992   5.780   1.607  0.00  0.00    +0.210 HD
ENDBRANCH   4  15
BRANCH   3  17
ATOM     17  C   UNL     1       8.254   4.380   0.662  0.00  0.00    +0.206 C 
BRANCH  17  18
ATOM     18  O   UNL     1       8.435   5.738   1.008  0.00  0.00    -0.284 OA
BRANCH  18  19
ATOM     19  P   UNL     1       9.899   6.365   0.856  0.00  0.00    +0.472 P 
ATOM     20  O   UNL     1      10.799   5.695  -0.119  0.00  0.00    -0.228 OA
BRANCH  19  21
ATOM     21  O   UNL     1      10.362   6.399   2.380  0.00  0.00    -0.303 OA
ATOM     22  H   UNL     1      10.266   5.538   2.819  0.00  0.00    +0.222 HD
ENDBRANCH  19  21
BRANCH  19  23
ATOM     23  O   UNL     1       9.524   7.890   0.569  0.00  0.00    -0.303 OA
ATOM     24  H   UNL     1       8.995   7.990  -0.240  0.00  0.00    +0.222 HD
ENDBRANCH  19  23
ENDBRANCH  18  19
ENDBRANCH  17  18
ENDBRANCH   3  17
TORSDOF 7
