REMARK  Name = 
REMARK  7 active torsions:
REMARK  status: ('A' for Active; 'I' for Inactive)
REMARK    1  A    between atoms: O_1  and  C_2
REMARK    2  A    between atoms: C_2  and  C_3
REMARK    3  A    between atoms: C_3  and  O_5
REMARK    4  A    between atoms: C_3  and  C_6
REMARK    5  A    between atoms: C_6  and  O_8
REMARK    6  A    between atoms: C_6  and  C_9
REMARK    7  A    between atoms: C_9  and  O_10
REMARK                            x       y       z     vdW  Elec       q    Type
REMARK                         _______ _______ _______ _____ _____    ______ ____
ROOT
ATOM      1  C   UNL     1       5.012  -1.595  -0.476  0.00  0.00    +0.170 C 
ENDROOT
BRANCH   1   2
ATOM      2  O   UNL     1       4.305  -2.780  -0.871  0.00  0.00    -0.387 OA
ATOM      3  H   UNL     1       3.451  -2.460  -1.231  0.00  0.00    +0.210 HD
ENDBRANCH   1   2
BRANCH   1   4
ATOM      4  C   UNL     1       4.745  -0.510  -1.526  0.00  0.00    +0.189 C 
BRANCH   4   5
ATOM      5  O   UNL     1       3.330  -0.344  -1.686  0.00  0.00    -0.392 OA
ATOM      6  H   UNL     1       3.212   0.366  -2.343  0.00  0.00    +0.210 HD
ENDBRANCH   4   5
ENDBRANCH   1   4
BRANCH   1   7
ATOM      7  C   UNL     1       4.570  -1.173   0.940  0.00  0.00    +0.170 C 
BRANCH   7   8
ATOM      8  O   UNL     1       5.230   0.049   1.313  0.00  0.00    -0.387 OA
ATOM      9  H   UNL     1       4.818   0.347   2.146  0.00  0.00    +0.210 HD
ENDBRANCH   7   8
BRANCH   7  10
ATOM     10  C   UNL     1       4.926  -2.234   1.991  0.00  0.00    +0.189 C 
BRANCH  10  11
ATOM     11  O   UNL     1       6.342  -2.372   2.113  0.00  0.00    -0.392 OA
ATOM     12  H   UNL     1       6.720  -1.488   1.945  0.00  0.00    +0.210 HD
ENDBRANCH  10  11
ENDBRANCH   7  10
ENDBRANCH   1   7
TORSDOF 7
