REMARK  Name = 
REMARK  21 active torsions:
REMARK  status: ('A' for Active; 'I' for Inactive)
REMARK    1  A    between atoms: C_1  and  C_2
REMARK    2  A    between atoms: C_2  and  C_3
REMARK    3  A    between atoms: C_3  and  C_5
REMARK    4  A    between atoms: C_5  and  C_7
REMARK    5  A    between atoms: C_5  and  C_8
REMARK    6  A    between atoms: N_11  and  C_17
REMARK    7  A    between atoms: C_13  and  C_14
REMARK    8  A    between atoms: C_20  and  C_22
REMARK    9  A    between atoms: C_22  and  O_23
REMARK   10  A    between atoms: O_23  and  P_24
REMARK   11  A    between atoms: P_24  and  O_27
REMARK   12  A    between atoms: O_27  and  P_28
REMARK   13  A    between atoms: P_28  and  O_29
REMARK   14  A    between atoms: P_28  and  O_31
REMARK   15  A    between atoms: O_31  and  C_32
REMARK   16  A    between atoms: C_32  and  C_33
REMARK   17  A    between atoms: C_36  and  N_44
REMARK   18  A    between atoms: C_38  and  O_40
REMARK   19  A    between atoms: C_41  and  O_43
REMARK   20  A    between atoms: C_54  and  O_56
REMARK   21  A    between atoms: C_57  and  O_59
REMARK                            x       y       z     vdW  Elec       q    Type
REMARK                         _______ _______ _______ _____ _____    ______ ____
ROOT
ATOM      1  P   UNL     1       3.644  13.881 -22.944  0.00  0.00    +0.222 P 
ATOM      2  O   UNL     1       2.216  13.833 -23.414  0.00  0.00    -0.437 OA
ATOM      3  O   UNL     1       4.529  12.673 -22.852  0.00  0.00    -0.517 OA
ENDROOT
BRANCH   1   4
ATOM      4  O   UNL     1       4.396  15.081 -23.702  0.00  0.00    -0.229 OA
BRANCH   4   5
ATOM      5  P   UNL     1       5.689  14.910 -24.600  0.00  0.00    +0.480 P 
ATOM      6  O   UNL     1       6.033  13.598 -25.214  0.00  0.00    -0.227 OA
BRANCH   5   7
ATOM      7  O   UNL     1       6.894  15.392 -23.648  0.00  0.00    -0.302 OA
ATOM      8  H   UNL     1       7.623  14.762 -23.785  0.00  0.00    +0.222 HD
ENDBRANCH   5   7
BRANCH   5   9
ATOM      9  O   UNL     1       5.693  16.120 -25.689  0.00  0.00    -0.284 OA
BRANCH   9  10
ATOM     10  C   UNL     1       6.410  15.761 -26.865  0.00  0.00    +0.206 C 
BRANCH  10  11
ATOM     11  C   UNL     1       6.595  16.881 -27.889  0.00  0.00    +0.178 C 
ATOM     12  C   UNL     1       7.270  16.292 -29.136  0.00  0.00    +0.178 C 
ATOM     13  C   UNL     1       6.123  16.034 -30.119  0.00  0.00    +0.195 C 
ATOM     14  C   UNL     1       4.871  16.536 -29.388  0.00  0.00    +0.253 C 
ATOM     15  O   UNL     1       5.333  17.404 -28.340  0.00  0.00    -0.346 OA
BRANCH  14  16
ATOM     16  N   UNL     1       3.976  17.263 -30.268  0.00  0.00    -0.286 N 
ATOM     17  C   UNL     1       3.383  16.736 -31.385  0.00  0.00    +0.167 A 
ATOM     18  N   UNL     1       3.462  15.473 -31.845  0.00  0.00    -0.216 NA
ATOM     19  C   UNL     1       2.737  15.338 -32.979  0.00  0.00    +0.225 A 
ATOM     20  N   UNL     1       2.042  16.282 -33.652  0.00  0.00    -0.219 NA
ATOM     21  C   UNL     1       2.034  17.543 -33.164  0.00  0.00    +0.147 A 
ATOM     22  N   UNL     1       1.355  18.528 -33.872  0.00  0.00    -0.341 N 
ATOM     23  H   UNL     1       1.114  19.331 -33.302  0.00  0.00    +0.144 HD
ATOM     24  H   UNL     1       0.640  18.145 -34.475  0.00  0.00    +0.144 HD
ATOM     25  C   UNL     1       2.706  17.799 -31.959  0.00  0.00    +0.147 A 
ATOM     26  N   UNL     1       2.846  18.940 -31.195  0.00  0.00    -0.231 NA
ATOM     27  C   UNL     1       3.599  18.574 -30.178  0.00  0.00    +0.203 A 
ENDBRANCH  14  16
BRANCH  13  28
ATOM     28  O   UNL     1       6.017  14.643 -30.433  0.00  0.00    -0.385 OA
ATOM     29  H   UNL     1       5.250  14.546 -31.036  0.00  0.00    +0.210 HD
ENDBRANCH  13  28
BRANCH  12  30
ATOM     30  O   UNL     1       8.207  17.225 -29.685  0.00  0.00    -0.386 OA
ATOM     31  H   UNL     1       7.745  18.062 -29.861  0.00  0.00    +0.210 HD
ENDBRANCH  12  30
ENDBRANCH  10  11
ENDBRANCH   9  10
ENDBRANCH   5   9
ENDBRANCH   4   5
ENDBRANCH   1   4
BRANCH   1  32
ATOM     32  O   UNL     1       3.579  14.458 -21.424  0.00  0.00    -0.324 OA
BRANCH  32  33
ATOM     33  C   UNL     1       4.479  15.470 -21.057  0.00  0.00    +0.202 C 
BRANCH  33  37
ATOM     34  C   UNL     1       5.327  16.628 -17.731  0.00  0.00    +0.439 C 
ATOM     35  C   UNL     1       5.497  15.122 -17.509  0.00  0.00    +0.244 C 
ATOM     36  C   UNL     1       4.814  14.480 -18.726  0.00  0.00    +0.183 C 
ATOM     37  C   UNL     1       4.348  15.676 -19.567  0.00  0.00    +0.182 C 
ATOM     38  O   UNL     1       5.098  16.816 -19.128  0.00  0.00    -0.309 OA
BRANCH  34  42
ATOM     39  C   UNL     1       1.912  18.580 -16.075  0.00  0.00    -0.014 A 
ATOM     40  C   UNL     1       1.879  17.205 -16.371  0.00  0.00    +0.104 A 
ATOM     41  C   UNL     1       3.043  16.575 -16.773  0.00  0.00    +0.325 A 
ATOM     42  N   UNL     1       4.190  17.253 -16.993  0.00  0.00    -0.173 N 
ATOM     43  C   UNL     1       4.254  18.575 -16.710  0.00  0.00    +0.312 A 
ATOM     44  C   UNL     1       3.137  19.251 -16.221  0.00  0.00    +0.075 A 
BRANCH  40  45
ATOM     45  C   UNL     1       0.656  16.356 -16.355  0.00  0.00    +0.248 C 
ATOM     46  O   UNL     1      -0.187  16.489 -15.494  0.00  0.00    -0.270 OA
ATOM     47  N   UNL     1       0.522  15.424 -17.345  0.00  0.00    -0.325 N 
ATOM     48  H   UNL     1      -0.363  14.927 -17.367  0.00  0.00    +0.145 HD
ATOM     49  H   UNL     1       1.005  15.457 -18.236  0.00  0.00    +0.145 HD
ENDBRANCH  40  45
BRANCH  39  50
ATOM     50  C   UNL     1       0.655  19.401 -15.789  0.00  0.00    +0.083 C 
ATOM     51  C   UNL     1       0.200  19.271 -14.337  0.00  0.00    +0.020 C 
BRANCH  50  52
ATOM     52  C   UNL     1      -0.383  19.162 -16.899  0.00  0.00    +0.140 C 
ATOM     53  O   UNL     1       0.011  18.907 -18.045  0.00  0.00    -0.297 OA
BRANCH  52  55
ATOM     54  C   UNL     1      -2.701  19.090 -17.832  0.00  0.00    +0.012 C 
ATOM     55  C   UNL     1      -1.854  19.326 -16.591  0.00  0.00    +0.071 C 
ENDBRANCH  52  55
ENDBRANCH  50  52
ENDBRANCH  39  50
ENDBRANCH  34  42
BRANCH  36  56
ATOM     56  O   UNL     1       3.680  13.726 -18.294  0.00  0.00    -0.386 OA
ATOM     57  H   UNL     1       3.357  13.232 -19.083  0.00  0.00    +0.210 HD
ENDBRANCH  36  56
BRANCH  35  58
ATOM     58  O   UNL     1       6.894  14.800 -17.435  0.00  0.00    -0.380 OA
ATOM     59  H   UNL     1       7.237  14.588 -18.324  0.00  0.00    +0.210 HD
ENDBRANCH  35  58
ENDBRANCH  33  37
ENDBRANCH  32  33
ENDBRANCH   1  32
TORSDOF 19
