REMARK  Name = 
REMARK  6 active torsions:
REMARK  status: ('A' for Active; 'I' for Inactive)
REMARK    1  A    between atoms: C_2  and  C_3
REMARK    2  A    between atoms: C_3  and  C_19
REMARK    3  A    between atoms: C_4  and  N_5
REMARK    4  A    between atoms: N_5  and  C_6
REMARK    5  A    between atoms: C_9  and  N_10
REMARK    6  A    between atoms: N_10  and  C_11
REMARK                            x       y       z     vdW  Elec       q    Type
REMARK                         _______ _______ _______ _____ _____    ______ ____
ROOT
ATOM      1  C   UNL     1       6.708   1.591   1.801  0.00  0.00    +0.031 A 
ATOM      2  C   UNL     1       6.448   2.965   1.699  0.00  0.00    +0.025 A 
ATOM      3  C   UNL     1       7.183   3.901   2.441  0.00  0.00    +0.025 A 
ATOM      4  C   UNL     1       8.198   3.491   3.309  0.00  0.00    +0.031 A 
ATOM      5  C   UNL     1       8.486   2.125   3.376  0.00  0.00    +0.025 A 
ATOM      6  C   UNL     1       7.750   1.190   2.639  0.00  0.00    +0.025 A 
ENDROOT
BRANCH   1   7
ATOM      7  N   UNL     1       5.865   0.681   1.144  0.00  0.00    -0.319 N 
ATOM      8  H   UNL     1       5.304   1.059   0.376  0.00  0.00    +0.152 HD
BRANCH   7  10
ATOM      9  C   UNL     1       4.934  -1.550   0.709  0.00  0.00    +0.113 C 
ATOM     10  C   UNL     1       5.687  -0.663   1.394  0.00  0.00    +0.095 C 
BRANCH   9  11
ATOM     11  C   UNL     1       4.184  -1.210  -0.465  0.00  0.00    +0.216 A 
ATOM     12  N   UNL     1       3.516  -2.179  -1.175  0.00  0.00    -0.107 NA
ATOM     13  N   UNL     1       2.950  -1.577  -2.211  0.00  0.00    -0.049 NA
ATOM     14  N   UNL     1       3.292  -0.292  -2.086  0.00  0.00    -0.176 N 
ATOM     15  H   UNL     1       2.997   0.408  -2.763  0.00  0.00    +0.214 HD
ATOM     16  N   UNL     1       4.050   0.014  -1.021  0.00  0.00    -0.132 NA
ENDBRANCH   9  11
BRANCH   9  18
ATOM     17  N   UNL     1       4.867  -3.990   1.571  0.00  0.00    -0.191 NA
ATOM     18  C   UNL     1       4.882  -2.901   1.166  0.00  0.00    +0.104 C 
ENDBRANCH   9  18
ENDBRANCH   7  10
ENDBRANCH   1   7
BRANCH   4  19
ATOM     19  N   UNL     1       8.904   4.442   4.066  0.00  0.00    -0.314 N 
ATOM     20  H   UNL     1       8.464   5.350   4.146  0.00  0.00    +0.152 HD
BRANCH  19  21
ATOM     21  C   UNL     1      10.210   4.395   4.586  0.00  0.00    +0.031 A 
ATOM     22  C   UNL     1      10.487   4.982   5.827  0.00  0.00    +0.023 A 
ATOM     23  C   UNL     1      11.770   4.910   6.381  0.00  0.00    +0.002 A 
ATOM     24  C   UNL     1      12.791   4.257   5.695  0.00  0.00    +0.000 A 
ATOM     25  C   UNL     1      12.530   3.671   4.460  0.00  0.00    +0.002 A 
ATOM     26  C   UNL     1      11.246   3.734   3.916  0.00  0.00    +0.023 A 
ENDBRANCH  19  21
ENDBRANCH   4  19
TORSDOF 6
