REMARK  Name = 
REMARK  11 active torsions:
REMARK  status: ('A' for Active; 'I' for Inactive)
REMARK    1  A    between atoms: O_1  and  C_2
REMARK    2  A    between atoms: C_2  and  C_3
REMARK    3  A    between atoms: C_3  and  O_5
REMARK    4  A    between atoms: C_3  and  C_6
REMARK    5  A    between atoms: C_6  and  O_8
REMARK    6  A    between atoms: C_6  and  C_9
REMARK    7  A    between atoms: C_9  and  O_11
REMARK    8  A    between atoms: C_9  and  C_12
REMARK    9  A    between atoms: C_12  and  N_13
REMARK   10  A    between atoms: N_13  and  C_14
REMARK   11  A    between atoms: C_15  and  N_16
REMARK                            x       y       z     vdW  Elec       q    Type
REMARK                         _______ _______ _______ _____ _____    ______ ____
ROOT
ATOM      1  N   UNL     1       7.037  -1.768   4.050  0.00  0.00    -0.326 N 
ATOM      2  H   UNL     1       7.161  -0.964   4.677  0.00  0.00    +0.148 HD
ENDROOT
BRANCH   1   3
ATOM      3  C   UNL     1       8.228  -2.502   4.018  0.00  0.00    +0.135 A 
ATOM      4  N   UNL     1       8.073  -3.828   3.704  0.00  0.00    -0.294 N 
ATOM      5  H   UNL     1       7.125  -4.157   3.558  0.00  0.00    +0.172 HD
ATOM      6  C   UNL     1       9.076  -4.741   3.587  0.00  0.00    +0.328 A 
ATOM      7  O   UNL     1       8.868  -5.913   3.297  0.00  0.00    -0.247 OA
ATOM      8  N   UNL     1      10.329  -4.263   3.805  0.00  0.00    -0.273 N 
ATOM      9  H   UNL     1      11.097  -4.909   3.697  0.00  0.00    +0.173 HD
ATOM     10  C   UNL     1      10.640  -2.958   4.098  0.00  0.00    +0.285 A 
ATOM     11  O   UNL     1      11.815  -2.615   4.208  0.00  0.00    -0.265 OA
ATOM     12  C   UNL     1       9.477  -2.015   4.249  0.00  0.00    +0.209 A 
BRANCH  12  13
ATOM     13  N   UNL     1       9.803  -0.742   4.508  0.00  0.00    -0.022 NA
ATOM     14  O   UNL     1       8.962  -0.075   5.123  0.00  0.00    -0.143 OA
ENDBRANCH  12  13
ENDBRANCH   1   3
BRANCH   1  15
ATOM     15  C   UNL     1       6.526  -1.241   2.767  0.00  0.00    +0.137 C 
BRANCH  15  16
ATOM     16  C   UNL     1       4.994  -1.098   2.749  0.00  0.00    +0.162 C 
BRANCH  16  17
ATOM     17  O   UNL     1       4.383  -2.401   2.886  0.00  0.00    -0.388 OA
ATOM     18  H   UNL     1       3.586  -2.273   3.431  0.00  0.00    +0.210 HD
ENDBRANCH  16  17
BRANCH  16  19
ATOM     19  C   UNL     1       4.503  -0.525   1.400  0.00  0.00    +0.175 C 
BRANCH  19  20
ATOM     20  O   UNL     1       3.071  -0.386   1.442  0.00  0.00    -0.387 OA
ATOM     21  H   UNL     1       2.715  -1.281   1.588  0.00  0.00    +0.210 HD
ENDBRANCH  19  20
BRANCH  19  22
ATOM     22  C   UNL     1       5.162   0.811   1.020  0.00  0.00    +0.171 C 
BRANCH  22  23
ATOM     23  O   UNL     1       5.018   1.768   2.076  0.00  0.00    -0.387 OA
ATOM     24  H   UNL     1       5.223   2.632   1.665  0.00  0.00    +0.210 HD
ENDBRANCH  22  23
BRANCH  22  25
ATOM     25  C   UNL     1       4.604   1.388  -0.282  0.00  0.00    +0.189 C 
BRANCH  25  26
ATOM     26  O   UNL     1       5.362   2.562  -0.596  0.00  0.00    -0.392 OA
ATOM     27  H   UNL     1       5.051   2.872  -1.465  0.00  0.00    +0.210 HD
ENDBRANCH  25  26
ENDBRANCH  22  25
ENDBRANCH  19  22
ENDBRANCH  16  19
ENDBRANCH  15  16
ENDBRANCH   1  15
TORSDOF 11
