REMARK  Name = 
REMARK  10 active torsions:
REMARK  status: ('A' for Active; 'I' for Inactive)
REMARK    1  A    between atoms: O_1  and  C_2
REMARK    2  A    between atoms: C_2  and  C_3
REMARK    3  A    between atoms: C_3  and  O_5
REMARK    4  A    between atoms: C_3  and  C_6
REMARK    5  A    between atoms: C_6  and  O_8
REMARK    6  A    between atoms: C_6  and  C_9
REMARK    7  A    between atoms: C_9  and  O_11
REMARK    8  A    between atoms: C_9  and  C_12
REMARK    9  A    between atoms: C_12  and  C_14
REMARK   10  A    between atoms: C_14  and  O_15
REMARK                            x       y       z     vdW  Elec       q    Type
REMARK                         _______ _______ _______ _____ _____    ______ ____
ROOT
ATOM      1  C   UNL     1       4.344   2.850   2.100  0.00  0.00    +0.181 C 
ENDROOT
BRANCH   1   2
ATOM      2  O   UNL     1       3.207   2.873   1.220  0.00  0.00    -0.386 OA
ATOM      3  H   UNL     1       3.477   2.532   0.351  0.00  0.00    +0.210 HD
ENDBRANCH   1   2
BRANCH   1   4
ATOM      4  C   UNL     1       3.861   3.198   3.519  0.00  0.00    +0.171 C 
BRANCH   4   5
ATOM      5  O   UNL     1       4.987   3.388   4.386  0.00  0.00    -0.387 OA
ATOM      6  H   UNL     1       4.589   3.495   5.276  0.00  0.00    +0.210 HD
ENDBRANCH   4   5
BRANCH   4   7
ATOM      7  C   UNL     1       2.892   2.195   4.156  0.00  0.00    +0.189 C 
BRANCH   7   8
ATOM      8  O   UNL     1       2.461   2.732   5.416  0.00  0.00    -0.392 OA
ATOM      9  H   UNL     1       1.800   2.106   5.765  0.00  0.00    +0.210 HD
ENDBRANCH   7   8
ENDBRANCH   4   7
ENDBRANCH   1   4
BRANCH   1  10
ATOM     10  C   UNL     1       5.130   1.528   1.944  0.00  0.00    +0.213 C 
BRANCH  10  11
ATOM     11  C   UNL     1       6.475   1.512   2.672  0.00  0.00    +0.189 C 
ATOM     12  O   UNL     1       6.704   0.709   3.582  0.00  0.00    -0.292 OA
BRANCH  11  13
ATOM     13  C   UNL     1       7.574   2.423   2.125  0.00  0.00    +0.232 C 
BRANCH  13  14
ATOM     14  O   UNL     1       8.822   2.207   2.762  0.00  0.00    -0.387 OA
ATOM     15  H   UNL     1       8.619   1.843   3.647  0.00  0.00    +0.210 HD
ENDBRANCH  13  14
ENDBRANCH  11  13
ENDBRANCH  10  11
BRANCH  10  16
ATOM     16  O   UNL     1       4.330   0.402   2.313  0.00  0.00    -0.382 OA
ATOM     17  H   UNL     1       4.933  -0.231   2.756  0.00  0.00    +0.210 HD
ENDBRANCH  10  16
ENDBRANCH   1  10
TORSDOF 10
