REMARK  Name = 
REMARK  4 active torsions:
REMARK  status: ('A' for Active; 'I' for Inactive)
REMARK    1  A    between atoms: N_1  and  S_2
REMARK    2  A    between atoms: S_2  and  C_5
REMARK    3  A    between atoms: C_8  and  N_9
REMARK    4  A    between atoms: C_15  and  N_17
REMARK                            x       y       z     vdW  Elec       q    Type
REMARK                         _______ _______ _______ _____ _____    ______ ____
ROOT
ATOM      1  C   UNL     1       3.220  -1.715   0.615  0.00  0.00    +0.112 A 
ATOM      2  C   UNL     1       2.461  -2.834   0.280  0.00  0.00    +0.114 A 
ATOM      3  C   UNL     1       2.940  -4.110   0.629  0.00  0.00    +0.296 A 
ATOM      4  C   UNL     1       4.156  -4.303   1.314  0.00  0.00    +0.114 A 
ATOM      5  C   UNL     1       4.880  -3.137   1.636  0.00  0.00    +0.032 A 
ATOM      6  C   UNL     1       4.422  -1.859   1.301  0.00  0.00    +0.031 A 
ENDROOT
BRANCH   4   7
ATOM      7  N   UNL     1       4.668  -5.551   1.769  0.00  0.00    -0.266 N 
ATOM      8  C   UNL     1       6.022  -5.811   2.044  0.00  0.00    +0.220 C 
ATOM      9  O   UNL     1       6.999  -5.142   1.741  0.00  0.00    -0.275 OA
ATOM     10  C   UNL     1       6.106  -7.130   2.772  0.00  0.00    +0.098 C 
ATOM     11  C   UNL     1       4.673  -7.361   3.219  0.00  0.00    +0.029 C 
ATOM     12  C   UNL     1       3.858  -6.690   2.131  0.00  0.00    +0.114 C 
ENDBRANCH   4   7
BRANCH   1  13
ATOM     13  S   UNL     1       2.694  -0.101   0.129  0.00  0.00    +0.056 S 
ATOM     14  O   UNL     1       1.524  -0.220  -0.710  0.00  0.00    -0.153 OA
ATOM     15  O   UNL     1       2.746   0.766   1.281  0.00  0.00    -0.153 OA
BRANCH  13  16
ATOM     16  N   UNL     1       3.940   0.368  -0.890  0.00  0.00    -0.204 NA
ATOM     17  H   UNL     1       3.610   0.422  -1.855  0.00  0.00    +0.144 HD
ATOM     18  H   UNL     1       4.365   1.232  -0.551  0.00  0.00    +0.144 HD
ENDBRANCH  13  16
ENDBRANCH   1  13
BRANCH   3  19
ATOM     19  N   UNL     1       2.161  -5.223   0.129  0.00  0.00    +0.082 N 
ATOM     20  O   UNL     1       1.010  -5.342   0.568  0.00  0.00    +0.042 OA
ATOM     21  O   UNL     1       2.692  -5.958  -0.713  0.00  0.00    -0.576 OA
ENDBRANCH   3  19
TORSDOF 4
