REMARK  Name = 
REMARK  7 active torsions:
REMARK  status: ('A' for Active; 'I' for Inactive)
REMARK    1  A    between atoms: N_1  and  C_2
REMARK    2  A    between atoms: C_2  and  C_4
REMARK    3  A    between atoms: C_2  and  C_13
REMARK    4  A    between atoms: C_4  and  S_5
REMARK    5  A    between atoms: S_5  and  C_6
REMARK    6  A    between atoms: C_6  and  C_7
REMARK    7  A    between atoms: C_13  and  O_14
REMARK                            x       y       z     vdW  Elec       q    Type
REMARK                         _______ _______ _______ _____ _____    ______ ____
ROOT
ATOM      1  C   UNK     1       2.875  -1.501  -0.217  0.00  0.00    +0.099 C 
ENDROOT
BRANCH   1   2
ATOM      2  C   UNK     1       2.454  -0.026  -0.145  0.00  0.00    +0.171 C 
BRANCH   2   3
ATOM      3  N   UNK     1       0.967   0.176  -0.134  0.00  0.00    -0.318 NA
ATOM      4  H   UNK     1       0.564  -0.415  -0.869  0.00  0.00    +0.119 HD
ATOM      5  H   UNK     1       0.631  -0.277   0.727  0.00  0.00    +0.119 HD
ENDBRANCH   2   3
BRANCH   2   6
ATOM      6  C   UNK     1       3.027   0.763  -1.328  0.00  0.00    +0.323 C 
ATOM      7  O   UNK     1       4.091   0.543  -1.884  0.00  0.00    -0.249 OA
BRANCH   6   8
ATOM      8  O   UNK     1       2.199   1.787  -1.670  0.00  0.00    -0.480 OA
ATOM      9  H   UNK     1       1.403   1.703  -1.085  0.00  0.00    +0.295 HD
ENDBRANCH   6   8
ENDBRANCH   2   6
ENDBRANCH   1   2
BRANCH   1  10
ATOM     10  S   UNK     1       2.171  -2.424   1.198  0.00  0.00    -0.154 S 
BRANCH  10  11
ATOM     11  C   UNK     1       2.888  -4.065   0.866  0.00  0.00    +0.104 C 
BRANCH  11  12
ATOM     12  C   UNK     1       2.448  -5.065   1.906  0.00  0.00    -0.038 A 
ATOM     13  C   UNK     1       3.204  -5.267   3.071  0.00  0.00    +0.004 A 
ATOM     14  C   UNK     1       2.780  -6.175   4.044  0.00  0.00    +0.000 A 
ATOM     15  C   UNK     1       1.597  -6.888   3.866  0.00  0.00    +0.000 A 
ATOM     16  C   UNK     1       0.832  -6.691   2.718  0.00  0.00    +0.000 A 
ATOM     17  C   UNK     1       1.254  -5.784   1.743  0.00  0.00    +0.004 A 
ENDBRANCH  11  12
ENDBRANCH  10  11
ENDBRANCH   1  10
TORSDOF 7
