REMARK  Name = 
REMARK  11 active torsions:
REMARK  status: ('A' for Active; 'I' for Inactive)
REMARK    1  A    between atoms: C_2  and  C_3
REMARK    2  A    between atoms: C_5  and  C_7
REMARK    3  A    between atoms: C_8  and  O_10
REMARK    4  A    between atoms: C_11  and  C_13
REMARK    5  A    between atoms: C_14  and  O_16
REMARK    6  A    between atoms: C_17  and  C_19
REMARK    7  A    between atoms: C_23  and  C_25
REMARK    8  A    between atoms: C_25  and  C_26
REMARK    9  A    between atoms: C_27  and  C_29
REMARK   10  A    between atoms: C_30  and  O_32
REMARK   11  A    between atoms: C_33  and  C_35
REMARK                            x       y       z     vdW  Elec       q    Type
REMARK                         _______ _______ _______ _____ _____    ______ ____
ROOT
ATOM      1  C   UNL     1       2.083  -0.188   0.392  0.00  0.00    +0.053 C 
ATOM      2  C   UNL     1       2.396   0.966  -0.582  0.00  0.00    +0.141 C 
ATOM      3  O   UNL     1       3.170   0.742  -1.516  0.00  0.00    -0.297 OA
ATOM      4  C   UNL     1       1.888   2.412  -0.265  0.00  0.00    +0.081 C 
ATOM      5  C   UNL     1       0.614   2.398   0.613  0.00  0.00    +0.018 C 
ATOM      6  C   UNL     1       1.614   3.370  -1.483  0.00  0.00    +0.131 C 
ATOM      7  C   UNL     1       0.683   2.782  -2.563  0.00  0.00    +0.056 C 
ATOM      8  C   UNL     1      -0.582   3.686  -2.663  0.00  0.00    +0.014 C 
ATOM      9  C   UNL     1       1.155   2.426  -4.012  0.00  0.00    +0.181 C 
ATOM     10  O   UNL     1      -0.026   1.704  -4.562  0.00  0.00    -0.461 OA
ATOM     11  C   UNL     1       0.048   0.482  -5.166  0.00  0.00    +0.313 C 
ATOM     12  O   UNL     1       0.326   0.391  -6.352  0.00  0.00    -0.250 OA
ATOM     13  C   UNL     1      -0.575  -0.655  -4.313  0.00  0.00    +0.123 C 
ATOM     14  C   UNL     1      -0.751  -0.246  -2.852  0.00  0.00    +0.022 C 
ATOM     15  C   UNL     1       0.036  -2.084  -4.539  0.00  0.00    +0.133 C 
ATOM     16  C   UNL     1       0.364  -3.005  -3.302  0.00  0.00    +0.044 C 
ATOM     17  C   UNL     1      -0.935  -3.498  -2.637  0.00  0.00    +0.013 C 
ATOM     18  C   UNL     1       1.587  -2.547  -2.409  0.00  0.00    +0.123 C 
ATOM     19  C   UNL     1       1.413  -2.456  -0.866  0.00  0.00    +0.015 C 
ATOM     20  C   UNL     1       1.492  -3.883  -0.279  0.00  0.00    +0.010 C 
ATOM     21  C   UNL     1       2.500  -1.606  -0.118  0.00  0.00    +0.016 C 
ATOM     22  C   UNL     1       2.873   0.086   1.683  0.00  0.00    +0.015 C 
ENDROOT
BRANCH   6  23
ATOM     23  O   UNL     1       2.773   4.003  -1.986  0.00  0.00    -0.391 OA
ATOM     24  H   UNL     1       2.501   4.632  -2.677  0.00  0.00    +0.210 HD
ENDBRANCH   6  23
BRANCH   9  25
ATOM     25  C   UNL     1       2.440   1.630  -4.282  0.00  0.00    +0.041 C 
ATOM     26  C   UNL     1       3.801   2.225  -3.967  0.00  0.00    +0.007 C 
ENDBRANCH   9  25
BRANCH  15  27
ATOM     27  O   UNL     1       1.148  -2.052  -5.435  0.00  0.00    -0.391 OA
ATOM     28  H   UNL     1       1.701  -2.837  -5.301  0.00  0.00    +0.210 HD
ENDBRANCH  15  27
BRANCH  18  29
ATOM     29  O   UNL     1       2.065  -1.330  -2.931  0.00  0.00    -0.391 OA
ATOM     30  H   UNL     1       2.925  -1.076  -2.548  0.00  0.00    +0.210 HD
ENDBRANCH  18  29
TORSDOF 4
