REMARK  Name = 
REMARK  7 active torsions:
REMARK  status: ('A' for Active; 'I' for Inactive)
REMARK    1  A    between atoms: N_9  and  C_12
REMARK    2  A    between atoms: C_15  and  C_17
REMARK    3  A    between atoms: C_17  and  O_18
REMARK    4  A    between atoms: C_22  and  C_24
REMARK    5  A    between atoms: C_24  and  P_25
REMARK    6  A    between atoms: P_25  and  O_26
REMARK    7  A    between atoms: P_25  and  O_27
REMARK                            x       y       z     vdW  Elec       q    Type
REMARK                         _______ _______ _______ _____ _____    ______ ____
ROOT
ATOM      1  C   UNL     1       4.514   3.656  -0.136  0.00  0.00    +0.254 C 
ATOM      2  C   UNL     1       5.209   4.828  -0.807  0.00  0.00    +0.202 C 
ATOM      3  C   UNL     1       4.889   4.684  -2.273  0.00  0.00    +0.185 C 
ATOM      4  O   UNL     1       4.630   6.014  -2.725  0.00  0.00    -0.342 OA
ATOM      5  C   UNL     1       4.172   6.755  -1.588  0.00  0.00    +0.263 C 
ATOM      6  C   UNL     1       3.623   3.827  -2.306  0.00  0.00    +0.178 C 
ATOM      7  O   UNL     1       4.503   6.032  -0.398  0.00  0.00    -0.340 OA
ATOM      8  O   UNL     1       3.282   3.555  -0.923  0.00  0.00    -0.346 OA
ENDROOT
BRANCH   1  16
ATOM      9  N   UNL     1       1.185  -0.149  -0.379  0.00  0.00    -0.329 N 
ATOM     10  H   UNL     1       0.842   0.624  -0.943  0.00  0.00    +0.145 HD
ATOM     11  H   UNL     1       0.844  -1.031  -0.738  0.00  0.00    +0.145 HD
ATOM     12  C   UNL     1       2.534  -0.167  -0.228  0.00  0.00    +0.195 A 
ATOM     13  N   UNL     1       3.039   1.079   0.002  0.00  0.00    -0.312 N 
ATOM     14  H   UNL     1       2.447   1.881  -0.192  0.00  0.00    +0.170 HD
ATOM     15  C   UNL     1       4.368   1.196   0.000  0.00  0.00    +0.148 A 
ATOM     16  N   UNL     1       5.104   2.338  -0.077  0.00  0.00    -0.287 N 
ATOM     17  C   UNL     1       6.410   1.926  -0.064  0.00  0.00    +0.203 A 
ATOM     18  N   UNL     1       6.511   0.604  -0.106  0.00  0.00    -0.229 NA
ATOM     19  C   UNL     1       5.213   0.131  -0.083  0.00  0.00    +0.172 A 
ATOM     20  C   UNL     1       4.630  -1.220  -0.192  0.00  0.00    +0.302 A 
ATOM     21  O   UNL     1       5.323  -2.229  -0.226  0.00  0.00    -0.263 OA
ATOM     22  N   UNL     1       3.227  -1.266  -0.303  0.00  0.00    -0.176 NA
ENDBRANCH   1  16
BRANCH   5  23
ATOM     23  C   UNL     1       2.673   6.973  -1.709  0.00  0.00    +0.188 C 
BRANCH  23  24
ATOM     24  P   UNL     1       1.981   7.869  -0.349  0.00  0.00    +0.333 P 
ATOM     25  O   UNL     1       2.688   9.130   0.007  0.00  0.00    -0.259 OA
BRANCH  24  26
ATOM     26  O   UNL     1       1.902   6.774   0.819  0.00  0.00    -0.324 OA
ATOM     27  H   UNL     1       2.779   6.422   1.069  0.00  0.00    +0.220 HD
ENDBRANCH  24  26
BRANCH  24  28
ATOM     28  O   UNL     1       0.434   8.046  -0.733  0.00  0.00    -0.324 OA
ATOM     29  H   UNL     1       0.077   7.497  -1.453  0.00  0.00    +0.220 HD
ENDBRANCH  24  28
ENDBRANCH  23  24
ENDBRANCH   5  23
BRANCH   6  30
ATOM     30  C   UNL     1       3.786   2.531  -3.111  0.00  0.00    +0.190 C 
BRANCH  30  31
ATOM     31  O   UNL     1       2.581   1.766  -3.041  0.00  0.00    -0.392 OA
ATOM     32  H   UNL     1       1.870   2.289  -3.447  0.00  0.00    +0.210 HD
ENDBRANCH  30  31
ENDBRANCH   6  30
TORSDOF 7
