REMARK  Name = 
REMARK  11 active torsions:
REMARK  status: ('A' for Active; 'I' for Inactive)
REMARK    1  A    between atoms: C_2  and  C_3
REMARK    2  A    between atoms: C_2  and  O_26
REMARK    3  A    between atoms: C_2  and  C_29
REMARK    4  A    between atoms: C_3  and  C_4
REMARK    5  A    between atoms: C_7  and  O_8
REMARK    6  A    between atoms: O_8  and  C_9
REMARK    7  A    between atoms: C_9  and  C_10
REMARK    8  A    between atoms: C_10  and  N_11
REMARK    9  A    between atoms: O_26  and  C_27
REMARK   10  A    between atoms: C_27  and  C_28
REMARK   11  A    between atoms: C_29  and  O_30
REMARK                            x       y       z     vdW  Elec       q    Type
REMARK                         _______ _______ _______ _____ _____    ______ ____
ROOT
ATOM      1  O   UNL     1       0.888  -6.450  -0.413  0.00  0.00    -0.490 OA
ENDROOT
BRANCH   1   5
ATOM      2  C   UNL     1       1.861  -2.360  -0.291  0.00  0.00    -0.044 A 
ATOM      3  C   UNL     1       2.838  -3.358  -0.470  0.00  0.00    +0.007 A 
ATOM      4  C   UNL     1       2.484  -4.713  -0.509  0.00  0.00    +0.046 A 
ATOM      5  C   UNL     1       1.152  -5.097  -0.398  0.00  0.00    +0.121 A 
ATOM      6  C   UNL     1       0.178  -4.101  -0.279  0.00  0.00    +0.046 A 
ATOM      7  C   UNL     1       0.526  -2.757  -0.228  0.00  0.00    +0.007 A 
BRANCH   2   8
ATOM      8  C   UNL     1       2.130  -0.871  -0.192  0.00  0.00    +0.078 C 
BRANCH   8   9
ATOM      9  C   UNL     1       3.482  -0.428   0.367  0.00  0.00    +0.230 C 
BRANCH   9  10
ATOM     10  C   UNL     1       3.615  -0.938   1.807  0.00  0.00    +0.334 C 
ATOM     11  O   UNL     1       2.850  -0.662   2.720  0.00  0.00    -0.248 OA
BRANCH  10  12
ATOM     12  O   UNL     1       4.695  -1.745   1.965  0.00  0.00    -0.479 OA
ATOM     13  H   UNL     1       5.149  -1.809   1.093  0.00  0.00    +0.295 HD
ENDBRANCH  10  12
ENDBRANCH   9  10
BRANCH   9  14
ATOM     14  O   UNL     1       4.612  -0.871  -0.409  0.00  0.00    -0.365 OA
BRANCH  14  15
ATOM     15  C   UNL     1       4.591  -0.406  -1.761  0.00  0.00    +0.157 C 
ATOM     16  C   UNL     1       5.786  -0.987  -2.484  0.00  0.00    +0.034 C 
ENDBRANCH  14  15
ENDBRANCH   9  14
ENDBRANCH   8   9
ENDBRANCH   2   8
ENDBRANCH   1   5
BRANCH   1  17
ATOM     17  C   UNL     1      -0.499  -6.745  -0.212  0.00  0.00    +0.250 C 
BRANCH  17  18
ATOM     18  C   UNL     1      -0.804  -8.231  -0.171  0.00  0.00    +0.163 C 
BRANCH  18  19
ATOM     19  N   UNL     1      -2.233  -8.415   0.082  0.00  0.00    -0.337 N 
ATOM     20  C   UNL     1      -2.801  -8.425   1.344  0.00  0.00    +0.050 A 
ATOM     21  C   UNL     1      -2.226  -8.330   2.623  0.00  0.00    +0.026 A 
ATOM     22  C   UNL     1      -3.073  -8.379   3.734  0.00  0.00    +0.002 A 
ATOM     23  C   UNL     1      -4.448  -8.513   3.581  0.00  0.00    +0.001 A 
ATOM     24  C   UNL     1      -5.014  -8.589   2.306  0.00  0.00    +0.010 A 
ATOM     25  C   UNL     1      -4.181  -8.540   1.168  0.00  0.00    +0.008 A 
ATOM     26  C   UNL     1      -4.439  -8.567  -0.236  0.00  0.00    +0.008 A 
ATOM     27  C   UNL     1      -5.624  -8.653  -0.997  0.00  0.00    +0.010 A 
ATOM     28  C   UNL     1      -5.556  -8.639  -2.391  0.00  0.00    +0.001 A 
ATOM     29  C   UNL     1      -4.323  -8.531  -3.031  0.00  0.00    +0.002 A 
ATOM     30  C   UNL     1      -3.133  -8.441  -2.299  0.00  0.00    +0.026 A 
ATOM     31  C   UNL     1      -3.211  -8.473  -0.896  0.00  0.00    +0.050 A 
ENDBRANCH  18  19
ENDBRANCH  17  18
ENDBRANCH   1  17
TORSDOF 10
