REMARK  Name = 
REMARK  23 active torsions:
REMARK  status: ('A' for Active; 'I' for Inactive)
REMARK    1  A    between atoms: C_1  and  C_2
REMARK    2  A    between atoms: C_2  and  C_3
REMARK    3  A    between atoms: C_2  and  C_4
REMARK    4  A    between atoms: C_4  and  C_5
REMARK    5  A    between atoms: C_5  and  N_7
REMARK    6  A    between atoms: C_5  and  C_18
REMARK    7  A    between atoms: C_8  and  O_10
REMARK    8  A    between atoms: O_10  and  C_11
REMARK    9  A    between atoms: C_11  and  C_12
REMARK   10  A    between atoms: C_18  and  O_20
REMARK   11  A    between atoms: C_18  and  N_21
REMARK   12  A    between atoms: N_21  and  C_22
REMARK   13  A    between atoms: C_22  and  C_24
REMARK   14  A    between atoms: C_22  and  C_28
REMARK   15  A    between atoms: C_24  and  C_25
REMARK   16  A    between atoms: C_25  and  C_26
REMARK   17  A    between atoms: C_25  and  C_27
REMARK   18  A    between atoms: N_30  and  C_31
REMARK   19  A    between atoms: C_31  and  C_33
REMARK   20  A    between atoms: C_31  and  C_41
REMARK   21  A    between atoms: C_33  and  C_34
REMARK   22  A    between atoms: C_37  and  O_38
REMARK   23  A    between atoms: C_41  and  C_42
REMARK                            x       y       z     vdW  Elec       q    Type
REMARK                         _______ _______ _______ _____ _____    ______ ____
ROOT
ATOM      1  N   UNL     1       6.494  -0.729  -2.862  0.00  0.00    -0.279 NA
ATOM      2  H   UNL     1       7.144  -1.338  -2.357  0.00  0.00    +0.125 HD
ENDROOT
BRANCH   1   3
ATOM      3  C   UNL     1       6.901  -0.804  -4.286  0.00  0.00    +0.143 C 
BRANCH   3   4
ATOM      4  C   UNL     1       8.475  -0.716  -4.333  0.00  0.00    +0.231 C 
ATOM      5  N   UNL     1       9.052  -0.636  -5.581  0.00  0.00    -0.304 N 
ATOM      6  H   UNL     1       8.486  -0.694  -6.422  0.00  0.00    +0.149 HD
ATOM      7  O   UNL     1       9.171  -0.756  -3.315  0.00  0.00    -0.274 OA
BRANCH   5   8
ATOM      8  C   UNL     1      10.488  -0.398  -5.789  0.00  0.00    +0.143 C 
BRANCH   8   9
ATOM      9  C   UNL     1      10.676   0.400  -7.093  0.00  0.00    +0.151 C 
ATOM     10  O   UNL     1       9.725   0.677  -7.831  0.00  0.00    -0.296 OA
ATOM     11  C   UNL     1      12.065   0.886  -7.435  0.00  0.00    +0.088 C 
ENDBRANCH   8   9
BRANCH   8  12
ATOM     12  C   UNL     1      11.313  -1.698  -5.772  0.00  0.00    +0.065 C 
BRANCH  12  13
ATOM     13  C   UNL     1      10.944  -2.673  -6.868  0.00  0.00    -0.045 A 
ATOM     14  C   UNL     1       9.933  -3.620  -6.648  0.00  0.00    +0.007 A 
ATOM     15  C   UNL     1       9.530  -4.474  -7.668  0.00  0.00    +0.045 A 
ATOM     16  C   UNL     1      10.129  -4.386  -8.920  0.00  0.00    +0.117 A 
ATOM     17  C   UNL     1      11.151  -3.475  -9.156  0.00  0.00    +0.045 A 
ATOM     18  C   UNL     1      11.565  -2.623  -8.126  0.00  0.00    +0.007 A 
BRANCH  16  19
ATOM     19  O   UNL     1       9.681  -5.214  -9.904  0.00  0.00    -0.507 OA
ATOM     20  H   UNL     1      10.106  -4.963 -10.744  0.00  0.00    +0.292 HD
ENDBRANCH  16  19
ENDBRANCH  12  13
ENDBRANCH   8  12
ENDBRANCH   5   8
ENDBRANCH   3   4
BRANCH   3  21
ATOM     21  C   UNL     1       6.282   0.289  -5.183  0.00  0.00    +0.031 C 
BRANCH  21  22
ATOM     22  C   UNL     1       6.660   1.753  -4.851  0.00  0.00    -0.015 C 
ATOM     23  C   UNL     1       6.176   2.257  -3.492  0.00  0.00    +0.007 C 
ATOM     24  C   UNL     1       6.096   2.672  -5.938  0.00  0.00    +0.007 C 
ENDBRANCH  21  22
ENDBRANCH   3  21
ENDBRANCH   1   3
BRANCH   1  25
ATOM     25  C   UNL     1       5.133  -1.121  -2.513  0.00  0.00    +0.204 C 
BRANCH  25  26
ATOM     26  O   UNL     1       4.185  -0.326  -3.215  0.00  0.00    -0.376 OA
ATOM     27  H   UNL     1       4.184   0.539  -2.774  0.00  0.00    +0.212 HD
ENDBRANCH  25  26
BRANCH  25  28
ATOM     28  C   UNL     1       4.848  -0.913  -0.965  0.00  0.00    +0.120 C 
BRANCH  28  29
ATOM     29  N   UNL     1       3.441  -1.163  -0.638  0.00  0.00    -0.274 N 
ATOM     30  H   UNL     1       2.824  -0.376  -0.488  0.00  0.00    +0.152 HD
ATOM     31  C   UNL     1       2.787  -2.317  -0.948  0.00  0.00    +0.401 C 
ATOM     32  O   UNL     1       3.319  -3.354  -1.311  0.00  0.00    -0.226 OA
BRANCH  31  33
ATOM     33  O   UNL     1       1.458  -2.102  -0.831  0.00  0.00    -0.446 OA
BRANCH  33  34
ATOM     34  C   UNL     1       0.601  -3.182  -1.225  0.00  0.00    +0.269 C 
BRANCH  34  35
ATOM     35  C   UNL     1      -0.121  -3.702  -0.006  0.00  0.00    -0.010 A 
ATOM     36  C   UNL     1       0.435  -4.744   0.745  0.00  0.00    +0.007 A 
ATOM     37  C   UNL     1      -0.227  -5.226   1.883  0.00  0.00    +0.000 A 
ATOM     38  C   UNL     1      -1.438  -4.662   2.274  0.00  0.00    +0.000 A 
ATOM     39  C   UNL     1      -1.987  -3.613   1.544  0.00  0.00    +0.000 A 
ATOM     40  C   UNL     1      -1.333  -3.132   0.407  0.00  0.00    +0.007 A 
ENDBRANCH  34  35
ENDBRANCH  33  34
ENDBRANCH  31  33
ENDBRANCH  28  29
BRANCH  28  41
ATOM     41  C   UNL     1       5.827  -1.685  -0.057  0.00  0.00    +0.029 C 
BRANCH  41  43
ATOM     42  C   UNL     1       6.671  -2.355   2.207  0.00  0.00    +0.007 C 
ATOM     43  C   UNL     1       5.627  -1.512   1.465  0.00  0.00    -0.015 C 
ATOM     44  C   UNL     1       5.744  -0.059   1.934  0.00  0.00    +0.007 C 
ENDBRANCH  41  43
ENDBRANCH  28  41
ENDBRANCH  25  28
ENDBRANCH   1  25
TORSDOF 18
