REMARK  Name = 
REMARK  6 active torsions:
REMARK  status: ('A' for Active; 'I' for Inactive)
REMARK    1  A    between atoms: C_1  and  O_2
REMARK    2  A    between atoms: O_2  and  C_3
REMARK    3  A    between atoms: C_5  and  O_7
REMARK    4  A    between atoms: C_9  and  C_11
REMARK    5  A    between atoms: C_12  and  O_14
REMARK    6  A    between atoms: C_15  and  O_17
REMARK                            x       y       z     vdW  Elec       q    Type
REMARK                         _______ _______ _______ _____ _____    ______ ____
ROOT
ATOM      1  C   UNL     1       3.108  -1.296  -0.162  0.00  0.00    +0.204 C 
ATOM      2  C   UNL     1       2.968  -2.777   0.241  0.00  0.00    +0.179 C 
ATOM      3  C   UNL     1       2.486  -2.994   1.689  0.00  0.00    +0.174 C 
ATOM      4  C   UNL     1       3.220  -2.046   2.649  0.00  0.00    +0.149 C 
ATOM      5  C   UNL     1       2.670  -2.137   4.068  0.00  0.00    +0.041 C 
ATOM      6  O   UNL     1       3.094  -0.685   2.210  0.00  0.00    -0.343 OA
ATOM      7  C   UNL     1       3.772  -0.484   0.972  0.00  0.00    +0.279 C 
ENDROOT
BRANCH   1   9
ATOM      8  C   UNL     1       0.857  -0.343   0.191  0.00  0.00    +0.194 C 
ATOM      9  O   UNL     1       1.880  -0.754  -0.700  0.00  0.00    -0.372 OA
ENDBRANCH   1   9
BRANCH   2  10
ATOM     10  O   UNL     1       2.109  -3.468  -0.678  0.00  0.00    -0.386 OA
ATOM     11  H   UNL     1       1.356  -2.873  -0.861  0.00  0.00    +0.210 HD
ENDBRANCH   2  10
BRANCH   3  12
ATOM     12  O   UNL     1       2.738  -4.353   2.067  0.00  0.00    -0.387 OA
ATOM     13  H   UNL     1       2.099  -4.592   2.762  0.00  0.00    +0.210 HD
ENDBRANCH   3  12
BRANCH   7  14
ATOM     14  O   UNL     1       3.817   0.901   0.675  0.00  0.00    -0.365 OA
ATOM     15  H   UNL     1       3.087   1.077   0.058  0.00  0.00    +0.213 HD
ENDBRANCH   7  14
TORSDOF 4
