REMARK  Name = 
REMARK  17 active torsions:
REMARK  status: ('A' for Active; 'I' for Inactive)
REMARK    1  A    between atoms: N_1  and  C_2
REMARK    2  A    between atoms: C_2  and  C_3
REMARK    3  A    between atoms: C_3  and  C_4
REMARK    4  A    between atoms: C_4  and  N_5
REMARK    5  A    between atoms: N_8  and  C_9
REMARK    6  A    between atoms: C_9  and  C_10
REMARK    7  A    between atoms: C_10  and  C_11
REMARK    8  A    between atoms: C_11  and  N_12
REMARK    9  A    between atoms: C_13  and  C_15
REMARK   10  A    between atoms: C_17  and  O_18
REMARK   11  A    between atoms: O_18  and  C_19
REMARK   12  A    between atoms: C_22  and  C_24
REMARK   13  A    between atoms: C_24  and  O_25
REMARK   14  A    between atoms: C_26  and  O_28
REMARK   15  A    between atoms: C_29  and  O_31
REMARK   16  A    between atoms: C_32  and  O_34
REMARK   17  A    between atoms: C_36  and  N_38
REMARK                            x       y       z     vdW  Elec       q    Type
REMARK                         _______ _______ _______ _____ _____    ______ ____
ROOT
ATOM      1  C   UNL     1       2.186  -9.543  -8.107  0.00  0.00    +0.047 A 
ATOM      2  C   UNL     1       1.066  -8.785  -7.757  0.00  0.00    +0.097 A 
ATOM      3  C   UNL     1      -0.210  -9.291  -8.048  0.00  0.00    +0.277 A 
ATOM      4  C   UNL     1      -0.365 -10.541  -8.663  0.00  0.00    +0.130 A 
ATOM      5  C   UNL     1       0.763 -11.295  -8.991  0.00  0.00    +0.131 A 
ATOM      6  C   UNL     1       2.033 -10.784  -8.735  0.00  0.00    +0.059 A 
ENDROOT
BRANCH   1   9
ATOM      7  N   UNL     1       3.791  -8.317  -6.761  0.00  0.00    -0.311 N 
ATOM      8  H   UNL     1       3.066  -8.208  -6.059  0.00  0.00    +0.149 HD
ATOM      9  C   UNL     1       3.568  -9.056  -7.892  0.00  0.00    +0.244 C 
ATOM     10  O   UNL     1       4.442  -9.360  -8.702  0.00  0.00    -0.270 OA
BRANCH   7  11
ATOM     11  C   UNL     1       5.107  -7.816  -6.428  0.00  0.00    +0.106 C 
BRANCH  11  12
ATOM     12  C   UNL     1       5.159  -6.291  -6.486  0.00  0.00    +0.034 C 
BRANCH  12  13
ATOM     13  C   UNL     1       4.279  -5.614  -5.428  0.00  0.00    +0.086 C 
BRANCH  13  17
ATOM     14  N   UNL     1       5.203  -3.598  -2.406  0.00  0.00    -0.300 NA
ATOM     15  C   UNL     1       3.821  -3.951  -2.812  0.00  0.00    +0.100 C 
ATOM     16  C   UNL     1       3.591  -5.458  -3.099  0.00  0.00    +0.100 C 
ATOM     17  N   UNL     1       4.554  -6.060  -4.050  0.00  0.00    -0.300 NA
ATOM     18  C   UNL     1       5.923  -5.715  -3.604  0.00  0.00    +0.100 C 
ATOM     19  C   UNL     1       6.144  -4.203  -3.375  0.00  0.00    +0.100 C 
BRANCH  14  20
ATOM     20  C   UNL     1       5.462  -4.019  -1.017  0.00  0.00    +0.086 C 
BRANCH  20  21
ATOM     21  C   UNL     1       6.824  -3.547  -0.489  0.00  0.00    +0.030 C 
BRANCH  21  22
ATOM     22  C   UNL     1       7.034  -3.987   0.958  0.00  0.00    +0.079 C 
BRANCH  22  23
ATOM     23  N   UNL     1       8.360  -3.586   1.412  0.00  0.00    -0.330 NA
ATOM     24  H   UNL     1       8.451  -2.572   1.354  0.00  0.00    +0.118 HD
ATOM     25  H   UNL     1       8.475  -3.830   2.394  0.00  0.00    +0.118 HD
ENDBRANCH  22  23
ENDBRANCH  21  22
ENDBRANCH  20  21
ENDBRANCH  14  20
ENDBRANCH  13  17
ENDBRANCH  12  13
ENDBRANCH  11  12
ENDBRANCH   7  11
ENDBRANCH   1   9
BRANCH   3  26
ATOM     26  N   UNL     1      -1.398  -8.495  -7.715  0.00  0.00    +0.080 N 
ATOM     27  O   UNL     1      -1.217  -7.413  -7.137  0.00  0.00    +0.041 OA
ATOM     28  O   UNL     1      -2.507  -8.950  -8.025  0.00  0.00    -0.576 OA
ENDBRANCH   3  26
BRANCH   5  29
ATOM     29  O   UNL     1       0.521 -12.491  -9.604  0.00  0.00    -0.461 OA
BRANCH  29  30
ATOM     30  C   UNL     1       1.489 -13.530  -9.381  0.00  0.00    +0.339 C 
ATOM     31  C   UNL     1       0.719 -14.867  -9.334  0.00  0.00    +0.214 C 
ATOM     32  C   UNL     1       1.716 -16.031  -9.247  0.00  0.00    +0.180 C 
ATOM     33  C   UNL     1       2.771 -15.939 -10.353  0.00  0.00    +0.177 C 
ATOM     34  C   UNL     1       3.443 -14.563 -10.302  0.00  0.00    +0.179 C 
ATOM     35  O   UNL     1       2.463 -13.521 -10.431  0.00  0.00    -0.331 OA
BRANCH  33  36
ATOM     36  O   UNL     1       3.698 -17.018 -10.190  0.00  0.00    -0.386 OA
ATOM     37  H   UNL     1       4.324 -16.803  -9.475  0.00  0.00    +0.210 HD
ENDBRANCH  33  36
BRANCH  32  38
ATOM     38  O   UNL     1       1.027 -17.284  -9.328  0.00  0.00    -0.386 OA
ATOM     39  H   UNL     1       1.693 -17.950  -9.597  0.00  0.00    +0.210 HD
ENDBRANCH  32  38
BRANCH  31  40
ATOM     40  O   UNL     1      -0.175 -14.861  -8.206  0.00  0.00    -0.383 OA
ATOM     41  H   UNL     1       0.120 -15.535  -7.570  0.00  0.00    +0.210 HD
ENDBRANCH  31  40
BRANCH  34  42
ATOM     42  C   UNL     1       4.457 -14.399 -11.439  0.00  0.00    +0.190 C 
BRANCH  42  43
ATOM     43  O   UNL     1       5.131 -13.150 -11.303  0.00  0.00    -0.392 OA
ATOM     44  H   UNL     1       4.441 -12.459 -11.333  0.00  0.00    +0.210 HD
ENDBRANCH  42  43
ENDBRANCH  34  42
ENDBRANCH  29  30
ENDBRANCH   5  29
TORSDOF 17
