REMARK  Name = 
REMARK  6 active torsions:
REMARK  status: ('A' for Active; 'I' for Inactive)
REMARK    1  A    between atoms: C_1  and  N_2
REMARK    2  A    between atoms: C_5  and  C_6
REMARK    3  A    between atoms: C_6  and  CA_7
REMARK    4  A    between atoms: CA_7  and  N_9
REMARK    5  A    between atoms: CA_7  and  C_10
REMARK    6  A    between atoms: C_10  and  O_11
REMARK                            x       y       z     vdW  Elec       q    Type
REMARK                         _______ _______ _______ _____ _____    ______ ____
ROOT
ATOM      1  CA  UNL     1       5.283  -3.063  -0.094  0.00  0.00    +0.166 C 
ENDROOT
BRANCH   1   2
ATOM      2  N   UNL     1       4.468  -2.538  -1.244  0.00  0.00    -0.318 NA
ATOM      3  H1  UNL     1       4.062  -1.649  -0.931  0.00  0.00    +0.119 HD
ATOM      4  H2  UNL     1       5.130  -2.253  -1.976  0.00  0.00    +0.119 HD
ENDBRANCH   1   2
BRANCH   1   5
ATOM      5  C   UNL     1       5.837  -4.431  -0.512  0.00  0.00    +0.322 C 
ATOM      6  OXT UNL     1       6.808  -4.983  -0.022  0.00  0.00    -0.249 OA
BRANCH   5   7
ATOM      7  O   UNL     1       5.071  -4.988  -1.488  0.00  0.00    -0.480 OA
ATOM      8  H   UNL     1       4.379  -4.315  -1.709  0.00  0.00    +0.295 HD
ENDBRANCH   5   7
ENDBRANCH   1   5
BRANCH   1   9
ATOM      9  C   UNL     1       4.457  -3.278   1.181  0.00  0.00    +0.086 C 
BRANCH   9  13
ATOM     10  C   UNL     1       1.469   0.552   2.387  0.00  0.00    +0.150 C 
ATOM     11  N   UNL     1       2.585  -0.353   2.275  0.00  0.00    -0.340 N 
ATOM     12  C   UNL     1       2.625  -1.479   1.505  0.00  0.00    +0.110 A 
ATOM     13  C   UNL     1       3.871  -2.026   1.730  0.00  0.00    +0.061 A 
ATOM     14  N   UNL     1       4.584  -1.237   2.601  0.00  0.00    -0.241 NA
ATOM     15  C   UNL     1       3.778  -0.252   2.927  0.00  0.00    +0.199 A 
ENDBRANCH   9  13
ENDBRANCH   1   9
TORSDOF 5
