REMARK  Name = 
REMARK  10 active torsions:
REMARK  status: ('A' for Active; 'I' for Inactive)
REMARK    1  A    between atoms: C_1  and  C_2
REMARK    2  A    between atoms: C_2  and  C_3
REMARK    3  A    between atoms: C_2  and  C_4
REMARK    4  A    between atoms: C_2  and  O_5
REMARK    5  A    between atoms: O_5  and  C_6
REMARK    6  A    between atoms: C_6  and  C_8
REMARK    7  A    between atoms: C_8  and  N_10
REMARK    8  A    between atoms: C_8  and  C_11
REMARK    9  A    between atoms: C_11  and  C_12
REMARK   10  A    between atoms: C_12  and  C_13
REMARK                            x       y       z     vdW  Elec       q    Type
REMARK                         _______ _______ _______ _____ _____    ______ ____
ROOT
ATOM      1  C   UNL     1       4.738   2.130   2.109  0.00  0.00    +0.161 C 
ENDROOT
BRANCH   1   2
ATOM      2  N   UNL     1       4.226   3.453   1.698  0.00  0.00    -0.318 NA
ATOM      3  H   UNL     1       4.521   4.153   2.377  0.00  0.00    +0.119 HD
ATOM      4  H   UNL     1       4.653   3.716   0.810  0.00  0.00    +0.119 HD
ENDBRANCH   1   2
BRANCH   1   5
ATOM      5  C   UNL     1       4.435   1.080   1.034  0.00  0.00    +0.325 C 
ATOM      6  O   UNL     1       5.325   0.502   0.420  0.00  0.00    -0.249 OA
BRANCH   5   7
ATOM      7  O   UNL     1       3.097   0.876   0.879  0.00  0.00    -0.458 OA
BRANCH   7   9
ATOM      8  C   UNL     1       3.085  -1.526   0.370  0.00  0.00    +0.055 C 
ATOM      9  C   UNL     1       2.617  -0.128  -0.053  0.00  0.00    +0.105 C 
ATOM     10  C   UNL     1       1.082  -0.092   0.042  0.00  0.00    +0.055 C 
ATOM     11  C   UNL     1       3.016   0.214  -1.493  0.00  0.00    +0.055 C 
ENDBRANCH   7   9
ENDBRANCH   5   7
ENDBRANCH   1   5
BRANCH   1  12
ATOM     12  C   UNL     1       4.169   1.728   3.472  0.00  0.00    +0.039 C 
BRANCH  12  13
ATOM     13  C   UNL     1       4.729   0.393   3.974  0.00  0.00    +0.097 C 
BRANCH  13  14
ATOM     14  C   UNL     1       4.159   0.025   5.327  0.00  0.00    +0.211 C 
ATOM     15  O   UNL     1       3.389   0.721   5.975  0.00  0.00    -0.276 OA
ATOM     16  N   UNL     1       4.579  -1.181   5.805  0.00  0.00    -0.329 N 
ATOM     17  H   UNL     1       4.201  -1.485   6.693  0.00  0.00    +0.145 HD
ATOM     18  H   UNL     1       5.158  -1.819   5.278  0.00  0.00    +0.145 HD
ENDBRANCH  13  14
ENDBRANCH  12  13
ENDBRANCH   1  12
TORSDOF 7
