REMARK  Name = 
REMARK  11 active torsions:
REMARK  status: ('A' for Active; 'I' for Inactive)
REMARK    1  A    between atoms: C_1  and  C_2
REMARK    2  A    between atoms: C_7  and  C_8
REMARK    3  A    between atoms: C_13  and  C_33
REMARK    4  A    between atoms: C_19  and  O_21
REMARK    5  A    between atoms: C_22  and  C_23
REMARK    6  A    between atoms: C_22  and  C_24
REMARK    7  A    between atoms: C_27  and  C_29
REMARK    8  A    between atoms: C_30  and  O_32
REMARK    9  A    between atoms: C_33  and  C_34
REMARK   10  A    between atoms: C_35  and  C_36
REMARK   11  A    between atoms: C_39  and  C_40
REMARK                            x       y       z     vdW  Elec       q    Type
REMARK                         _______ _______ _______ _____ _____    ______ ____
ROOT
ATOM      1  C   UNL     1       1.057   0.168  -0.031  0.00  0.00    +0.010 C 
ATOM      2  C   UNL     1       2.583   0.073   0.133  0.00  0.00    +0.015 C 
ATOM      3  C   UNL     1       3.007  -1.279   0.797  0.00  0.00    +0.127 C 
ATOM      4  C   UNL     1       2.753  -2.464  -0.179  0.00  0.00    +0.081 C 
ATOM      5  C   UNL     1       1.498  -3.287   0.106  0.00  0.00    +0.018 C 
ATOM      6  C   UNL     1       3.901  -3.463  -0.317  0.00  0.00    +0.147 C 
ATOM      7  O   UNL     1       4.306  -4.097   0.665  0.00  0.00    -0.296 OA
ATOM      8  C   UNL     1       4.555  -3.693  -1.703  0.00  0.00    +0.050 C 
ATOM      9  C   UNL     1       3.784  -3.021  -2.860  0.00  0.00    +0.021 C 
ATOM     10  C   UNL     1       4.528  -5.210  -1.964  0.00  0.00    +0.021 C 
ATOM     11  C   UNL     1       6.018  -3.163  -1.608  0.00  0.00    +0.136 C 
ATOM     12  C   UNL     1       6.722  -3.100  -2.976  0.00  0.00    +0.128 C 
ATOM     13  C   UNL     1       8.002  -2.296  -3.027  0.00  0.00    +0.216 C 
ATOM     14  O   UNL     1       9.004  -2.722  -3.590  0.00  0.00    -0.276 OA
ATOM     15  N   UNL     1       7.843  -1.019  -2.533  0.00  0.00    -0.309 N 
ATOM     16  H   UNL     1       7.014  -0.863  -1.966  0.00  0.00    +0.149 HD
ATOM     17  C   UNL     1       8.797   0.053  -2.669  0.00  0.00    +0.102 C 
ATOM     18  C   UNL     1       8.228   1.433  -2.206  0.00  0.00    +0.061 C 
ATOM     19  C   UNL     1       6.852   1.907  -2.657  0.00  0.00    +0.153 C 
ATOM     20  C   UNL     1       5.560   2.614  -1.960  0.00  0.00    +0.093 C 
ATOM     21  C   UNL     1       4.560   3.385  -2.801  0.00  0.00    +0.044 C 
ATOM     22  C   UNL     1       5.160   2.345  -0.507  0.00  0.00    +0.037 C 
ATOM     23  C   UNL     1       3.624   2.374  -0.235  0.00  0.00    +0.003 C 
ATOM     24  O   UNL     1       6.805   3.251  -2.124  0.00  0.00    -0.365 OA
ATOM     25  C   UNL     1       3.120   1.360   0.820  0.00  0.00    +0.006 C 
ENDROOT
BRANCH  17  26
ATOM     26  C   UNL     1      10.064  -0.323  -1.875  0.00  0.00    -0.050 C 
ATOM     27  C   UNL     1      10.081  -0.222  -0.528  0.00  0.00    +0.029 C 
ATOM     28  C   UNL     1      11.245  -0.803  -2.689  0.00  0.00    +0.041 C 
BRANCH  27  29
ATOM     29  C   UNL     1      11.143  -0.359   0.418  0.00  0.00    +0.071 A 
ATOM     30  N   UNL     1      12.461  -0.371   0.028  0.00  0.00    -0.245 NA
ATOM     31  C   UNL     1      13.238  -0.364   1.090  0.00  0.00    +0.076 A 
ATOM     32  C   UNL     1      14.729  -0.309   1.048  0.00  0.00    +0.073 C 
ATOM     33  S   UNL     1      12.425  -0.323   2.609  0.00  0.00    -0.080 S 
ATOM     34  C   UNL     1      10.929  -0.334   1.781  0.00  0.00    +0.074 A 
ENDBRANCH  27  29
ENDBRANCH  17  26
BRANCH   3  35
ATOM     35  O   UNL     1       4.395  -1.196   1.135  0.00  0.00    -0.391 OA
ATOM     36  H   UNL     1       4.811  -0.542   0.547  0.00  0.00    +0.210 HD
ENDBRANCH   3  35
BRANCH  11  37
ATOM     37  O   UNL     1       5.966  -1.849  -1.013  0.00  0.00    -0.390 OA
ATOM     38  H   UNL     1       5.994  -2.021  -0.043  0.00  0.00    +0.210 HD
ENDBRANCH  11  37
TORSDOF 4
