REMARK  Name = 
REMARK  10 active torsions:
REMARK  status: ('A' for Active; 'I' for Inactive)
REMARK    1  A    between atoms: C_1  and  C_2
REMARK    2  A    between atoms: C_2  and  C_3
REMARK    3  A    between atoms: C_8  and  N_10
REMARK    4  A    between atoms: C_11  and  C_13
REMARK    5  A    between atoms: C_14  and  O_15
REMARK    6  A    between atoms: C_20  and  C_22
REMARK    7  A    between atoms: C_26  and  C_62
REMARK    8  A    between atoms: C_41  and  C_43
REMARK    9  A    between atoms: C_43  and  C_44
REMARK   10  A    between atoms: N_50  and  C_51
REMARK                            x       y       z     vdW  Elec       q    Type
REMARK                         _______ _______ _______ _____ _____    ______ ____
ROOT
ATOM      1  C   UNL     1      -0.000  -0.000  -0.000  0.00  0.00    +0.159 C 
ATOM      2  C   UNL     1      -0.000  -0.000   0.000  0.00  0.00    +0.237 C 
ATOM      3  O   UNL     1      -0.000  -0.000   0.000  0.00  0.00    -0.274 OA
ATOM      4  N   UNL     1      -0.000  -0.000   0.000  0.00  0.00    -0.288 N 
ATOM      5  C   UNL     1      -0.000  -0.000  -0.000  0.00  0.00    +0.162 C 
ATOM      6  C   UNL     1      -0.000  -0.000  -0.000  0.00  0.00    +0.033 C 
ATOM      7  C   UNL     1      -0.000  -0.000   0.000  0.00  0.00    +0.021 C 
ATOM      8  C   UNL     1      -0.000  -0.000  -0.000  0.00  0.00    +0.236 C 
ATOM      9  O   UNL     1      -0.000  -0.000   0.000  0.00  0.00    -0.274 OA
ATOM     10  N   UNL     1      -0.000  -0.000   0.000  0.00  0.00    -0.291 N 
ATOM     11  C   UNL     1      -0.000  -0.000   0.000  0.00  0.00    +0.133 C 
ATOM     12  C   UNL     1      -0.000  -0.000  -0.000  0.00  0.00    +0.166 C 
ATOM     13  C   UNL     1      -0.000  -0.000   0.000  0.00  0.00    +0.237 C 
ATOM     14  O   UNL     1      -0.000  -0.000   0.000  0.00  0.00    -0.274 OA
ATOM     15  N   UNL     1      -0.000  -0.000   0.000  0.00  0.00    -0.288 N 
ATOM     16  C   UNL     1      -0.000  -0.000  -0.000  0.00  0.00    +0.169 C 
ATOM     17  C   UNL     1      -0.000  -0.000  -0.000  0.00  0.00    +0.106 C 
ATOM     18  C   UNL     1      -0.000  -0.000   0.000  0.00  0.00    +0.137 C 
ATOM     19  C   UNL     1      -0.000  -0.000  -0.000  0.00  0.00    +0.093 C 
ATOM     20  O   UNL     1      -0.000  -0.000   0.000  0.00  0.00    -0.297 OA
ATOM     21  C   UNL     1      -0.000  -0.000   0.000  0.00  0.00    +0.235 C 
ATOM     22  O   UNL     1      -0.000  -0.000   0.000  0.00  0.00    -0.274 OA
ATOM     23  N   UNL     1      -0.000  -0.000  -0.000  0.00  0.00    -0.297 N 
ATOM     24  H   UNL     1       0.000   0.000   0.000  0.00  0.00    +0.150 HD
ATOM     25  C   UNL     1      -0.000  -0.000  -0.000  0.00  0.00    +0.213 C 
ATOM     26  C   UNL     1      -0.000  -0.000   0.000  0.00  0.00    +0.333 C 
ATOM     27  O   UNL     1      -0.000  -0.000   0.000  0.00  0.00    -0.248 OA
ATOM     28  O   UNL     1      -0.000  -0.000  -0.000  0.00  0.00    -0.458 OA
ATOM     29  C   UNL     1      -0.000  -0.000   0.000  0.00  0.00    +0.203 C 
ATOM     30  C   UNL     1      -0.000  -0.000  -0.000  0.00  0.00    +0.054 C 
ATOM     31  C   UNL     1      -0.000  -0.000  -0.000  0.00  0.00    +0.200 C 
ATOM     32  C   UNL     1      -0.000  -0.000   0.000  0.00  0.00    +0.238 C 
ATOM     33  O   UNL     1      -0.000  -0.000   0.000  0.00  0.00    -0.274 OA
ATOM     34  C   UNL     1      -0.000  -0.000   0.000  0.00  0.00    +0.116 C 
ATOM     35  C   UNL     1      -0.000  -0.000   0.000  0.00  0.00    +0.109 C 
ATOM     36  N   UNL     1      -0.000  -0.000  -0.000  0.00  0.00    -0.302 N 
ATOM     37  H   UNL     1       0.000   0.000   0.000  0.00  0.00    +0.150 HD
ENDROOT
BRANCH  25  38
ATOM     38  C   UNL     1      -0.000  -0.000  -0.000  0.00  0.00    -0.017 A 
ATOM     39  C   UNL     1      -0.000  -0.000   0.000  0.00  0.00    +0.006 A 
ATOM     40  C   UNL     1      -0.000  -0.000   0.000  0.00  0.00    +0.000 A 
ATOM     41  C   UNL     1      -0.000  -0.000   0.000  0.00  0.00    +0.000 A 
ATOM     42  C   UNL     1      -0.000  -0.000   0.000  0.00  0.00    +0.000 A 
ATOM     43  C   UNL     1      -0.000  -0.000   0.000  0.00  0.00    +0.006 A 
ENDBRANCH  25  38
BRANCH  31  44
ATOM     44  N   UNL     1      -0.000  -0.000  -0.000  0.00  0.00    -0.296 N 
ATOM     45  H   UNL     1      -0.000  -0.000  -0.000  0.00  0.00    +0.150 HD
ATOM     46  C   UNL     1      -0.000  -0.000  -0.000  0.00  0.00    +0.267 C 
ATOM     47  O   UNL     1      -0.000  -0.000  -0.000  0.00  0.00    -0.268 OA
BRANCH  46  48
ATOM     48  C   UNL     1      -0.000  -0.000  -0.000  0.00  0.00    +0.167 A 
ATOM     49  N   UNL     1      -0.000  -0.000   0.000  0.00  0.00    -0.247 NA
ATOM     50  C   UNL     1      -0.000  -0.000   0.000  0.00  0.00    +0.112 A 
ATOM     51  C   UNL     1      -0.000  -0.000   0.000  0.00  0.00    +0.023 A 
ATOM     52  C   UNL     1      -0.000  -0.000  -0.000  0.00  0.00    +0.049 A 
ATOM     53  C   UNL     1      -0.000  -0.000   0.000  0.00  0.00    +0.147 A 
BRANCH  53  54
ATOM     54  O   UNL     1      -0.000  -0.000   0.000  0.00  0.00    -0.504 OA
ATOM     55  H   UNL     1      -0.000  -0.000  -0.000  0.00  0.00    +0.292 HD
ENDBRANCH  53  54
ENDBRANCH  46  48
ENDBRANCH  31  44
BRANCH   1  57
ATOM     56  C   UNL     1      -0.000  -0.000  -0.000  0.00  0.00    +0.006 C 
ATOM     57  C   UNL     1      -0.000  -0.000  -0.000  0.00  0.00    +0.028 C 
ENDBRANCH   1  57
BRANCH  12  58
ATOM     58  C   UNL     1      -0.000  -0.000  -0.000  0.00  0.00    +0.067 C 
BRANCH  58  59
ATOM     59  C   UNL     1      -0.000  -0.000  -0.000  0.00  0.00    -0.045 A 
ATOM     60  C   UNL     1      -0.000  -0.000  -0.000  0.00  0.00    +0.004 A 
ATOM     61  C   UNL     1      -0.000  -0.000  -0.000  0.00  0.00    +0.000 A 
ATOM     62  C   UNL     1      -0.000  -0.000  -0.000  0.00  0.00    +0.000 A 
ATOM     63  C   UNL     1      -0.000  -0.000  -0.000  0.00  0.00    +0.000 A 
ATOM     64  C   UNL     1      -0.000  -0.000  -0.000  0.00  0.00    +0.004 A 
ENDBRANCH  58  59
ENDBRANCH  12  58
TORSDOF 7
