REMARK  Name = 
REMARK  12 active torsions:
REMARK  status: ('A' for Active; 'I' for Inactive)
REMARK    1  A    between atoms: O_1  and  C_2
REMARK    2  A    between atoms: C_2  and  CA_3
REMARK    3  A    between atoms: C_6  and  O_8
REMARK    4  A    between atoms: C_9  and  O_11
REMARK    5  A    between atoms: C_12  and  O_14
REMARK    6  A    between atoms: C_15  and  O_17
REMARK    7  A    between atoms: O_17  and  C_18
REMARK    8  A    between atoms: C_21  and  C_23
REMARK    9  A    between atoms: C_23  and  O_24
REMARK   10  A    between atoms: C_25  and  O_27
REMARK   11  A    between atoms: C_28  and  O_30
REMARK   12  A    between atoms: C_31  and  O_33
REMARK                            x       y       z     vdW  Elec       q    Type
REMARK                         _______ _______ _______ _____ _____    ______ ____
ROOT
ATOM      1  CA  UNL     1       2.681   0.336  -0.895  0.00  0.00    +0.113 C 
ATOM      2  C   UNL     1       2.158   1.302  -2.032  0.00  0.00    +0.172 C 
ATOM      3  C   UNL     1       0.620   1.106  -2.015  0.00  0.00    +0.177 C 
ATOM      4  C   UNL     1       0.274  -0.338  -2.375  0.00  0.00    +0.189 C 
ATOM      5  C   UNL     1       0.936  -1.298  -1.370  0.00  0.00    +0.214 C 
ATOM      6  N   UNL     1       2.340  -1.085  -1.100  0.00  0.00    -0.282 NA
ATOM      7  H   UNL     1       2.897  -1.405  -1.891  0.00  0.00    +0.125 HD
ENDROOT
BRANCH   3   8
ATOM      8  O   UNL     1      -0.095   2.013  -2.851  0.00  0.00    -0.386 OA
ATOM      9  H   UNL     1      -0.969   1.597  -2.997  0.00  0.00    +0.210 HD
ENDBRANCH   3   8
BRANCH   4  10
ATOM     10  O   UNL     1      -1.161  -0.472  -2.310  0.00  0.00    -0.385 OA
ATOM     11  H   UNL     1      -1.332  -1.433  -2.353  0.00  0.00    +0.210 HD
ENDBRANCH   4  10
BRANCH   5  12
ATOM     12  O   UNL     1       0.811  -2.622  -1.854  0.00  0.00    -0.375 OA
ATOM     13  H   UNL     1       1.447  -3.128  -1.320  0.00  0.00    +0.212 HD
ENDBRANCH   5  12
BRANCH   1  14
ATOM     14  C   UNL     1       4.194   0.408  -0.603  0.00  0.00    +0.177 C 
BRANCH  14  15
ATOM     15  O   UNL     1       4.935  -0.392  -1.521  0.00  0.00    -0.393 OA
ATOM     16  H   UNL     1       5.532  -0.949  -0.986  0.00  0.00    +0.209 HD
ENDBRANCH  14  15
ENDBRANCH   1  14
BRANCH   2  17
ATOM     17  O   UNL     1       2.784   1.066  -3.333  0.00  0.00    -0.341 OA
BRANCH  17  18
ATOM     18  C   UNL     1       2.475   2.105  -4.310  0.00  0.00    +0.282 C 
ATOM     19  C   UNL     1       2.943   1.842  -5.787  0.00  0.00    +0.201 C 
ATOM     20  C   UNL     1       4.300   2.455  -6.199  0.00  0.00    +0.179 C 
ATOM     21  C   UNL     1       4.578   3.790  -5.493  0.00  0.00    +0.177 C 
ATOM     22  C   UNL     1       4.232   3.743  -4.002  0.00  0.00    +0.178 C 
ATOM     23  O   UNL     1       2.862   3.389  -3.819  0.00  0.00    -0.341 OA
BRANCH  19  24
ATOM     24  O   UNL     1       1.954   2.433  -6.680  0.00  0.00    -0.384 OA
ATOM     25  H   UNL     1       2.155   3.391  -6.732  0.00  0.00    +0.210 HD
ENDBRANCH  19  24
BRANCH  20  26
ATOM     26  O   UNL     1       5.383   1.530  -6.081  0.00  0.00    -0.386 OA
ATOM     27  H   UNL     1       5.510   1.325  -5.131  0.00  0.00    +0.210 HD
ENDBRANCH  20  26
BRANCH  21  28
ATOM     28  O   UNL     1       3.752   4.799  -6.122  0.00  0.00    -0.386 OA
ATOM     29  H   UNL     1       3.838   5.622  -5.602  0.00  0.00    +0.210 HD
ENDBRANCH  21  28
BRANCH  22  30
ATOM     30  C   UNL     1       5.196   2.924  -3.135  0.00  0.00    +0.190 C 
BRANCH  30  31
ATOM     31  O   UNL     1       5.355   1.580  -3.563  0.00  0.00    -0.392 OA
ATOM     32  H   UNL     1       4.637   1.039  -3.155  0.00  0.00    +0.210 HD
ENDBRANCH  30  31
ENDBRANCH  22  30
ENDBRANCH  17  18
ENDBRANCH   2  17
TORSDOF 12
