REMARK  Name = 
REMARK  6 active torsions:
REMARK  status: ('A' for Active; 'I' for Inactive)
REMARK    1  A    between atoms: N_9  and  C_12
REMARK    2  A    between atoms: C_15  and  C_17
REMARK    3  A    between atoms: C_17  and  O_18
REMARK    4  A    between atoms: C_22  and  P_27
REMARK    5  A    between atoms: P_27  and  O_28
REMARK    6  A    between atoms: P_27  and  O_29
REMARK                            x       y       z     vdW  Elec       q    Type
REMARK                         _______ _______ _______ _____ _____    ______ ____
ROOT
ATOM      1  C   UNL     1       4.468   3.557  -0.122  0.00  0.00    +0.254 C 
ATOM      2  C   UNL     1       5.084   4.748  -0.819  0.00  0.00    +0.203 C 
ATOM      3  C   UNL     1       4.743   4.579  -2.274  0.00  0.00    +0.186 C 
ATOM      4  O   UNL     1       4.338   5.867  -2.736  0.00  0.00    -0.333 OA
ATOM      5  C   UNL     1       3.894   6.596  -1.582  0.00  0.00    +0.368 C 
ATOM      6  C   UNL     1       3.575   3.592  -2.288  0.00  0.00    +0.178 C 
ATOM      7  O   UNL     1       4.310   5.896  -0.394  0.00  0.00    -0.331 OA
ATOM      8  O   UNL     1       3.269   3.302  -0.904  0.00  0.00    -0.346 OA
ENDROOT
BRANCH   1  16
ATOM      9  N   UNL     1       1.392   0.038   1.681  0.00  0.00    -0.329 N 
ATOM     10  H   UNL     1       1.132   0.827   2.260  0.00  0.00    +0.145 HD
ATOM     11  H   UNL     1       1.045  -0.838   2.061  0.00  0.00    +0.145 HD
ATOM     12  C   UNL     1       2.710  -0.028   1.354  0.00  0.00    +0.195 A 
ATOM     13  N   UNL     1       3.212   1.207   1.065  0.00  0.00    -0.312 N 
ATOM     14  H   UNL     1       2.539   1.886   0.729  0.00  0.00    +0.170 HD
ATOM     15  C   UNL     1       4.470   1.237   0.628  0.00  0.00    +0.148 A 
ATOM     16  N   UNL     1       5.128   2.293   0.057  0.00  0.00    -0.287 N 
ATOM     17  C   UNL     1       6.362   1.820  -0.285  0.00  0.00    +0.203 A 
ATOM     18  N   UNL     1       6.480   0.528  -0.018  0.00  0.00    -0.229 NA
ATOM     19  C   UNL     1       5.273   0.148   0.534  0.00  0.00    +0.172 A 
ATOM     20  C   UNL     1       4.724  -1.159   0.947  0.00  0.00    +0.302 A 
ATOM     21  O   UNL     1       5.400  -2.179   0.935  0.00  0.00    -0.263 OA
ATOM     22  N   UNL     1       3.371  -1.149   1.343  0.00  0.00    -0.176 NA
ENDBRANCH   1  16
BRANCH   5  23
ATOM     23  P   UNL     1       4.855   8.152  -1.526  0.00  0.00    +0.383 P 
ATOM     24  O   UNL     1       5.669   9.469  -1.479  0.00  0.00    -0.254 OA
BRANCH  23  25
ATOM     25  O   UNL     1       4.110   8.488  -0.079  0.00  0.00    -0.321 OA
ATOM     26  H   UNL     1       3.694   7.729   0.374  0.00  0.00    +0.220 HD
ENDBRANCH  23  25
BRANCH  23  27
ATOM     27  O   UNL     1       3.652   8.734  -2.503  0.00  0.00    -0.321 OA
ATOM     28  H   UNL     1       3.980   8.986  -3.385  0.00  0.00    +0.220 HD
ENDBRANCH  23  27
ENDBRANCH   5  23
BRANCH   6  29
ATOM     29  C   UNL     1       3.945   2.311  -3.055  0.00  0.00    +0.190 C 
BRANCH  29  30
ATOM     30  O   UNL     1       2.887   1.365  -3.014  0.00  0.00    -0.392 OA
ATOM     31  H   UNL     1       2.194   1.650  -3.633  0.00  0.00    +0.210 HD
ENDBRANCH  29  30
ENDBRANCH   6  29
TORSDOF 6
