REMARK  Name = 
REMARK  6 active torsions:
REMARK  status: ('A' for Active; 'I' for Inactive)
REMARK    1  A    between atoms: N_1  and  CA_2
REMARK    2  A    between atoms: CA_2  and  C_4
REMARK    3  A    between atoms: CA_2  and  C_7
REMARK    4  A    between atoms: C_4  and  C_5
REMARK    5  A    between atoms: C_5  and  O_6
REMARK    6  A    between atoms: C_7  and  O_8
REMARK                            x       y       z     vdW  Elec       q    Type
REMARK                         _______ _______ _______ _____ _____    ______ ____
ROOT
ATOM      1  CA  UNL     1       2.486   0.149   0.132  0.00  0.00    +0.163 C 
ENDROOT
BRANCH   1   2
ATOM      2  N   UNL     1       0.986   0.236   0.148  0.00  0.00    -0.318 NA
ATOM      3  H1  UNL     1       0.695   0.951  -0.529  0.00  0.00    +0.119 HD
ATOM      4  H2  UNL     1       0.621  -0.636  -0.246  0.00  0.00    +0.119 HD
ENDBRANCH   1   2
BRANCH   1   5
ATOM      5  C   UNL     1       3.030   1.121   1.202  0.00  0.00    +0.322 C 
ATOM      6  OXT UNL     1       4.208   1.325   1.439  0.00  0.00    -0.249 OA
BRANCH   5   7
ATOM      7  O   UNL     1       2.020   1.714   1.889  0.00  0.00    -0.480 OA
ATOM      8  H   UNL     1       1.187   1.314   1.532  0.00  0.00    +0.295 HD
ENDBRANCH   5   7
ENDBRANCH   1   5
BRANCH   1   9
ATOM      9  C   UNL     1       2.997   0.463  -1.273  0.00  0.00    +0.057 C 
BRANCH   9  10
ATOM     10  C   UNL     1       4.507   0.319  -1.436  0.00  0.00    +0.158 C 
BRANCH  10  11
ATOM     11  O   UNL     1       4.855   0.580  -2.792  0.00  0.00    -0.395 OA
ATOM     12  H   UNL     1       4.510  -0.147  -3.337  0.00  0.00    +0.209 HD
ENDBRANCH  10  11
ENDBRANCH   9  10
ENDBRANCH   1   9
TORSDOF 6
