REMARK  Name = 
REMARK  36 active torsions:
REMARK  status: ('A' for Active; 'I' for Inactive)
REMARK    1  A    between atoms: CB_1  and  CA_2
REMARK    2  A    between atoms: CA_2  and  N_4
REMARK    3  A    between atoms: CA_2  and  C_78
REMARK    4  A    between atoms: C_5  and  CA_7
REMARK    5  A    between atoms: CA_7  and  C_9
REMARK    6  A    between atoms: CA_7  and  N_18
REMARK    7  A    between atoms: C_9  and  C_10
REMARK    8  A    between atoms: C_10  and  C_11
REMARK    9  A    between atoms: C_11  and  CA_12
REMARK   10  A    between atoms: CA_12  and  N_14
REMARK   11  A    between atoms: CA_12  and  C_15
REMARK   12  A    between atoms: C_15  and  O_16
REMARK   13  A    between atoms: CD_19  and  CG_21
REMARK   14  A    between atoms: CG_21  and  CB_22
REMARK   15  A    between atoms: CB_22  and  CA_23
REMARK   16  A    between atoms: CA_23  and  N_25
REMARK   17  A    between atoms: CA_23  and  C_75
REMARK   18  A    between atoms: C_26  and  CA_28
REMARK   19  A    between atoms: CA_28  and  CB_30
REMARK   20  A    between atoms: CA_28  and  N_31
REMARK   21  A    between atoms: C_32  and  C_34
REMARK   22  A    between atoms: C_34  and  C_36
REMARK   23  A    between atoms: C_34  and  O_37
REMARK   24  A    between atoms: O_37  and  C_38
REMARK   25  A    between atoms: C_40  and  N_42
REMARK   26  A    between atoms: C_43  and  C_44
REMARK   27  A    between atoms: C_53  and  O_55
REMARK   28  A    between atoms: O_55  and  C_56
REMARK   29  A    between atoms: C_59  and  C_61
REMARK   30  A    between atoms: C_61  and  O_62
REMARK   31  A    between atoms: C_63  and  O_65
REMARK   32  A    between atoms: C_66  and  O_68
REMARK   33  A    between atoms: C_69  and  N_71
REMARK   34  A    between atoms: C_72  and  C_73
REMARK   35  A    between atoms: C_75  and  O_76
REMARK   36  A    between atoms: C_78  and  O_79
REMARK                            x       y       z     vdW  Elec       q    Type
REMARK                         _______ _______ _______ _____ _____    ______ ____
ROOT
ATOM      1  C   UNK A   1       2.077   6.185  -1.066  0.00  0.00    +0.156 C 
ATOM      2  C   UNK A   1       3.199   5.440  -0.352  0.00  0.00    +0.038 C 
ENDROOT
BRANCH   1   3
ATOM      3  N   UNK A   1       1.268   5.226  -1.805  0.00  0.00    -0.302 N 
ATOM      4  H   UNK A   1       1.718   4.352  -2.056  0.00  0.00    +0.150 HD
ATOM      5  C   UNK A   0      -0.027   5.492  -2.187  0.00  0.00    +0.242 C 
ATOM      6  O   UNK A   0      -0.495   6.620  -2.044  0.00  0.00    -0.273 OA
BRANCH   5   7
ATOM      7  C   UNK A   0      -0.808   4.338  -2.855  0.00  0.00    +0.201 C 
ATOM      8  C   UNK A   0       0.096   3.162  -3.232  0.00  0.00    +0.048 C 
BRANCH   7   9
ATOM      9  O   UNK A   0      -1.876   3.963  -1.977  0.00  0.00    -0.360 OA
BRANCH   9  10
ATOM     10  C   UNK A   0      -2.799   2.968  -2.481  0.00  0.00    +0.176 C 
ATOM     11  C   UNK A   0      -3.731   2.477  -1.323  0.00  0.00    +0.183 C 
ATOM     12  C   UNK A   0      -5.241   2.583  -1.628  0.00  0.00    +0.178 C 
ATOM     13  O   UNK A   0      -5.444   2.234  -2.997  0.00  0.00    -0.341 OA
ATOM     14  C   UNK A   0      -5.026   3.439  -3.653  0.00  0.00    +0.273 C 
ATOM     15  O   UNK A   0      -5.342   4.564  -2.808  0.00  0.00    -0.347 OA
ATOM     16  C   UNK A   0      -5.792   3.988  -1.588  0.00  0.00    +0.197 C 
ATOM     17  C   UNK A   0      -3.495   3.401  -3.810  0.00  0.00    +0.160 C 
BRANCH  17  18
ATOM     18  N   UNK A   0      -3.026   2.519  -4.898  0.00  0.00    -0.305 N 
ATOM     19  H   UNK A   0      -2.513   1.682  -4.655  0.00  0.00    +0.149 HD
ATOM     20  C   UNK A   0      -3.374   2.698  -6.212  0.00  0.00    +0.210 C 
ATOM     21  O   UNK A   0      -4.083   3.614  -6.608  0.00  0.00    -0.276 OA
ATOM     22  C   UNK A   0      -2.816   1.642  -7.129  0.00  0.00    +0.109 C 
ENDBRANCH  17  18
BRANCH  11  23
ATOM     23  O   UNK A   0      -3.347   1.078  -1.099  0.00  0.00    -0.341 OA
BRANCH  23  24
ATOM     24  C   UNK A   0      -3.986   0.479   0.032  0.00  0.00    +0.274 C 
ATOM     25  C   UNK A   0      -3.505  -0.984   0.260  0.00  0.00    +0.160 C 
ATOM     26  C   UNK A   0      -4.108  -1.510   1.589  0.00  0.00    +0.171 C 
ATOM     27  C   UNK A   0      -3.957  -0.502   2.747  0.00  0.00    +0.176 C 
ATOM     28  C   UNK A   0      -4.468   0.870   2.308  0.00  0.00    +0.178 C 
ATOM     29  O   UNK A   0      -3.709   1.291   1.173  0.00  0.00    -0.341 OA
BRANCH  25  30
ATOM     30  N   UNK A   0      -3.794  -1.887  -0.878  0.00  0.00    -0.305 N 
ATOM     31  H   UNK A   0      -3.039  -2.485  -1.189  0.00  0.00    +0.149 HD
ATOM     32  C   UNK A   0      -5.067  -2.154  -1.321  0.00  0.00    +0.210 C 
ATOM     33  O   UNK A   0      -6.067  -1.632  -0.838  0.00  0.00    -0.276 OA
ATOM     34  C   UNK A   0      -5.158  -3.144  -2.452  0.00  0.00    +0.109 C 
ENDBRANCH  25  30
BRANCH  26  35
ATOM     35  O   UNK A   0      -3.482  -2.747   1.967  0.00  0.00    -0.387 OA
ATOM     36  H   UNK A   0      -3.791  -2.933   2.876  0.00  0.00    +0.210 HD
ENDBRANCH  26  35
BRANCH  27  37
ATOM     37  O   UNK A   0      -4.654  -0.994   3.894  0.00  0.00    -0.387 OA
ATOM     38  H   UNK A   0      -5.613  -0.955   3.720  0.00  0.00    +0.210 HD
ENDBRANCH  27  37
BRANCH  28  39
ATOM     39  C   UNK A   0      -4.328   1.949   3.381  0.00  0.00    +0.190 C 
BRANCH  39  40
ATOM     40  O   UNK A   0      -4.796   3.193   2.848  0.00  0.00    -0.392 OA
ATOM     41  H   UNK A   0      -4.213   3.391   2.091  0.00  0.00    +0.210 HD
ENDBRANCH  39  40
ENDBRANCH  28  39
ENDBRANCH  23  24
ENDBRANCH  11  23
ENDBRANCH   9  10
ENDBRANCH   7   9
ENDBRANCH   5   7
ENDBRANCH   1   3
BRANCH   1  44
ATOM     42  N   GLN A   2       2.425   7.042  -3.349  0.00  0.00    -0.301 N 
ATOM     43  H   GLN A   2       1.892   6.216  -3.590  0.00  0.00    +0.150 HD
ATOM     44  C   UNK A   1       2.679   7.253  -2.006  0.00  0.00    +0.234 C 
ATOM     45  O   UNK A   1       3.391   8.161  -1.587  0.00  0.00    -0.274 OA
BRANCH  42  46
ATOM     46  CA  GLN A   2       2.908   7.865  -4.467  0.00  0.00    +0.182 C 
BRANCH  46  47
ATOM     47  C   GLN A   2       1.950   9.013  -4.817  0.00  0.00    +0.325 C 
ATOM     48  OXT GLN A   2       2.174   9.831  -5.698  0.00  0.00    -0.249 OA
BRANCH  47  49
ATOM     49  O   GLN A   2       0.794   9.013  -4.114  0.00  0.00    -0.479 OA
ATOM     50  H   GLN A   2       0.750   8.316  -3.427  0.00  0.00    +0.295 HD
ENDBRANCH  47  49
ENDBRANCH  46  47
BRANCH  46  51
ATOM     51  CB  GLN A   2       4.333   8.383  -4.289  0.00  0.00    +0.043 C 
BRANCH  51  52
ATOM     52  CG  GLN A   2       5.325   7.255  -3.999  0.00  0.00    +0.098 C 
BRANCH  52  55
ATOM     53  N   GLN A   2       6.562   8.460  -2.321  0.00  0.00    -0.304 N 
ATOM     54  H   GLN A   2       5.641   8.702  -1.959  0.00  0.00    +0.149 HD
ATOM     55  CD  GLN A   2       6.647   7.798  -3.523  0.00  0.00    +0.214 C 
ATOM     56  OE1 GLN A   2       7.693   7.614  -4.131  0.00  0.00    -0.276 OA
BRANCH  53  57
ATOM     57  C   UNK A   1       7.711   9.174  -1.765  0.00  0.00    +0.159 C 
BRANCH  57  60
ATOM     58  N   GLN A   2       7.011   7.957   0.242  0.00  0.00    -0.301 N 
ATOM     59  H   GLN A   2       6.576   7.357  -0.451  0.00  0.00    +0.150 HD
ATOM     60  C   UNK A   1       7.594   9.113  -0.228  0.00  0.00    +0.234 C 
ATOM     61  O   UNK A   1       8.127   9.899   0.551  0.00  0.00    -0.274 OA
BRANCH  58  63
ATOM     62  CB  GLN A   2       5.969   8.665   2.386  0.00  0.00    +0.040 C 
ATOM     63  CA  GLN A   2       6.823   7.638   1.654  0.00  0.00    +0.179 C 
BRANCH  63  64
ATOM     64  C   GLN A   2       8.144   7.363   2.389  0.00  0.00    +0.325 C 
ATOM     65  OXT GLN A   2       8.374   6.309   2.969  0.00  0.00    -0.249 OA
BRANCH  64  66
ATOM     66  O   GLN A   2       9.029   8.384   2.388  0.00  0.00    -0.479 OA
ATOM     67  H   GLN A   2       8.724   9.158   1.852  0.00  0.00    +0.295 HD
ENDBRANCH  64  66
ENDBRANCH  63  64
ENDBRANCH  58  63
ENDBRANCH  57  60
BRANCH  57  68
ATOM     68  C   UNK A   1       7.772  10.593  -2.343  0.00  0.00    +0.032 C 
BRANCH  68  69
ATOM     69  C   UNK A   1       9.017  11.374  -1.925  0.00  0.00    +0.004 C 
BRANCH  69  70
ATOM     70  C   UNK A   1       9.068  12.760  -2.574  0.00  0.00    +0.030 C 
BRANCH  70  71
ATOM     71  C   UNK A   1      10.282  13.575  -2.109  0.00  0.00    +0.161 C 
BRANCH  71  72
ATOM     72  N   UNK A   1      11.557  12.973  -2.595  0.00  0.00    -0.318 NA
ATOM     73  H   UNK A   1      12.330  13.488  -2.158  0.00  0.00    +0.119 HD
ATOM     74  H   UNK A   1      11.637  12.035  -2.189  0.00  0.00    +0.119 HD
ENDBRANCH  71  72
BRANCH  71  75
ATOM     75  C   UNK A   1      10.182  15.001  -2.667  0.00  0.00    +0.322 C 
ATOM     76  O   UNK A   1       9.538  15.909  -2.167  0.00  0.00    -0.249 OA
BRANCH  75  77
ATOM     77  O   UNK A   1      10.894  15.128  -3.818  0.00  0.00    -0.480 OA
ATOM     78  H   UNK A   1      11.330  14.254  -3.972  0.00  0.00    +0.295 HD
ENDBRANCH  75  77
ENDBRANCH  71  75
ENDBRANCH  70  71
ENDBRANCH  69  70
ENDBRANCH  68  69
ENDBRANCH  57  68
ENDBRANCH  53  57
ENDBRANCH  52  55
ENDBRANCH  51  52
ENDBRANCH  46  51
ENDBRANCH  42  46
ENDBRANCH   1  44
TORSDOF 31
