REMARK  Name = 
REMARK  9 active torsions:
REMARK  status: ('A' for Active; 'I' for Inactive)
REMARK    1  A    between atoms: C_1  and  O_2
REMARK    2  A    between atoms: O_2  and  C_3
REMARK    3  A    between atoms: N_5  and  C_6
REMARK    4  A    between atoms: C_6  and  C_21
REMARK    5  A    between atoms: C_8  and  C_10
REMARK    6  A    between atoms: C_10  and  O_11
REMARK    7  A    between atoms: C_12  and  O_14
REMARK    8  A    between atoms: C_15  and  O_17
REMARK    9  A    between atoms: C_18  and  O_20
REMARK                            x       y       z     vdW  Elec       q    Type
REMARK                         _______ _______ _______ _____ _____    ______ ____
ROOT
ATOM      1  C   UNL     1       5.289   1.657  -1.578  0.00  0.00    +0.245 C 
ATOM      2  C   UNL     1       5.895   2.947  -0.938  0.00  0.00    +0.205 C 
ATOM      3  C   UNL     1       4.783   3.998  -0.738  0.00  0.00    +0.179 C 
ATOM      4  C   UNL     1       4.089   4.307  -2.066  0.00  0.00    +0.177 C 
ATOM      5  C   UNL     1       3.602   3.035  -2.781  0.00  0.00    +0.178 C 
ATOM      6  O   UNL     1       4.531   1.941  -2.773  0.00  0.00    -0.338 OA
ENDROOT
BRANCH   1   7
ATOM      7  C   UNL     1       6.401   0.669  -2.107  0.00  0.00    +0.264 C 
ATOM      8  O   UNL     1       6.424  -0.535  -1.854  0.00  0.00    -0.271 OA
ATOM      9  N   UNL     1       7.323   1.191  -2.978  0.00  0.00    -0.325 N 
ATOM     10  H   UNL     1       8.096   0.600  -3.249  0.00  0.00    +0.145 HD
ATOM     11  H   UNL     1       7.480   2.198  -2.949  0.00  0.00    +0.145 HD
ENDBRANCH   1   7
BRANCH   1  13
ATOM     12  C   UNL     1       4.785   0.431   0.501  0.00  0.00    +0.403 C 
ATOM     13  N   UNL     1       4.391   0.919  -0.708  0.00  0.00    -0.243 N 
ATOM     14  H   UNL     1       3.719   0.315  -1.160  0.00  0.00    +0.155 HD
ATOM     15  O   UNL     1       5.819   0.716   1.083  0.00  0.00    -0.226 OA
BRANCH  12  17
ATOM     16  C   UNL     1       4.024  -0.961   2.264  0.00  0.00    +0.282 C 
ATOM     17  O   UNL     1       3.812  -0.383   0.972  0.00  0.00    -0.454 OA
ENDBRANCH  12  17
ENDBRANCH   1  13
BRANCH   2  18
ATOM     18  O   UNL     1       6.967   3.495  -1.742  0.00  0.00    -0.384 OA
ATOM     19  H   UNL     1       6.871   4.469  -1.759  0.00  0.00    +0.210 HD
ENDBRANCH   2  18
BRANCH   3  20
ATOM     20  O   UNL     1       3.816   3.641   0.250  0.00  0.00    -0.386 OA
ATOM     21  H   UNL     1       3.716   2.672   0.275  0.00  0.00    +0.210 HD
ENDBRANCH   3  20
BRANCH   4  22
ATOM     22  O   UNL     1       5.026   5.013  -2.897  0.00  0.00    -0.386 OA
ATOM     23  H   UNL     1       4.592   5.192  -3.751  0.00  0.00    +0.210 HD
ENDBRANCH   4  22
BRANCH   5  24
ATOM     24  C   UNL     1       2.210   2.580  -2.315  0.00  0.00    +0.190 C 
BRANCH  24  25
ATOM     25  O   UNL     1       1.707   1.554  -3.171  0.00  0.00    -0.392 OA
ATOM     26  H   UNL     1       2.425   0.910  -3.311  0.00  0.00    +0.210 HD
ENDBRANCH  24  25
ENDBRANCH   5  24
TORSDOF 8
