REMARK  Name = 
REMARK  18 active torsions:
REMARK  status: ('A' for Active; 'I' for Inactive)
REMARK    1  A    between atoms: O_1  and  C_2
REMARK    2  A    between atoms: C_2  and  C_3
REMARK    3  A    between atoms: C_6  and  O_8
REMARK    4  A    between atoms: O_8  and  C_9
REMARK    5  A    between atoms: C_11  and  O_13
REMARK    6  A    between atoms: C_14  and  O_16
REMARK    7  A    between atoms: C_17  and  O_19
REMARK    8  A    between atoms: O_19  and  C_20
REMARK    9  A    between atoms: C_20  and  C_21
REMARK   10  A    between atoms: C_21  and  C_22
REMARK   11  A    between atoms: C_22  and  C_23
REMARK   12  A    between atoms: C_23  and  C_24
REMARK   13  A    between atoms: C_24  and  C_25
REMARK   14  A    between atoms: C_32  and  C_34
REMARK   15  A    between atoms: C_34  and  O_35
REMARK   16  A    between atoms: C_36  and  O_38
REMARK   17  A    between atoms: C_39  and  O_41
REMARK   18  A    between atoms: C_42  and  O_44
REMARK                            x       y       z     vdW  Elec       q    Type
REMARK                         _______ _______ _______ _____ _____    ______ ____
ROOT
ATOM      1  C   UNL     1      -0.911   3.786  -1.132  0.00  0.00    +0.183 C 
ATOM      2  C   UNL     1      -2.209   3.084  -1.605  0.00  0.00    +0.178 C 
ATOM      3  O   UNL     1      -2.483   3.312  -3.003  0.00  0.00    -0.341 OA
ATOM      4  C   UNL     1      -2.394   4.660  -3.490  0.00  0.00    +0.282 C 
ATOM      5  C   UNL     1      -1.055   5.313  -3.116  0.00  0.00    +0.201 C 
ATOM      6  C   UNL     1      -0.904   5.260  -1.578  0.00  0.00    +0.179 C 
ENDROOT
BRANCH   6   7
ATOM      7  O   UNL     1      -1.886   6.034  -0.883  0.00  0.00    -0.386 OA
ATOM      8  H   UNL     1      -2.724   6.025  -1.387  0.00  0.00    +0.210 HD
ENDBRANCH   6   7
BRANCH   5   9
ATOM      9  O   UNL     1       0.021   4.680  -3.804  0.00  0.00    -0.384 OA
ATOM     10  H   UNL     1      -0.080   3.716  -3.654  0.00  0.00    +0.210 HD
ENDBRANCH   5   9
BRANCH   1  11
ATOM     11  O   UNL     1       0.197   3.049  -1.723  0.00  0.00    -0.340 OA
BRANCH  11  16
ATOM     12  C   UNL     1       2.959   3.910   0.503  0.00  0.00    +0.178 C 
ATOM     13  C   UNL     1       4.151   3.345  -0.302  0.00  0.00    +0.177 C 
ATOM     14  C   UNL     1       3.946   3.396  -1.828  0.00  0.00    +0.179 C 
ATOM     15  C   UNL     1       2.563   2.842  -2.191  0.00  0.00    +0.201 C 
ATOM     16  C   UNL     1       1.488   3.582  -1.375  0.00  0.00    +0.282 C 
ATOM     17  O   UNL     1       1.690   3.435   0.023  0.00  0.00    -0.341 OA
BRANCH  15  18
ATOM     18  O   UNL     1       2.510   1.432  -1.905  0.00  0.00    -0.384 OA
ATOM     19  H   UNL     1       1.556   1.224  -1.832  0.00  0.00    +0.210 HD
ENDBRANCH  15  18
BRANCH  14  20
ATOM     20  O   UNL     1       4.150   4.706  -2.364  0.00  0.00    -0.386 OA
ATOM     21  H   UNL     1       3.673   5.362  -1.807  0.00  0.00    +0.210 HD
ENDBRANCH  14  20
BRANCH  13  22
ATOM     22  O   UNL     1       4.356   1.976   0.098  0.00  0.00    -0.386 OA
ATOM     23  H   UNL     1       3.811   1.412  -0.494  0.00  0.00    +0.210 HD
ENDBRANCH  13  22
BRANCH  12  24
ATOM     24  C   UNL     1       2.968   5.445   0.660  0.00  0.00    +0.190 C 
BRANCH  24  25
ATOM     25  O   UNL     1       2.882   6.134  -0.586  0.00  0.00    -0.392 OA
ATOM     26  H   UNL     1       2.718   7.074  -0.372  0.00  0.00    +0.210 HD
ENDBRANCH  24  25
ENDBRANCH  12  24
ENDBRANCH  11  16
ENDBRANCH   1  11
BRANCH   2  27
ATOM     27  C   UNL     1      -3.445   3.376  -0.735  0.00  0.00    +0.190 C 
BRANCH  27  28
ATOM     28  O   UNL     1      -4.543   2.555  -1.138  0.00  0.00    -0.392 OA
ATOM     29  H   UNL     1      -4.727   2.789  -2.068  0.00  0.00    +0.210 HD
ENDBRANCH  27  28
ENDBRANCH   2  27
BRANCH   4  30
ATOM     30  O   UNL     1      -3.504   5.436  -3.032  0.00  0.00    -0.349 OA
BRANCH  30  31
ATOM     31  C   UNL     1      -3.640   6.723  -3.654  0.00  0.00    +0.163 C 
BRANCH  31  32
ATOM     32  C   UNL     1      -3.796   6.658  -5.169  0.00  0.00    +0.028 C 
BRANCH  32  33
ATOM     33  C   UNL     1      -5.015   5.814  -5.505  0.00  0.00    +0.002 C 
BRANCH  33  34
ATOM     34  C   UNL     1      -5.173   5.585  -6.999  0.00  0.00    +0.000 C 
BRANCH  34  35
ATOM     35  C   UNL     1      -6.462   4.799  -7.215  0.00  0.00    +0.003 C 
BRANCH  35  36
ATOM     36  C   UNL     1      -6.779   4.477  -8.682  0.00  0.00    -0.011 C 
ATOM     37  C   UNL     1      -8.135   3.755  -8.765  0.00  0.00    +0.003 C 
ATOM     38  C   UNL     1      -8.081   2.340  -8.187  0.00  0.00    +0.000 C 
ATOM     39  C   UNL     1      -6.960   1.509  -8.806  0.00  0.00    +0.000 C 
ATOM     40  C   UNL     1      -5.609   2.219  -8.785  0.00  0.00    +0.000 C 
ATOM     41  C   UNL     1      -5.703   3.626  -9.372  0.00  0.00    +0.003 C 
ENDBRANCH  35  36
ENDBRANCH  34  35
ENDBRANCH  33  34
ENDBRANCH  32  33
ENDBRANCH  31  32
ENDBRANCH  30  31
ENDBRANCH   4  30
TORSDOF 18
