REMARK  Name = 
REMARK  12 active torsions:
REMARK  status: ('A' for Active; 'I' for Inactive)
REMARK    1  A    between atoms: O_1  and  C_2
REMARK    2  A    between atoms: C_6  and  S_8
REMARK    3  A    between atoms: S_8  and  C_9
REMARK    4  A    between atoms: C_9  and  C_10
REMARK    5  A    between atoms: C_13  and  O_15
REMARK    6  A    between atoms: O_15  and  C_16
REMARK    7  A    between atoms: C_19  and  N_22
REMARK    8  A    between atoms: C_25  and  O_27
REMARK    9  A    between atoms: C_28  and  O_30
REMARK   10  A    between atoms: C_31  and  O_33
REMARK   11  A    between atoms: C_34  and  O_36
REMARK   12  A    between atoms: C_37  and  O_39
REMARK                            x       y       z     vdW  Elec       q    Type
REMARK                         _______ _______ _______ _____ _____    ______ ____
ROOT
ATOM      1  C   UNL     1       6.883   0.462  -3.969  0.00  0.00    +0.163 C 
ATOM      2  C   UNL     1       7.400   1.702  -4.728  0.00  0.00    +0.175 C 
ATOM      3  C   UNL     1       7.023   1.668  -6.217  0.00  0.00    +0.180 C 
ATOM      4  C   UNL     1       7.426   0.336  -6.867  0.00  0.00    +0.214 C 
ATOM      5  C   UNL     1       6.929  -0.866  -6.023  0.00  0.00    +0.339 C 
ATOM      6  O   UNL     1       7.280  -0.757  -4.641  0.00  0.00    -0.333 OA
ENDROOT
BRANCH   2   7
ATOM      7  O   UNL     1       8.830   1.737  -4.562  0.00  0.00    -0.387 OA
ATOM      8  H   UNL     1       9.206   2.304  -5.255  0.00  0.00    +0.210 HD
ENDBRANCH   2   7
BRANCH   3   9
ATOM      9  O   UNL     1       5.635   1.976  -6.393  0.00  0.00    -0.386 OA
ATOM     10  H   UNL     1       5.138   1.164  -6.611  0.00  0.00    +0.210 HD
ENDBRANCH   3   9
BRANCH   4  11
ATOM     11  O   UNL     1       8.849   0.337  -7.062  0.00  0.00    -0.383 OA
ATOM     12  H   UNL     1       9.195  -0.560  -6.914  0.00  0.00    +0.210 HD
ENDBRANCH   4  11
BRANCH   1  13
ATOM     13  C   UNL     1       5.372   0.467  -3.646  0.00  0.00    +0.106 C 
BRANCH  13  14
ATOM     14  S   UNL     1       4.878   1.864  -2.588  0.00  0.00    -0.124 S 
BRANCH  14  18
ATOM     15  C   UNL     1       1.841   3.932  -3.907  0.00  0.00    +0.171 C 
ATOM     16  C   UNL     1       2.300   2.689  -4.692  0.00  0.00    +0.177 C 
ATOM     17  C   UNL     1       2.212   1.455  -3.782  0.00  0.00    +0.184 C 
ATOM     18  C   UNL     1       3.041   1.674  -2.493  0.00  0.00    +0.207 C 
ATOM     19  O   UNL     1       2.478   2.804  -1.801  0.00  0.00    -0.361 OA
ATOM     20  C   UNL     1       2.542   4.024  -2.549  0.00  0.00    +0.195 C 
BRANCH  15  21
ATOM     21  O   UNL     1       2.046   5.135  -4.648  0.00  0.00    -0.387 OA
ATOM     22  H   UNL     1       2.847   5.028  -5.191  0.00  0.00    +0.210 HD
ENDBRANCH  15  21
BRANCH  16  23
ATOM     23  O   UNL     1       1.485   2.524  -5.865  0.00  0.00    -0.386 OA
ATOM     24  H   UNL     1       0.553   2.489  -5.592  0.00  0.00    +0.210 HD
ENDBRANCH  16  23
BRANCH  17  25
ATOM     25  O   UNL     1       2.539   0.255  -4.479  0.00  0.00    -0.386 OA
ATOM     26  H   UNL     1       2.287  -0.496  -3.915  0.00  0.00    +0.210 HD
ENDBRANCH  17  25
ENDBRANCH  14  18
ENDBRANCH  13  14
ENDBRANCH   1  13
BRANCH   5  27
ATOM     27  O   UNL     1       5.522  -1.027  -6.241  0.00  0.00    -0.461 OA
BRANCH  27  28
ATOM     28  C   UNL     1       4.927  -2.175  -5.792  0.00  0.00    +0.124 A 
ATOM     29  C   UNL     1       3.554  -2.255  -6.050  0.00  0.00    +0.052 A 
ATOM     30  C   UNL     1       2.807  -3.359  -5.628  0.00  0.00    +0.088 A 
ATOM     31  C   UNL     1       3.451  -4.401  -4.952  0.00  0.00    +0.273 A 
ATOM     32  C   UNL     1       4.821  -4.329  -4.680  0.00  0.00    +0.088 A 
ATOM     33  C   UNL     1       5.554  -3.213  -5.099  0.00  0.00    +0.052 A 
BRANCH  31  34
ATOM     34  N   UNL     1       2.683  -5.576  -4.525  0.00  0.00    +0.080 N 
ATOM     35  O   UNL     1       1.462  -5.577  -4.738  0.00  0.00    +0.041 OA
ATOM     36  O   UNL     1       3.302  -6.498  -3.975  0.00  0.00    -0.576 OA
ENDBRANCH  31  34
ENDBRANCH  27  28
ENDBRANCH   5  27
TORSDOF 12
