REMARK  Name = 
REMARK  5 active torsions:
REMARK  status: ('A' for Active; 'I' for Inactive)
REMARK    1  A    between atoms: C_1  and  C_2
REMARK    2  A    between atoms: C_2  and  C_3
REMARK    3  A    between atoms: C_2  and  N_4
REMARK    4  A    between atoms: N_4  and  N_5
REMARK    5  A    between atoms: C_6  and  C_8
REMARK                            x       y       z     vdW  Elec       q    Type
REMARK                         _______ _______ _______ _____ _____    ______ ____
ROOT
ATOM      1  N   UNL     1       4.491  -0.740   1.149  0.00  0.00    -0.247 N 
ATOM      2  H   UNL     1       5.030  -0.190   0.485  0.00  0.00    +0.169 HD
ATOM      3  C   UNL     1       5.134  -1.367   2.207  0.00  0.00    +0.258 C 
ATOM      4  O   UNL     1       4.564  -1.775   3.212  0.00  0.00    -0.269 OA
ENDROOT
BRANCH   3   5
ATOM      5  C   UNL     1       6.607  -1.500   2.058  0.00  0.00    +0.041 A 
ATOM      6  C   UNL     1       7.192  -1.666   0.801  0.00  0.00    +0.033 A 
ATOM      7  C   UNL     1       8.568  -1.784   0.738  0.00  0.00    +0.111 A 
ATOM      8  N   UNL     1       9.371  -1.750   1.823  0.00  0.00    -0.263 NA
ATOM      9  C   UNL     1       8.775  -1.610   3.027  0.00  0.00    +0.111 A 
ATOM     10  C   UNL     1       7.408  -1.487   3.198  0.00  0.00    +0.033 A 
ENDBRANCH   3   5
BRANCH   1  11
ATOM     11  N   UNL     1       3.100  -0.514   1.200  0.00  0.00    -0.238 NA
ATOM     12  H   UNL     1       2.772  -0.863   2.112  0.00  0.00    +0.145 HD
BRANCH  11  14
ATOM     13  C   UNL     1       0.893  -1.006   0.291  0.00  0.00    +0.025 C 
ATOM     14  C   UNL     1       2.395  -1.246   0.133  0.00  0.00    +0.067 C 
ATOM     15  C   UNL     1       2.844  -0.788  -1.258  0.00  0.00    +0.025 C 
ENDBRANCH  11  14
ENDBRANCH   1  11
TORSDOF 3
