REMARK  Name = 
REMARK  7 active torsions:
REMARK  status: ('A' for Active; 'I' for Inactive)
REMARK    1  A    between atoms: N_1  and  C_2
REMARK    2  A    between atoms: C_2  and  C_4
REMARK    3  A    between atoms: C_2  and  C_11
REMARK    4  A    between atoms: C_4  and  O_5
REMARK    5  A    between atoms: O_5  and  V_6
REMARK    6  A    between atoms: V_6  and  O_7
REMARK    7  A    between atoms: C_11  and  O_12
REMARK                            x       y       z     vdW  Elec       q    Type
REMARK                         _______ _______ _______ _____ _____    ______ ____
ROOT
ATOM      1  C   UNK     1       2.533   0.035  -0.227  0.00  0.00    +0.000 C 
ENDROOT
BRANCH   1   2
ATOM      2  N   UNK     1       2.940   0.798  -1.411  0.00  0.00    +0.000 NA
ATOM      3  H   UNK     1       3.979   0.820  -1.495  0.00  0.00    +0.000 HD
ATOM      4  H   UNK     1       2.549   0.342  -2.268  0.00  0.00    +0.000 HD
ENDBRANCH   1   2
BRANCH   1   5
ATOM      5  C   UNK     1       2.985   0.754   1.026  0.00  0.00    +0.000 C 
ATOM      6  O   UNK     1       2.153   1.130   1.837  0.00  0.00    +0.000 OA
BRANCH   5   7
ATOM      7  O   UNK     1       4.294   0.968   1.283  0.00  0.00    +0.000 OA
ATOM      8  H   UNK     1       4.990   0.682   0.678  0.00  0.00    +0.000 HD
ENDBRANCH   5   7
ENDBRANCH   1   5
BRANCH   1   9
ATOM      9  C   UNK     1       3.079  -1.400  -0.273  0.00  0.00    +0.000 C 
BRANCH   9  10
ATOM     10  O   UNK     1       2.619  -2.056   0.867  0.00  0.00    +0.000 OA
BRANCH  10  11
ATOM     11  V   UNK     1       3.318  -3.895   0.871  0.00  0.00    +0.000 V 
ATOM     12  O   UNK     1       4.212  -5.570   0.366  0.00  0.00    -1.000 OA
ATOM     13  O   UNK     1       4.470  -2.950   2.157  0.00  0.00    -1.000 OA
ATOM     14  O   UNK     1       1.390  -4.104   0.521  0.00  0.00    -1.000 OA
BRANCH  11  15
ATOM     15  O   UNK     1       2.943  -5.067   2.403  0.00  0.00    +0.000 OA
ATOM     16  H   UNK     1       2.424  -4.490   3.015  0.00  0.00    +0.000 HD
ENDBRANCH  11  15
ENDBRANCH  10  11
ENDBRANCH   9  10
ENDBRANCH   1   9
TORSDOF 7
