REMARK  Name = 
REMARK  11 active torsions:
REMARK  status: ('A' for Active; 'I' for Inactive)
REMARK    1  A    between atoms: CA_2  and  C_3
REMARK    2  A    between atoms: CA_2  and  N_5
REMARK    3  A    between atoms: CA_2  and  CB_26
REMARK    4  A    between atoms: C_3  and  O_4
REMARK    5  A    between atoms: C_8  and  N_9
REMARK    6  A    between atoms: N_9  and  C_10
REMARK    7  A    between atoms: N_20  and  C_21
REMARK    8  A    between atoms: C_21  and  C_22
REMARK    9  A    between atoms: C_21  and  C_23
REMARK   10  A    between atoms: CB_26  and  CG1_27
REMARK   11  A    between atoms: CB_26  and  CG2_28
REMARK                            x       y       z     vdW  Elec       q    Type
REMARK                         _______ _______ _______ _____ _____    ______ ____
ROOT
ATOM      1  N   VAL A   1       2.583   0.090  -1.264  0.00  0.00    -0.308 N 
ATOM      2  H   VAL A   1       3.595   0.051  -1.188  0.00  0.00    +0.149 HD
ATOM      3  C   UNK A   0       2.289  -0.559  -2.458  0.00  0.00    +0.219 A 
ATOM      4  N   UNK A   0       2.603  -1.865  -2.481  0.00  0.00    -0.195 NA
ATOM      5  C   UNK A   0       2.279  -2.458  -3.637  0.00  0.00    +0.167 A 
ATOM      6  C   UNK A   0       1.770  -1.845  -4.768  0.00  0.00    +0.148 A 
ATOM      7  N   UNK A   0       1.578  -2.770  -5.778  0.00  0.00    -0.231 NA
ATOM      8  C   UNK A   0       1.943  -3.921  -5.263  0.00  0.00    +0.201 A 
ATOM      9  C   UNK A   0       1.531  -0.464  -4.682  0.00  0.00    +0.156 A 
ATOM     10  N   UNK A   0       2.348  -3.788  -3.958  0.00  0.00    -0.312 N 
ATOM     11  N   UNK A   0       1.760   0.141  -3.484  0.00  0.00    -0.197 NA
ENDROOT
BRANCH  10  12
ATOM     12  C   UNK A   0       2.726  -4.881  -3.076  0.00  0.00    +0.084 C 
ATOM     13  C   UNK A   0       4.009  -5.559  -3.553  0.00  0.00    +0.030 C 
ATOM     14  C   UNK A   0       1.591  -5.899  -2.926  0.00  0.00    +0.030 C 
ENDBRANCH  10  12
BRANCH   9  15
ATOM     15  N   UNK A   0       1.009   0.307  -5.729  0.00  0.00    -0.298 N 
ATOM     16  H   UNK A   0       0.755   1.238  -5.425  0.00  0.00    +0.154 HD
BRANCH  15  17
ATOM     17  C   UNK A   0       1.208   0.156  -7.113  0.00  0.00    +0.034 A 
ATOM     18  C   UNK A   0       2.371  -0.416  -7.648  0.00  0.00    +0.043 A 
ATOM     19  C   UNK A   0       2.505  -0.603  -9.023  0.00  0.00    +0.043 A 
ATOM     20 CL   UNK A   0       3.942  -1.313  -9.655  0.00  0.00    -0.083 Cl
ATOM     21  C   UNK A   0       1.484  -0.225  -9.890  0.00  0.00    +0.020 A 
ATOM     22  C   UNK A   0       0.324   0.352  -9.374  0.00  0.00    +0.003 A 
ATOM     23  C   UNK A   0       0.195   0.549  -7.995  0.00  0.00    +0.023 A 
ENDBRANCH  15  17
ENDBRANCH   9  15
BRANCH   1  24
ATOM     24  CA  VAL A   1       2.007   1.425  -1.043  0.00  0.00    +0.101 C 
BRANCH  24  25
ATOM     25  CB  VAL A   1       2.668   2.101   0.201  0.00  0.00    +0.005 C 
ATOM     26  CG2 VAL A   1       4.147   2.434  -0.036  0.00  0.00    +0.009 C 
ATOM     27  CG1 VAL A   1       2.527   1.297   1.498  0.00  0.00    +0.009 C 
ENDBRANCH  24  25
BRANCH  24  28
ATOM     28  C   VAL A   1       0.469   1.305  -0.866  0.00  0.00    +0.178 C 
BRANCH  28  29
ATOM     29  O   VAL A   1      -0.125   2.557  -0.536  0.00  0.00    -0.393 OA
ATOM     30  H   VAL A   1      -0.501   2.466   0.357  0.00  0.00    +0.209 HD
ENDBRANCH  28  29
ENDBRANCH  24  28
ENDBRANCH   1  24
TORSDOF 7
