REMARK  Name = 
REMARK  11 active torsions:
REMARK  status: ('A' for Active; 'I' for Inactive)
REMARK    1  A    between atoms: C_1  and  C_9
REMARK    2  A    between atoms: C_2  and  C_3
REMARK    3  A    between atoms: C_9  and  C_10
REMARK    4  A    between atoms: C_10  and  C_11
REMARK    5  A    between atoms: C_10  and  C_25
REMARK    6  A    between atoms: C_10  and  N_34
REMARK    7  A    between atoms: C_11  and  C_12
REMARK    8  A    between atoms: C_15  and  C_18
REMARK    9  A    between atoms: C_18  and  P_21
REMARK   10  A    between atoms: P_21  and  O_22
REMARK   11  A    between atoms: P_21  and  O_23
REMARK                            x       y       z     vdW  Elec       q    Type
REMARK                         _______ _______ _______ _____ _____    ______ ____
ROOT
ATOM      1  C   UNL     1       3.239  -1.668   0.208  0.00  0.00    +0.121 C 
ENDROOT
BRANCH   1   2
ATOM      2  N   UNL     1       4.683  -1.331   0.462  0.00  0.00    -0.231 N 
ATOM      3  C   UNL     1       5.258  -0.457   1.380  0.00  0.00    +0.090 A 
ATOM      4  C   UNL     1       4.794   0.440   2.352  0.00  0.00    +0.029 A 
ATOM      5  C   UNL     1       5.755   1.223   3.021  0.00  0.00    +0.002 A 
ATOM      6  C   UNL     1       7.117   1.092   2.771  0.00  0.00    +0.002 A 
ATOM      7  C   UNL     1       7.570   0.132   1.869  0.00  0.00    +0.032 A 
ATOM      8  C   UNL     1       6.628  -0.625   1.161  0.00  0.00    +0.113 A 
ATOM      9  N   UNL     1       6.836  -1.548   0.188  0.00  0.00    -0.129 NA
ATOM     10  N   UNL     1       5.661  -1.983  -0.209  0.00  0.00    -0.064 NA
ENDBRANCH   1   2
BRANCH   1  11
ATOM     11  C   UNL     1       3.113  -2.806  -0.882  0.00  0.00    +0.108 A 
ATOM     12  S   UNL     1       1.677  -3.759  -1.089  0.00  0.00    -0.070 S 
ATOM     13  C   UNL     1       2.196  -4.241  -2.670  0.00  0.00    +0.039 A 
ATOM     14  C   UNL     1       1.528  -4.975  -3.662  0.00  0.00    +0.017 A 
ATOM     15  C   UNL     1       2.135  -5.098  -4.923  0.00  0.00    +0.001 A 
ATOM     16  C   UNL     1       3.385  -4.548  -5.179  0.00  0.00    +0.002 A 
ATOM     17  C   UNL     1       4.075  -3.890  -4.162  0.00  0.00    +0.029 A 
ATOM     18  C   UNL     1       3.470  -3.734  -2.896  0.00  0.00    +0.079 A 
ATOM     19  N   UNL     1       3.992  -3.017  -1.850  0.00  0.00    -0.242 NA
ENDBRANCH   1  11
BRANCH   1  20
ATOM     20  C   UNL     1       2.576  -2.113   1.561  0.00  0.00    +0.064 C 
BRANCH  20  21
ATOM     21  C   UNL     1       3.265  -3.240   2.284  0.00  0.00    -0.023 C 
ATOM     22  C   UNL     1       2.658  -4.351   2.725  0.00  0.00    +0.004 C 
BRANCH  22  23
ATOM     23  C   UNL     1       3.479  -5.428   3.275  0.00  0.00    -0.025 A 
ATOM     24  C   UNL     1       4.035  -6.356   2.389  0.00  0.00    +0.008 A 
ATOM     25  C   UNL     1       4.895  -7.346   2.858  0.00  0.00    +0.001 A 
ATOM     26  C   UNL     1       5.211  -7.411   4.216  0.00  0.00    +0.000 A 
ATOM     27  C   UNL     1       4.655  -6.486   5.105  0.00  0.00    +0.001 A 
ATOM     28  C   UNL     1       3.791  -5.494   4.637  0.00  0.00    +0.008 A 
ENDBRANCH  22  23
ENDBRANCH  20  21
ENDBRANCH   1  20
BRANCH   1  29
ATOM     29  C   UNL     1       2.436  -0.367  -0.302  0.00  0.00    +0.072 C 
BRANCH  29  30
ATOM     30  C   UNL     1       3.023   0.449  -1.449  0.00  0.00    -0.045 A 
ATOM     31  C   UNL     1       3.208   1.830  -1.364  0.00  0.00    +0.004 A 
ATOM     32  C   UNL     1       4.109   2.462  -2.228  0.00  0.00    +0.010 A 
ATOM     33  C   UNL     1       4.891   1.686  -3.102  0.00  0.00    +0.033 A 
ATOM     34  C   UNL     1       4.505   0.378  -3.354  0.00  0.00    +0.010 A 
ATOM     35  C   UNL     1       3.492  -0.183  -2.597  0.00  0.00    +0.004 A 
BRANCH  33  36
ATOM     36  C   UNL     1       6.333   2.053  -3.364  0.00  0.00    +0.371 C 
ATOM     37  F   UNL     1       6.593   3.365  -3.616  0.00  0.00    -0.187 F 
ATOM     38  F   UNL     1       6.980   1.322  -4.315  0.00  0.00    -0.187 F 
BRANCH  36  39
ATOM     39  P   UNL     1       7.264   1.625  -1.848  0.00  0.00    +0.401 P 
ATOM     40  O   UNL     1       8.051   1.262  -0.565  0.00  0.00    -0.252 OA
BRANCH  39  41
ATOM     41  O   UNL     1       6.914   3.162  -1.278  0.00  0.00    -0.320 OA
ATOM     42  H   UNL     1       7.327   3.822  -1.869  0.00  0.00    +0.220 HD
ENDBRANCH  39  41
BRANCH  39  43
ATOM     43  O   UNL     1       8.660   2.107  -2.635  0.00  0.00    -0.320 OA
ATOM     44  H   UNL     1       8.762   1.688  -3.515  0.00  0.00    +0.220 HD
ENDBRANCH  39  43
ENDBRANCH  36  39
ENDBRANCH  33  36
ENDBRANCH  29  30
ENDBRANCH   1  29
TORSDOF 11
