REMARK  Name = 
REMARK  6 active torsions:
REMARK  status: ('A' for Active; 'I' for Inactive)
REMARK    1  A    between atoms: N_1  and  C_2
REMARK    2  A    between atoms: N_6  and  C1*_7
REMARK    3  A    between atoms: C4*_10  and  C5*_12
REMARK    4  A    between atoms: C5*_12  and  O5*_13
REMARK    5  A    between atoms: C3*_14  and  O3*_16
REMARK    6  A    between atoms: C2*_17  and  O2*_19
REMARK                            x       y       z     vdW  Elec       q    Type
REMARK                         _______ _______ _______ _____ _____    ______ ____
ROOT
ATOM      1  C1* UNL     1       2.754  -2.722  -0.257  0.00  0.00    +0.253 C 
ATOM      2  C2* UNL     1       2.227  -2.820   1.185  0.00  0.00    +0.195 C 
ATOM      3  C3* UNL     1       2.290  -4.307   1.535  0.00  0.00    +0.178 C 
ATOM      4  C4* UNL     1       2.699  -4.974   0.226  0.00  0.00    +0.177 C 
ATOM      5  O4* UNL     1       3.419  -3.984  -0.523  0.00  0.00    -0.346 OA
ENDROOT
BRANCH   1   7
ATOM      6  C   UNL     1       1.403  -3.103  -2.419  0.00  0.00    +0.118 A 
ATOM      7  N   UNL     1       1.724  -2.442  -1.256  0.00  0.00    -0.290 N 
ATOM      8  C   UNL     1       0.912  -1.332  -1.197  0.00  0.00    +0.202 A 
ATOM      9  N   UNL     1       0.052  -1.297  -2.189  0.00  0.00    -0.242 NA
ATOM     10  C   UNL     1       0.342  -2.399  -2.947  0.00  0.00    +0.154 A 
BRANCH   6  11
ATOM     11  N   UNL     1       2.050  -4.196  -2.868  0.00  0.00    -0.343 N 
ATOM     12  H   UNL     1       2.987  -4.398  -2.516  0.00  0.00    +0.144 HD
ATOM     13  H   UNL     1       1.906  -4.511  -3.824  0.00  0.00    +0.144 HD
ENDBRANCH   6  11
ENDBRANCH   1   7
BRANCH   2  14
ATOM     14  O2* UNL     1       3.076  -2.066   2.073  0.00  0.00    -0.385 OA
ATOM     15  H2* UNL     1       3.960  -2.472   2.080  0.00  0.00    +0.210 HD
ENDBRANCH   2  14
BRANCH   3  16
ATOM     16  O3* UNL     1       1.028  -4.788   1.988  0.00  0.00    -0.386 OA
ATOM     17  H3* UNL     1       1.134  -5.746   2.149  0.00  0.00    +0.210 HD
ENDBRANCH   3  16
BRANCH   4  18
ATOM     18  C5* UNL     1       3.564  -6.211   0.434  0.00  0.00    +0.190 C 
BRANCH  18  19
ATOM     19  O5* UNL     1       2.863  -7.189   1.191  0.00  0.00    -0.392 OA
ATOM     20  H5* UNL     1       2.500  -7.837   0.558  0.00  0.00    +0.210 HD
ENDBRANCH  18  19
ENDBRANCH   4  18
TORSDOF 6
