REMARK  Name = 
REMARK  11 active torsions:
REMARK  status: ('A' for Active; 'I' for Inactive)
REMARK    1  A    between atoms: N_6  and  C_9
REMARK    2  A    between atoms: C_12  and  C_14
REMARK    3  A    between atoms: C_14  and  O_15
REMARK    4  A    between atoms: O_15  and  P_16
REMARK    5  A    between atoms: P_16  and  O_17
REMARK    6  A    between atoms: P_16  and  O_19
REMARK    7  A    between atoms: O_19  and  P_20
REMARK    8  A    between atoms: P_20  and  O_21
REMARK    9  A    between atoms: P_20  and  O_22
REMARK   10  A    between atoms: C_24  and  O_26
REMARK   11  A    between atoms: C_27  and  O_29
REMARK                            x       y       z     vdW  Elec       q    Type
REMARK                         _______ _______ _______ _____ _____    ______ ____
ROOT
ATOM      1  C   UNL     1       3.598   4.597   5.002  0.00  0.00    +0.255 C 
ATOM      2  C   UNL     1       3.647   4.226   6.500  0.00  0.00    +0.195 C 
ATOM      3  C   UNL     1       4.439   2.915   6.550  0.00  0.00    +0.178 C 
ATOM      4  C   UNL     1       4.789   2.617   5.091  0.00  0.00    +0.178 C 
ATOM      5  O   UNL     1       4.684   3.862   4.394  0.00  0.00    -0.346 OA
ENDROOT
BRANCH   1  12
ATOM      6  N   UNL     1      -0.944   3.647   1.995  0.00  0.00    -0.343 N 
ATOM      7  H   UNL     1      -1.346   2.718   2.003  0.00  0.00    +0.144 HD
ATOM      8  H   UNL     1      -0.860   4.048   1.066  0.00  0.00    +0.144 HD
ATOM      9  C   UNL     1       0.163   3.868   2.763  0.00  0.00    +0.123 A 
ATOM     10  C   UNL     1       0.371   3.066   3.980  0.00  0.00    +0.061 A 
ATOM     11  C   UNL     1       1.483   3.321   4.665  0.00  0.00    +0.096 A 
ATOM     12  N   UNL     1       2.364   4.306   4.268  0.00  0.00    -0.270 N 
ATOM     13  C   UNL     1       2.124   5.054   3.104  0.00  0.00    +0.352 A 
ATOM     14  O   UNL     1       2.897   5.935   2.735  0.00  0.00    -0.244 OA
ATOM     15  N   UNL     1       0.990   4.783   2.369  0.00  0.00    -0.178 NA
ENDBRANCH   1  12
BRANCH   2  16
ATOM     16  O   UNL     1       4.344   5.232   7.263  0.00  0.00    -0.385 OA
ATOM     17  H   UNL     1       5.161   5.468   6.789  0.00  0.00    +0.210 HD
ENDBRANCH   2  16
BRANCH   3  18
ATOM     18  O   UNL     1       3.654   1.857   7.099  0.00  0.00    -0.386 OA
ATOM     19  H   UNL     1       4.233   1.071   7.137  0.00  0.00    +0.210 HD
ENDBRANCH   3  18
BRANCH   4  20
ATOM     20  C   UNL     1       6.183   2.014   4.916  0.00  0.00    +0.206 C 
BRANCH  20  21
ATOM     21  O   UNL     1       6.267   0.741   5.553  0.00  0.00    -0.284 OA
BRANCH  21  22
ATOM     22  P   UNL     1       7.696  -0.070   5.394  0.00  0.00    +0.483 P 
ATOM     23  O   UNL     1       7.554  -1.398   6.133  0.00  0.00    -0.227 OA
BRANCH  22  24
ATOM     24  O   UNL     1       7.069  -0.840   3.978  0.00  0.00    -0.302 OA
ATOM     25  H   UNL     1       6.354  -1.415   4.319  0.00  0.00    +0.222 HD
ENDBRANCH  22  24
BRANCH  22  26
ATOM     26  O   UNL     1       8.323   0.701   6.811  0.00  0.00    -0.186 OA
BRANCH  26  27
ATOM     27  P   UNL     1       9.925   1.272   6.495  0.00  0.00    +0.481 P 
ATOM     28  O   UNL     1      11.359   1.784   6.212  0.00  0.00    -0.227 OA
BRANCH  27  29
ATOM     29  O   UNL     1       9.924   1.711   8.074  0.00  0.00    -0.302 OA
ATOM     30  H   UNL     1      10.125   0.961   8.664  0.00  0.00    +0.222 HD
ENDBRANCH  27  29
BRANCH  27  31
ATOM     31  O   UNL     1       9.206   2.656   6.007  0.00  0.00    -0.302 OA
ATOM     32  H   UNL     1       9.483   3.331   6.661  0.00  0.00    +0.222 HD
ENDBRANCH  27  31
ENDBRANCH  26  27
ENDBRANCH  22  26
ENDBRANCH  21  22
ENDBRANCH  20  21
ENDBRANCH   4  20
TORSDOF 11
