REMARK  Name = 
REMARK  2 active torsions:
REMARK  status: ('A' for Active; 'I' for Inactive)
REMARK    1  A    between atoms: C_1  and  C_2
REMARK    2  A    between atoms: C_3  and  C_10
REMARK                            x       y       z     vdW  Elec       q    Type
REMARK                         _______ _______ _______ _____ _____    ______ ____
ROOT
ATOM      1  C   UNL     1       1.011  -0.337   0.330  0.00  0.00    +0.066 C 
ATOM      2  C   UNL     1       2.481  -0.075   0.172  0.00  0.00    +0.053 A 
ATOM      3  N   UNL     1       3.199  -1.228   0.114  0.00  0.00    -0.219 NA
ATOM      4  C   UNL     1       4.517  -1.136  -0.005  0.00  0.00    +0.214 A 
ATOM      5  N   UNL     1       5.235  -2.310  -0.091  0.00  0.00    -0.327 N 
ATOM      6  H   UNL     1       4.702  -3.069   0.306  0.00  0.00    +0.145 HD
ATOM      7  H   UNL     1       6.173  -2.166   0.256  0.00  0.00    +0.145 HD
ATOM      8  N   UNL     1       5.189   0.002  -0.027  0.00  0.00    -0.199 NA
ATOM      9  C   UNL     1       4.462   1.136  -0.012  0.00  0.00    +0.129 A 
ATOM     10  N   UNL     1       5.278   2.274  -0.084  0.00  0.00    -0.343 N 
ATOM     11  H   UNL     1       6.236   1.936  -0.152  0.00  0.00    +0.144 HD
ATOM     12  H   UNL     1       5.029   2.848  -0.878  0.00  0.00    +0.144 HD
ATOM     13  C   UNL     1       3.061   1.197   0.065  0.00  0.00    +0.043 A 
ENDROOT
BRANCH  13  14
ATOM     14  C   UNL     1       2.298   2.490   0.028  0.00  0.00    -0.011 A 
ATOM     15  C   UNL     1       2.793   3.667   0.629  0.00  0.00    +0.010 A 
ATOM     16  C   UNL     1       2.142   4.904   0.507  0.00  0.00    +0.022 A 
ATOM     17  C   UNL     1       0.926   4.995  -0.161  0.00  0.00    +0.059 A 
ATOM     18 CL   UNL     1       0.172   6.542  -0.277  0.00  0.00    -0.082 Cl
ATOM     19  C   UNL     1       0.374   3.841  -0.717  0.00  0.00    +0.060 A 
ATOM     20 CL   UNL     1      -1.169   3.843  -1.498  0.00  0.00    -0.082 Cl
ATOM     21  C   UNL     1       1.070   2.621  -0.651  0.00  0.00    +0.030 A 
ENDBRANCH  13  14
TORSDOF 1
