REMARK  Name = 
REMARK  12 active torsions:
REMARK  status: ('A' for Active; 'I' for Inactive)
REMARK    1  A    between atoms: C_1  and  C_2
REMARK    2  A    between atoms: C_2  and  O_3
REMARK    3  A    between atoms: C_2  and  C_4
REMARK    4  A    between atoms: C_2  and  C_6
REMARK    5  A    between atoms: C_6  and  C_7
REMARK    6  A    between atoms: C_7  and  O_8
REMARK    7  A    between atoms: O_8  and  P_9
REMARK    8  A    between atoms: P_9  and  O_10
REMARK    9  A    between atoms: P_9  and  O_12
REMARK   10  A    between atoms: O_12  and  P_13
REMARK   11  A    between atoms: P_13  and  O_14
REMARK   12  A    between atoms: P_13  and  O_15
REMARK                            x       y       z     vdW  Elec       q    Type
REMARK                         _______ _______ _______ _____ _____    ______ ____
ROOT
ATOM      1  P   UNL     1       6.779  -1.094  -2.780  0.00  0.00    +0.483 P 
ATOM      2  O   UNL     1       5.472  -1.280  -3.557  0.00  0.00    -0.227 OA
ENDROOT
BRANCH   1   3
ATOM      3  O   UNL     1       6.057   0.276  -2.009  0.00  0.00    -0.302 OA
ATOM      4  H   UNL     1       5.096   0.132  -2.113  0.00  0.00    +0.222 HD
ENDBRANCH   1   3
BRANCH   1   5
ATOM      5  O   UNL     1       6.672  -1.930  -1.364  0.00  0.00    -0.286 OA
BRANCH   5   6
ATOM      6  C   UNL     1       5.462  -2.619  -1.106  0.00  0.00    +0.175 C 
BRANCH   6   7
ATOM      7  C   UNL     1       5.544  -3.375   0.219  0.00  0.00    +0.064 C 
BRANCH   7   9
ATOM      8  C   UNL     1       4.371  -4.742   1.969  0.00  0.00    +0.042 C 
ATOM      9  C   UNL     1       4.233  -4.123   0.571  0.00  0.00    +0.075 C 
BRANCH   9  10
ATOM     10  O   UNL     1       3.193  -3.140   0.652  0.00  0.00    -0.388 OA
ATOM     11  H   UNL     1       2.750  -3.065  -0.211  0.00  0.00    +0.210 HD
ENDBRANCH   9  10
BRANCH   9  12
ATOM     12  C   UNL     1       3.921  -5.191  -0.496  0.00  0.00    +0.114 C 
ATOM     13 BR   UNL     1       2.245  -6.135  -0.173  0.00  0.00    -0.089 Br
ENDBRANCH   9  12
ENDBRANCH   7   9
ENDBRANCH   6   7
ENDBRANCH   5   6
ENDBRANCH   1   5
BRANCH   1  14
ATOM     14  O   UNL     1       7.501  -2.464  -3.551  0.00  0.00    -0.186 OA
BRANCH  14  15
ATOM     15  P   UNL     1       9.059  -2.562  -3.750  0.00  0.00    +0.481 P 
ATOM     16  O   UNL     1       9.837  -1.297  -3.642  0.00  0.00    -0.227 OA
BRANCH  15  17
ATOM     17  O   UNL     1       9.204  -3.246  -5.187  0.00  0.00    -0.302 OA
ATOM     18  H   UNL     1       9.196  -2.587  -5.906  0.00  0.00    +0.222 HD
ENDBRANCH  15  17
BRANCH  15  19
ATOM     19  O   UNL     1       9.526  -3.788  -2.841  0.00  0.00    -0.302 OA
ATOM     20  H   UNL     1       9.233  -4.634  -3.226  0.00  0.00    +0.222 HD
ENDBRANCH  15  19
ENDBRANCH  14  15
ENDBRANCH   1  14
TORSDOF 11
