REMARK  Name = 
REMARK  8 active torsions:
REMARK  status: ('A' for Active; 'I' for Inactive)
REMARK    1  A    between atoms: C_1  and  O_2
REMARK    2  A    between atoms: O_2  and  C_3
REMARK    3  A    between atoms: C_5  and  C_6
REMARK    4  A    between atoms: C_7  and  C_8
REMARK    5  A    between atoms: C_8  and  O_9
REMARK    6  A    between atoms: C_8  and  O_10
REMARK    7  A    between atoms: C_12  and  O_13
REMARK    8  A    between atoms: C_14  and  O_15
REMARK                            x       y       z     vdW  Elec       q    Type
REMARK                         _______ _______ _______ _____ _____    ______ ____
ROOT
ATOM      1  C   UNL     1       2.947  -0.975  -0.925  0.00  0.00    +0.166 A 
ATOM      2  C   UNL     1       2.680  -2.336  -0.815  0.00  0.00    +0.201 A 
ATOM      3  C   UNL     1       3.307  -3.245  -1.677  0.00  0.00    +0.163 A 
ATOM      4  C   UNL     1       4.199  -2.820  -2.644  0.00  0.00    +0.057 A 
ATOM      5  C   UNL     1       4.482  -1.457  -2.774  0.00  0.00    -0.018 A 
ATOM      6  C   UNL     1       3.867  -0.548  -1.893  0.00  0.00    +0.057 A 
ENDROOT
BRANCH   1   8
ATOM      7  C   UNL     1       1.114  -0.158   0.328  0.00  0.00    +0.277 C 
ATOM      8  O   UNL     1       2.443   0.031  -0.144  0.00  0.00    -0.491 OA
ENDBRANCH   1   8
BRANCH   2   9
ATOM      9  O   UNL     1       1.839  -2.852   0.132  0.00  0.00    -0.501 OA
ATOM     10  H   UNL     1       1.883  -3.821   0.003  0.00  0.00    +0.292 HD
ENDBRANCH   2   9
BRANCH   3  11
ATOM     11  O   UNL     1       3.006  -4.576  -1.508  0.00  0.00    -0.503 OA
ATOM     12  H   UNL     1       3.498  -5.082  -2.180  0.00  0.00    +0.292 HD
ENDBRANCH   3  11
BRANCH   5  13
ATOM     13  C   UNL     1       5.419  -0.932  -3.780  0.00  0.00    +0.011 C 
ATOM     14  C   UNL     1       5.637  -1.505  -4.975  0.00  0.00    +0.060 C 
BRANCH  14  15
ATOM     15  C   UNL     1       6.489  -0.910  -6.040  0.00  0.00    +0.371 C 
BRANCH  15  16
ATOM     16  O   UNL     1       5.676  -0.837  -7.190  0.00  0.00    -0.504 OA
ATOM     17  H   UNL     1       5.611   0.105  -7.415  0.00  0.00    +0.288 HD
ENDBRANCH  15  16
BRANCH  15  18
ATOM     18  O   UNL     1       7.610  -1.718  -6.304  0.00  0.00    -0.504 OA
ATOM     19  H   UNL     1       7.466  -2.574  -5.875  0.00  0.00    +0.288 HD
ENDBRANCH  15  18
ENDBRANCH  14  15
ENDBRANCH   5  13
TORSDOF 7
