REMARK  Name = 
REMARK  5 active torsions:
REMARK  status: ('A' for Active; 'I' for Inactive)
REMARK    1  A    between atoms: C_1  and  C_2
REMARK    2  A    between atoms: C_5  and  O_7
REMARK    3  A    between atoms: C_8  and  O_10
REMARK    4  A    between atoms: C_11  and  O_13
REMARK    5  A    between atoms: C_14  and  O_16
REMARK                            x       y       z     vdW  Elec       q    Type
REMARK                         _______ _______ _______ _____ _____    ______ ____
ROOT
ATOM      1  C   UNL     1       0.892   0.064   0.448  0.00  0.00    +0.041 C 
ATOM      2  C   UNL     1       2.370   0.010   0.051  0.00  0.00    +0.149 C 
ATOM      3  C   UNL     1       2.835   1.070  -0.972  0.00  0.00    +0.174 C 
ATOM      4  C   UNL     1       2.498   0.679  -2.417  0.00  0.00    +0.179 C 
ATOM      5  C   UNL     1       3.032  -0.725  -2.709  0.00  0.00    +0.201 C 
ATOM      6  C   UNL     1       2.470  -1.713  -1.661  0.00  0.00    +0.279 C 
ATOM      7  O   UNL     1       2.756  -1.318  -0.319  0.00  0.00    -0.343 OA
ENDROOT
BRANCH   3   8
ATOM      8  O   UNL     1       2.331   2.379  -0.691  0.00  0.00    -0.387 OA
ATOM      9  H   UNL     1       1.362   2.323  -0.624  0.00  0.00    +0.210 HD
ENDBRANCH   3   8
BRANCH   4  10
ATOM     10  O   UNL     1       1.076   0.711  -2.631  0.00  0.00    -0.386 OA
ATOM     11  H   UNL     1       0.829   1.655  -2.660  0.00  0.00    +0.210 HD
ENDBRANCH   4  10
BRANCH   5  12
ATOM     12  O   UNL     1       4.465  -0.687  -2.702  0.00  0.00    -0.384 OA
ATOM     13  H   UNL     1       4.788  -1.605  -2.729  0.00  0.00    +0.210 HD
ENDBRANCH   5  12
BRANCH   6  14
ATOM     14  O   UNL     1       1.087  -1.969  -1.850  0.00  0.00    -0.365 OA
ATOM     15  H   UNL     1       0.697  -1.149  -2.214  0.00  0.00    +0.213 HD
ENDBRANCH   6  14
TORSDOF 4
