REMARK  Name = 
REMARK  18 active torsions:
REMARK  status: ('A' for Active; 'I' for Inactive)
REMARK    1  A    between atoms: C_1  and  N_2
REMARK    2  A    between atoms: N_2  and  C_3
REMARK    3  A    between atoms: C_5  and  O_7
REMARK    4  A    between atoms: C_8  and  O_10
REMARK    5  A    between atoms: O_10  and  C_11
REMARK    6  A    between atoms: C_13  and  N_15
REMARK    7  A    between atoms: C_17  and  N_19
REMARK    8  A    between atoms: C_20  and  O_22
REMARK    9  A    between atoms: O_22  and  C_23
REMARK   10  A    between atoms: C_26  and  C_28
REMARK   11  A    between atoms: C_28  and  C_30
REMARK   12  A    between atoms: C_28  and  O_31
REMARK   13  A    between atoms: C_32  and  O_34
REMARK   14  A    between atoms: C_35  and  O_37
REMARK   15  A    between atoms: C_38  and  N_40
REMARK   16  A    between atoms: C_41  and  O_43
REMARK   17  A    between atoms: C_46  and  C_47
REMARK   18  A    between atoms: C_46  and  O_48
REMARK                            x       y       z     vdW  Elec       q    Type
REMARK                         _______ _______ _______ _____ _____    ______ ____
ROOT
ATOM      1  C   UNL     1       1.801  -4.092   0.684  0.00  0.00    +0.169 C 
ATOM      2  C   UNL     1       2.049  -5.419  -0.026  0.00  0.00    +0.175 C 
ATOM      3  C   UNL     1       1.874  -6.688   0.827  0.00  0.00    +0.169 C 
ATOM      4  C   UNL     1       2.466  -6.496   2.259  0.00  0.00    +0.084 C 
ATOM      5  C   UNL     1       2.056  -5.158   2.895  0.00  0.00    +0.042 C 
ATOM      6  C   UNL     1       2.509  -3.971   2.039  0.00  0.00    +0.084 C 
ENDROOT
BRANCH   4   7
ATOM      7  N   UNL     1       2.027  -7.550   3.188  0.00  0.00    -0.325 NA
ATOM      8  H   UNL     1       2.373  -7.367   4.124  0.00  0.00    +0.119 HD
ATOM      9  H   UNL     1       1.009  -7.587   3.241  0.00  0.00    +0.119 HD
ENDBRANCH   4   7
BRANCH   6  10
ATOM     10  N   UNL     1       2.181  -2.724   2.755  0.00  0.00    -0.325 NA
ATOM     11  H   UNL     1       1.215  -2.745   3.086  0.00  0.00    +0.119 HD
ATOM     12  H   UNL     1       2.229  -1.937   2.108  0.00  0.00    +0.119 HD
ENDBRANCH   6  10
BRANCH   2  13
ATOM     13  O   UNL     1       1.133  -5.482  -1.143  0.00  0.00    -0.387 OA
ATOM     14  H   UNL     1       1.129  -4.590  -1.556  0.00  0.00    +0.210 HD
ENDBRANCH   2  13
BRANCH   1  15
ATOM     15  O   UNL     1       1.979  -2.994  -0.197  0.00  0.00    -0.341 OA
BRANCH  15  21
ATOM     16  C   UNL     1       2.077  -2.281  -3.107  0.00  0.00    +0.121 C 
ATOM     17  C   UNL     1       3.146  -3.214  -3.774  0.00  0.00    +0.104 C 
ATOM     18  C   UNL     1       2.594  -3.978  -4.990  0.00  0.00    +0.045 C 
ATOM     19  C   UNL     1       3.688  -4.192  -2.711  0.00  0.00    +0.199 C 
ATOM     20  O   UNL     1       4.029  -3.640  -1.424  0.00  0.00    -0.346 OA
ATOM     21  C   UNL     1       3.194  -2.640  -0.840  0.00  0.00    +0.281 C 
ATOM     22  C   UNL     1       2.787  -1.584  -1.894  0.00  0.00    +0.190 C 
BRANCH  16  24
ATOM     23  C   UNL     1      -0.249  -2.466  -2.144  0.00  0.00    +0.101 C 
ATOM     24  N   UNL     1       0.867  -3.100  -2.821  0.00  0.00    -0.311 NA
ATOM     25  H   UNL     1       0.503  -3.470  -3.702  0.00  0.00    +0.122 HD
ENDBRANCH  16  24
BRANCH  17  26
ATOM     26  O   UNL     1       4.241  -2.457  -4.322  0.00  0.00    -0.385 OA
ATOM     27  H   UNL     1       4.486  -1.783  -3.656  0.00  0.00    +0.210 HD
ENDBRANCH  17  26
BRANCH  22  28
ATOM     28  O   UNL     1       3.947  -0.854  -2.357  0.00  0.00    -0.385 OA
ATOM     29  H   UNL     1       4.581  -0.788  -1.617  0.00  0.00    +0.210 HD
ENDBRANCH  22  28
ENDBRANCH  15  21
ENDBRANCH   1  15
BRANCH   3  30
ATOM     30  O   UNL     1       2.516  -7.725   0.040  0.00  0.00    -0.342 OA
BRANCH  30  31
ATOM     31  C   UNL     1       2.431  -9.055   0.535  0.00  0.00    +0.270 C 
ATOM     32  C   UNL     1       3.478  -9.971  -0.165  0.00  0.00    +0.139 C 
ATOM     33  C   UNL     1       2.994 -10.466  -1.538  0.00  0.00    +0.167 C 
ATOM     34  C   UNL     1       1.526 -10.911  -1.552  0.00  0.00    +0.176 C 
ATOM     35  C   UNL     1       0.562 -10.043  -0.720  0.00  0.00    +0.180 C 
ATOM     36  O   UNL     1       1.106  -9.583   0.530  0.00  0.00    -0.341 OA
BRANCH  32  37
ATOM     37  N   UNL     1       3.851 -11.108   0.720  0.00  0.00    -0.321 NA
ATOM     38  H   UNL     1       3.017 -11.696   0.834  0.00  0.00    +0.119 HD
ATOM     39  H   UNL     1       4.537 -11.699   0.254  0.00  0.00    +0.119 HD
ENDBRANCH  32  37
BRANCH  33  40
ATOM     40  O   UNL     1       3.242  -9.499  -2.561  0.00  0.00    -0.387 OA
ATOM     41  H   UNL     1       4.208  -9.350  -2.584  0.00  0.00    +0.210 HD
ENDBRANCH  33  40
BRANCH  34  42
ATOM     42  O   UNL     1       1.488 -12.257  -1.018  0.00  0.00    -0.387 OA
ATOM     43  H   UNL     1       0.587 -12.598  -1.171  0.00  0.00    +0.210 HD
ENDBRANCH  34  42
BRANCH  35  44
ATOM     44  C   UNL     1      -0.177  -8.898  -1.455  0.00  0.00    +0.143 C 
ATOM     45  C   UNL     1      -1.057  -9.360  -2.616  0.00  0.00    +0.040 C 
BRANCH  44  46
ATOM     46  O   UNL     1      -1.091  -8.293  -0.516  0.00  0.00    -0.389 OA
ATOM     47  H   UNL     1      -0.620  -8.300   0.337  0.00  0.00    +0.210 HD
ENDBRANCH  44  46
ENDBRANCH  35  44
ENDBRANCH  30  31
ENDBRANCH   3  30
TORSDOF 15
