REMARK  Name = 
REMARK  13 active torsions:
REMARK  status: ('A' for Active; 'I' for Inactive)
REMARK    1  A    between atoms: C_1  and  C_2
REMARK    2  A    between atoms: C_2  and  O_3
REMARK    3  A    between atoms: O_3  and  C_4
REMARK    4  A    between atoms: C_4  and  C_6
REMARK    5  A    between atoms: C_6  and  N_7
REMARK    6  A    between atoms: N_7  and  C_8
REMARK    7  A    between atoms: C_8  and  C_10
REMARK    8  A    between atoms: C_8  and  C_31
REMARK    9  A    between atoms: C_15  and  C_17
REMARK   10  A    between atoms: N_19  and  C_20
REMARK   11  A    between atoms: C_20  and  C_21
REMARK   12  A    between atoms: C_24  and  C_27
REMARK   13  A    between atoms: N_29  and  O_30
REMARK                            x       y       z     vdW  Elec       q    Type
REMARK                         _______ _______ _______ _____ _____    ______ ____
ROOT
ATOM      1  C   UNL     1       6.141   3.796  -3.838  0.00  0.00    +0.233 C 
ATOM      2  N   UNL     1       4.804   4.066  -3.842  0.00  0.00    -0.289 N 
ATOM      3  C   UNL     1       4.135   5.354  -4.039  0.00  0.00    +0.163 C 
ATOM      4  C   UNL     1       2.957   4.514  -4.575  0.00  0.00    +0.051 C 
ATOM      5  C   UNL     1       3.595   3.286  -3.911  0.00  0.00    +0.111 C 
ATOM      6  O   UNL     1       6.970   4.702  -3.952  0.00  0.00    -0.274 OA
ENDROOT
BRANCH   3   7
ATOM      7  C   UNL     1       3.889   6.199  -2.733  0.00  0.00    +0.234 C 
ATOM      8  N   UNL     1       2.928   7.187  -2.884  0.00  0.00    -0.310 N 
ATOM      9  H   UNL     1       2.448   7.285  -3.766  0.00  0.00    +0.149 HD
ATOM     10  O   UNL     1       4.456   6.022  -1.653  0.00  0.00    -0.274 OA
BRANCH   8  11
ATOM     11  C   UNL     1       2.524   8.050  -1.796  0.00  0.00    +0.139 C 
BRANCH  11  12
ATOM     12  C   UNL     1       1.083   7.803  -1.419  0.00  0.00    -0.030 A 
ATOM     13  C   UNL     1       0.044   8.503  -2.044  0.00  0.00    +0.006 A 
ATOM     14  C   UNL     1      -1.289   8.247  -1.707  0.00  0.00    +0.016 A 
ATOM     15  C   UNL     1      -1.608   7.284  -0.740  0.00  0.00    +0.069 A 
ATOM     16  C   UNL     1      -0.570   6.598  -0.099  0.00  0.00    +0.016 A 
ATOM     17  C   UNL     1       0.763   6.847  -0.445  0.00  0.00    +0.006 A 
BRANCH  15  18
ATOM     18  C   UNL     1      -3.048   6.996  -0.420  0.00  0.00    +0.362 C 
ATOM     19  N   UNL     1      -3.975   7.675  -1.039  0.00  0.00    +0.151 NA
ATOM     20  N   UNL     1      -3.369   6.018   0.494  0.00  0.00    -0.243 N 
ATOM     21  H   UNL     1      -4.370   5.840   0.449  0.00  0.00    +0.289 HD
ATOM     22  H   UNL     1      -2.835   5.162   0.426  0.00  0.00    +0.289 HD
BRANCH  19  23
ATOM     23  O   UNL     1      -5.258   7.244  -0.658  0.00  0.00    -0.311 OA
ATOM     24  H   UNL     1      -5.832   7.856  -1.155  0.00  0.00    +0.361 HD
ENDBRANCH  19  23
ENDBRANCH  15  18
ENDBRANCH  11  12
ENDBRANCH   8  11
ENDBRANCH   3   7
BRANCH   1  25
ATOM     25  C   UNL     1       6.617   2.315  -3.761  0.00  0.00    +0.144 C 
BRANCH  25  26
ATOM     26  C   UNL     1       6.229   1.566  -2.450  0.00  0.00    +0.015 C 
ATOM     27  C   UNL     1       6.518   2.350  -1.152  0.00  0.00    +0.005 C 
ATOM     28  C   UNL     1       7.994   2.413  -0.767  0.00  0.00    +0.000 C 
ATOM     29  C   UNL     1       8.685   1.053  -0.779  0.00  0.00    +0.000 C 
ATOM     30  C   UNL     1       8.406   0.264  -2.052  0.00  0.00    +0.000 C 
ATOM     31  C   UNL     1       6.905   0.176  -2.328  0.00  0.00    +0.005 C 
ENDBRANCH  25  26
BRANCH  25  32
ATOM     32  N   UNL     1       6.102   1.556  -4.927  0.00  0.00    -0.296 NA
ATOM     33  H   UNL     1       6.393   0.579  -4.867  0.00  0.00    +0.123 HD
BRANCH  32  34
ATOM     34  C   UNL     1       6.578   2.066  -6.226  0.00  0.00    +0.203 C 
BRANCH  34  35
ATOM     35  C   UNL     1       6.264   1.040  -7.318  0.00  0.00    +0.321 C 
ATOM     36  O   UNL     1       5.844  -0.095  -7.120  0.00  0.00    -0.249 OA
BRANCH  35  37
ATOM     37  O   UNL     1       6.650   1.533  -8.529  0.00  0.00    -0.464 OA
BRANCH  37  39
ATOM     38  C   UNL     1       8.199  -0.072  -9.401  0.00  0.00    +0.048 C 
ATOM     39  C   UNL     1       6.820   0.544  -9.555  0.00  0.00    +0.229 C 
ENDBRANCH  37  39
ENDBRANCH  35  37
ENDBRANCH  34  35
ENDBRANCH  32  34
ENDBRANCH  25  32
ENDBRANCH   1  25
TORSDOF 12
