REMARK  Name = 
REMARK  5 active torsions:
REMARK  status: ('A' for Active; 'I' for Inactive)
REMARK    1  A    between atoms: C_1  and  C_2
REMARK    2  A    between atoms: C_2  and  C_3
REMARK    3  A    between atoms: C_2  and  C_6
REMARK    4  A    between atoms: C_3  and  O_4
REMARK    5  A    between atoms: C_11  and  C_13
REMARK                            x       y       z     vdW  Elec       q    Type
REMARK                         _______ _______ _______ _____ _____    ______ ____
ROOT
ATOM      1  C   UNL     1       3.033   1.505  -0.308  0.00  0.00    -0.032 A 
ATOM      2  C   UNL     1       2.296   2.638   0.096  0.00  0.00    +0.008 A 
ATOM      3  C   UNL     1       2.679   3.941  -0.259  0.00  0.00    +0.049 A 
ATOM      4  C   UNL     1       3.830   4.045  -1.027  0.00  0.00    +0.156 A 
ATOM      5  O   UNL     1       4.376   5.180  -1.551  0.00  0.00    -0.435 OA
ATOM      6  C   UNL     1       5.467   4.730  -2.256  0.00  0.00    +0.228 A 
ATOM      7  N   UNL     1       5.666   3.424  -2.177  0.00  0.00    -0.209 NA
ATOM      8  C   UNL     1       4.614   2.976  -1.418  0.00  0.00    +0.110 A 
ATOM      9  C   UNL     1       4.230   1.679  -1.041  0.00  0.00    +0.036 A 
ENDROOT
BRANCH   6  10
ATOM     10  C   UNL     1       6.195   5.728  -3.043  0.00  0.00    +0.037 A 
ATOM     11  C   UNL     1       7.302   5.332  -3.811  0.00  0.00    +0.014 A 
ATOM     12  C   UNL     1       7.979   6.249  -4.625  0.00  0.00    +0.021 A 
ATOM     13  C   UNL     1       7.553   7.573  -4.676  0.00  0.00    +0.041 A 
ATOM     14 CL   UNL     1       8.366   8.696  -5.695  0.00  0.00    -0.084 Cl
ATOM     15  C   UNL     1       6.466   7.991  -3.912  0.00  0.00    +0.021 A 
ATOM     16  C   UNL     1       5.792   7.072  -3.098  0.00  0.00    +0.014 A 
ENDBRANCH   6  10
BRANCH   1  18
ATOM     17  C   UNL     1       3.086  -0.352   1.393  0.00  0.00    +0.024 C 
ATOM     18  C   UNL     1       2.561   0.093   0.028  0.00  0.00    +0.124 C 
BRANCH  18  19
ATOM     19  C   UNL     1       1.043  -0.086  -0.052  0.00  0.00    +0.312 C 
ATOM     20  O   UNL     1       0.343  -0.525   0.846  0.00  0.00    -0.250 OA
BRANCH  19  21
ATOM     21  O   UNL     1       0.518   0.265  -1.251  0.00  0.00    -0.480 OA
ATOM     22  H   UNL     1       1.175   0.622  -1.879  0.00  0.00    +0.295 HD
ENDBRANCH  19  21
ENDBRANCH  18  19
ENDBRANCH   1  18
TORSDOF 4
