REMARK  Name = 
REMARK  8 active torsions:
REMARK  status: ('A' for Active; 'I' for Inactive)
REMARK    1  A    between atoms: O_1  and  O_2
REMARK    2  A    between atoms: O_2  and  C_3
REMARK    3  A    between atoms: C_3  and  C_4
REMARK    4  A    between atoms: C_4  and  C_5
REMARK    5  A    between atoms: C_17  and  C_19
REMARK    6  A    between atoms: C_19  and  C_20
REMARK    7  A    between atoms: C_27  and  C_32
REMARK    8  A    between atoms: C_35  and  O_36
REMARK                            x       y       z     vdW  Elec       q    Type
REMARK                         _______ _______ _______ _____ _____    ______ ____
ROOT
ATOM      1  C   UNL     1       2.966   0.755  -0.827  0.00  0.00    +0.381 C 
ATOM      2  C   UNL     1       4.394   1.324  -0.787  0.00  0.00    +0.391 C 
ATOM      3  O   UNL     1       5.441   0.689  -0.731  0.00  0.00    -0.239 OA
ATOM      4  N   UNL     1       4.243   2.674  -0.847  0.00  0.00    -0.123 N 
ATOM      5  C   UNL     1       2.923   2.981  -0.813  0.00  0.00    +0.320 C 
ATOM      6  C   UNL     1       2.556   4.471  -0.754  0.00  0.00    +0.192 C 
ATOM      7  N   UNL     1       3.642   5.277  -1.353  0.00  0.00    -0.327 N 
ATOM      8  H   UNL     1       3.452   6.254  -1.547  0.00  0.00    +0.147 HD
ATOM      9  C   UNL     1       4.968   4.869  -1.292  0.00  0.00    +0.073 C 
ATOM     10  C   UNL     1       5.253   3.587  -0.997  0.00  0.00    +0.223 C 
ATOM     11  N   UNL     1       2.099   1.987  -0.746  0.00  0.00    -0.033 NA
ENDROOT
BRANCH   9  12
ATOM     12  C   UNL     1       6.053   5.822  -1.646  0.00  0.00    -0.001 A 
ATOM     13  C   UNL     1       5.926   7.202  -1.422  0.00  0.00    +0.013 A 
ATOM     14  C   UNL     1       6.944   8.087  -1.800  0.00  0.00    +0.046 A 
ATOM     15  C   UNL     1       8.104   7.602  -2.388  0.00  0.00    +0.117 A 
ATOM     16  C   UNL     1       8.262   6.245  -2.621  0.00  0.00    +0.046 A 
ATOM     17  C   UNL     1       7.236   5.367  -2.262  0.00  0.00    +0.013 A 
BRANCH  15  18
ATOM     18  O   UNL     1       9.075   8.495  -2.729  0.00  0.00    -0.507 OA
ATOM     19  H   UNL     1       9.836   8.006  -3.082  0.00  0.00    +0.292 HD
ENDBRANCH  15  18
ENDBRANCH   9  12
BRANCH   1  20
ATOM     20  O   UNL     1       2.810  -0.234   0.197  0.00  0.00    -0.169 OA
BRANCH  20  21
ATOM     21  O   UNL     1       3.084   0.418   1.478  0.00  0.00    -0.245 OA
ATOM     22  H   UNL     1       3.854  -0.133   1.716  0.00  0.00    +0.253 HD
ENDBRANCH  20  21
ENDBRANCH   1  20
BRANCH   6  23
ATOM     23  C   UNL     1       1.169   4.827  -1.319  0.00  0.00    +0.069 C 
BRANCH  23  24
ATOM     24  C   UNL     1       0.826   4.377  -2.723  0.00  0.00    -0.045 A 
ATOM     25  C   UNL     1       1.782   4.254  -3.737  0.00  0.00    +0.004 A 
ATOM     26  C   UNL     1       1.446   3.677  -4.964  0.00  0.00    +0.000 A 
ATOM     27  C   UNL     1       0.144   3.258  -5.207  0.00  0.00    +0.000 A 
ATOM     28  C   UNL     1      -0.843   3.485  -4.254  0.00  0.00    +0.000 A 
ATOM     29  C   UNL     1      -0.507   4.052  -3.023  0.00  0.00    +0.004 A 
ENDBRANCH  23  24
ENDBRANCH   6  23
BRANCH   1  30
ATOM     30  C   UNL     1       2.824   0.072  -2.215  0.00  0.00    +0.138 C 
BRANCH  30  31
ATOM     31  C   UNL     1       1.498  -0.594  -2.518  0.00  0.00    -0.039 A 
ATOM     32  C   UNL     1       0.316   0.155  -2.535  0.00  0.00    +0.012 A 
ATOM     33  C   UNL     1      -0.918  -0.425  -2.858  0.00  0.00    -0.018 A 
ATOM     34  C   UNL     1      -0.982  -1.798  -3.172  0.00  0.00    -0.018 A 
ATOM     35  C   UNL     1      -2.230  -2.364  -3.485  0.00  0.00    +0.008 A 
ATOM     36  C   UNL     1      -3.386  -1.580  -3.509  0.00  0.00    +0.001 A 
ATOM     37  C   UNL     1      -3.314  -0.223  -3.214  0.00  0.00    +0.001 A 
ATOM     38  C   UNL     1       0.205  -2.549  -3.170  0.00  0.00    +0.009 A 
ATOM     39  C   UNL     1      -2.088   0.346  -2.877  0.00  0.00    +0.008 A 
ATOM     40  C   UNL     1       1.432  -1.952  -2.854  0.00  0.00    +0.004 A 
ENDBRANCH  30  31
ENDBRANCH   1  30
TORSDOF 8
