REMARK  Name = 
REMARK  14 active torsions:
REMARK  status: ('A' for Active; 'I' for Inactive)
REMARK    1  A    between atoms: N_8  and  C_9
REMARK    2  A    between atoms: C_12  and  C_14
REMARK    3  A    between atoms: C_14  and  O_15
REMARK    4  A    between atoms: O_15  and  P_16
REMARK    5  A    between atoms: P_16  and  O_17
REMARK    6  A    between atoms: P_16  and  O_19
REMARK    7  A    between atoms: O_19  and  P_20
REMARK    8  A    between atoms: P_20  and  O_21
REMARK    9  A    between atoms: P_20  and  O_22
REMARK   10  A    between atoms: C_24  and  O_26
REMARK   11  A    between atoms: O_26  and  P_27
REMARK   12  A    between atoms: P_27  and  O_28
REMARK   13  A    between atoms: P_27  and  O_29
REMARK   14  A    between atoms: C_31  and  O_33
REMARK                            x       y       z     vdW  Elec       q    Type
REMARK                         _______ _______ _______ _____ _____    ______ ____
ROOT
ATOM      1  C   UNL     1       7.225  -6.842  -5.366  0.00  0.00    +0.253 C 
ATOM      2  C   UNL     1       8.745  -7.063  -5.213  0.00  0.00    +0.196 C 
ATOM      3  C   UNL     1       9.064  -6.695  -3.760  0.00  0.00    +0.194 C 
ATOM      4  C   UNL     1       7.696  -6.371  -3.171  0.00  0.00    +0.179 C 
ATOM      5  O   UNL     1       6.741  -7.043  -4.012  0.00  0.00    -0.346 OA
ENDROOT
BRANCH   1  17
ATOM      6  N   UNL     1      10.317  -3.701  -8.273  0.00  0.00    -0.329 N 
ATOM      7  H   UNL     1      10.861  -2.851  -8.178  0.00  0.00    +0.145 HD
ATOM      8  H   UNL     1      10.852  -4.502  -7.949  0.00  0.00    +0.145 HD
ATOM      9  C   UNL     1       9.084  -3.686  -7.701  0.00  0.00    +0.195 A 
ATOM     10  N   UNL     1       8.409  -2.478  -7.696  0.00  0.00    -0.293 N 
ATOM     11  H   UNL     1       8.813  -1.679  -8.145  0.00  0.00    +0.172 HD
ATOM     12  C   UNL     1       7.152  -2.285  -7.155  0.00  0.00    +0.280 A 
ATOM     13  O   UNL     1       6.592  -1.196  -7.182  0.00  0.00    -0.265 OA
ATOM     14  C   UNL     1       6.623  -3.493  -6.530  0.00  0.00    +0.172 A 
ATOM     15  N   UNL     1       5.465  -3.710  -5.840  0.00  0.00    -0.229 NA
ATOM     16  C   UNL     1       5.557  -4.966  -5.446  0.00  0.00    +0.203 A 
ATOM     17  N   UNL     1       6.757  -5.541  -5.809  0.00  0.00    -0.285 N 
ATOM     18  C   UNL     1       7.404  -4.619  -6.579  0.00  0.00    +0.171 A 
ATOM     19  N   UNL     1       8.607  -4.777  -7.174  0.00  0.00    -0.196 NA
ENDBRANCH   1  17
BRANCH   2  20
ATOM     20  O   UNL     1       9.118  -8.448  -5.380  0.00  0.00    -0.385 OA
ATOM     21  H   UNL     1       8.448  -9.014  -4.957  0.00  0.00    +0.210 HD
ENDBRANCH   2  20
BRANCH   3  22
ATOM     22  O   UNL     1       9.990  -5.612  -3.630  0.00  0.00    -0.278 OA
BRANCH  22  23
ATOM     23  P   UNL     1      11.485  -6.007  -4.405  0.00  0.00    +0.473 P 
ATOM     24  O   UNL     1      12.824  -6.360  -5.099  0.00  0.00    -0.228 OA
BRANCH  23  25
ATOM     25  O   UNL     1      12.149  -5.024  -3.276  0.00  0.00    -0.303 OA
ATOM     26  H   UNL     1      12.150  -5.439  -2.395  0.00  0.00    +0.222 HD
ENDBRANCH  23  25
BRANCH  23  27
ATOM     27  O   UNL     1      11.087  -4.772  -5.402  0.00  0.00    -0.303 OA
ATOM     28  H   UNL     1      10.997  -3.986  -4.834  0.00  0.00    +0.222 HD
ENDBRANCH  23  27
ENDBRANCH  22  23
ENDBRANCH   3  22
BRANCH   4  29
ATOM     29  C   UNL     1       7.531  -6.850  -1.743  0.00  0.00    +0.206 C 
BRANCH  29  30
ATOM     30  O   UNL     1       8.578  -6.312  -0.972  0.00  0.00    -0.284 OA
BRANCH  30  31
ATOM     31  P   UNL     1       8.507  -6.510   0.604  0.00  0.00    +0.483 P 
ATOM     32  O   UNL     1       7.243  -6.112   1.275  0.00  0.00    -0.227 OA
BRANCH  31  33
ATOM     33  O   UNL     1       8.804  -8.078   0.777  0.00  0.00    -0.302 OA
ATOM     34  H   UNL     1       7.976  -8.601   0.795  0.00  0.00    +0.222 HD
ENDBRANCH  31  33
BRANCH  31  35
ATOM     35  O   UNL     1       9.857  -5.836   1.158  0.00  0.00    -0.186 OA
BRANCH  35  36
ATOM     36  P   UNL     1       9.913  -6.250   2.837  0.00  0.00    +0.481 P 
ATOM     37  O   UNL     1       9.964  -6.621   4.339  0.00  0.00    -0.227 OA
BRANCH  36  38
ATOM     38  O   UNL     1      10.364  -4.689   3.026  0.00  0.00    -0.302 OA
ATOM     39  H   UNL     1      10.837  -4.383   2.234  0.00  0.00    +0.222 HD
ENDBRANCH  36  38
BRANCH  36  40
ATOM     40  O   UNL     1      11.399  -6.848   2.486  0.00  0.00    -0.302 OA
ATOM     41  H   UNL     1      11.334  -7.766   2.161  0.00  0.00    +0.222 HD
ENDBRANCH  36  40
ENDBRANCH  35  36
ENDBRANCH  31  35
ENDBRANCH  30  31
ENDBRANCH  29  30
ENDBRANCH   4  29
TORSDOF 14
