REMARK  Name = 
REMARK  4 active torsions:
REMARK  status: ('A' for Active; 'I' for Inactive)
REMARK    1  A    between atoms: C_2  and  N_3
REMARK    2  A    between atoms: C_2  and  C_4
REMARK    3  A    between atoms: C_2  and  C_11
REMARK    4  A    between atoms: C_4  and  C_5
REMARK                            x       y       z     vdW  Elec       q    Type
REMARK                         _______ _______ _______ _____ _____    ______ ____
ROOT
ATOM      1  C   UNL     1       1.949   0.125   0.128  0.00  0.00    +0.142 C 
ENDROOT
BRANCH   1   2
ATOM      2  C   UNL     1       2.530  -1.203   0.654  0.00  0.00    +0.228 C 
ATOM      3  O   UNL     1       1.831  -2.138   1.033  0.00  0.00    -0.274 OA
ATOM      4  N   UNL     1       3.892  -1.273   0.759  0.00  0.00    -0.328 N 
ATOM      5  H   UNL     1       4.268  -2.176   1.018  0.00  0.00    +0.145 HD
ATOM      6  H   UNL     1       4.501  -0.641   0.259  0.00  0.00    +0.145 HD
ENDBRANCH   1   2
BRANCH   1   7
ATOM      7  N   UNL     1       2.308   1.214   1.071  0.00  0.00    -0.320 NA
ATOM      8  H   UNL     1       1.906   0.978   1.981  0.00  0.00    +0.119 HD
ATOM      9  H   UNL     1       3.316   1.210   1.217  0.00  0.00    +0.119 HD
ENDBRANCH   1   7
BRANCH   1  10
ATOM     10  C   UNL     1       2.432   0.453  -1.297  0.00  0.00    +0.063 C 
BRANCH  10  11
ATOM     11  C   UNL     1       2.129  -0.594  -2.351  0.00  0.00    -0.045 A 
ATOM     12  C   UNL     1       3.045  -0.813  -3.391  0.00  0.00    +0.004 A 
ATOM     13  C   UNL     1       2.791  -1.772  -4.376  0.00  0.00    +0.000 A 
ATOM     14  C   UNL     1       1.615  -2.515  -4.341  0.00  0.00    +0.000 A 
ATOM     15  C   UNL     1       0.684  -2.287  -3.332  0.00  0.00    +0.000 A 
ATOM     16  C   UNL     1       0.932  -1.326  -2.352  0.00  0.00    +0.004 A 
ENDBRANCH  10  11
ENDBRANCH   1  10
TORSDOF 4
