REMARK  Name = 
REMARK  6 active torsions:
REMARK  status: ('A' for Active; 'I' for Inactive)
REMARK    1  A    between atoms: O_1  and  C_2
REMARK    2  A    between atoms: C_2  and  C_4
REMARK    3  A    between atoms: C_4  and  O_5
REMARK    4  A    between atoms: O_5  and  C_6
REMARK    5  A    between atoms: C_11  and  C_14
REMARK    6  A    between atoms: C_14  and  C_16
REMARK                            x       y       z     vdW  Elec       q    Type
REMARK                         _______ _______ _______ _____ _____    ______ ____
ROOT
ATOM      1  C   UNL     1       5.307   1.583  -1.319  0.00  0.00    +0.141 A 
ATOM      2  C   UNL     1       5.059   2.917  -1.621  0.00  0.00    +0.048 A 
ATOM      3  C   UNL     1       6.019   3.654  -2.320  0.00  0.00    +0.017 A 
ATOM      4  C   UNL     1       7.265   3.093  -2.675  0.00  0.00    +0.043 A 
ATOM      5  C   UNL     1       7.557   1.781  -2.266  0.00  0.00    +0.074 A 
ATOM      6 CL   UNL     1       9.170   1.135  -2.326  0.00  0.00    -0.081 Cl
ATOM      7  C   UNL     1       6.551   1.014  -1.647  0.00  0.00    +0.101 A 
ATOM      8 CL   UNL     1       6.807  -0.670  -1.270  0.00  0.00    -0.078 Cl
ENDROOT
BRANCH   4   9
ATOM      9  C   UNL     1       8.215   4.010  -3.377  0.00  0.00    +0.201 C 
ATOM     10  O   UNL     1       8.147   5.195  -3.052  0.00  0.00    -0.286 OA
BRANCH   9  11
ATOM     11  C   UNL     1       9.181   3.553  -4.361  0.00  0.00    +0.059 A 
ATOM     12  S   UNL     1       8.874   2.281  -5.469  0.00  0.00    -0.093 S 
ATOM     13  C   UNL     1      10.512   2.257  -5.975  0.00  0.00    +0.046 A 
ATOM     14  C   UNL     1      11.214   3.333  -5.481  0.00  0.00    +0.008 A 
ATOM     15  C   UNL     1      10.423   4.118  -4.597  0.00  0.00    +0.019 A 
ENDBRANCH   9  11
ENDBRANCH   4   9
BRANCH   1  16
ATOM     16  O   UNL     1       4.436   0.782  -0.629  0.00  0.00    -0.479 OA
BRANCH  16  17
ATOM     17  C   UNL     1       3.044   1.095  -0.710  0.00  0.00    +0.349 C 
BRANCH  17  18
ATOM     18  C   UNL     1       2.274  -0.167  -0.371  0.00  0.00    +0.343 C 
ATOM     19  O   UNL     1       1.049  -0.227  -0.326  0.00  0.00    -0.247 OA
BRANCH  18  20
ATOM     20  O   UNL     1       3.061  -1.240  -0.116  0.00  0.00    -0.478 OA
ATOM     21  H   UNL     1       4.011  -0.994  -0.197  0.00  0.00    +0.295 HD
ENDBRANCH  18  20
ENDBRANCH  17  18
ENDBRANCH  16  17
ENDBRANCH   1  16
TORSDOF 6
