REMARK  Name = 
REMARK  8 active torsions:
REMARK  status: ('A' for Active; 'I' for Inactive)
REMARK    1  A    between atoms: O_1  and  C_2
REMARK    2  A    between atoms: C_4  and  C_6
REMARK    3  A    between atoms: C_6  and  O_7
REMARK    4  A    between atoms: O_7  and  P_8
REMARK    5  A    between atoms: P_8  and  O_9
REMARK    6  A    between atoms: P_8  and  O_10
REMARK    7  A    between atoms: C_13  and  N_18
REMARK    8  A    between atoms: C_15  and  O_17
REMARK                            x       y       z     vdW  Elec       q    Type
REMARK                         _______ _______ _______ _____ _____    ______ ____
ROOT
ATOM      1  C   UNL     1       2.284  -0.028  -0.040  0.00  0.00    +0.178 C 
ATOM      2  C   UNL     1       2.843  -1.296   0.594  0.00  0.00    +0.195 C 
ATOM      3  C   UNL     1       4.017  -0.787   1.449  0.00  0.00    +0.253 C 
ATOM      4  O   UNL     1       4.058   0.651   1.350  0.00  0.00    -0.346 OA
ATOM      5  C   UNL     1       2.763   1.075   0.890  0.00  0.00    +0.178 C 
ENDROOT
BRANCH   3   6
ATOM      6  N   UNL     1       3.990  -1.146   2.856  0.00  0.00    -0.285 N 
ATOM      7  C   UNL     1       2.918  -1.247   3.699  0.00  0.00    +0.169 A 
ATOM      8  N   UNL     1       1.612  -1.056   3.388  0.00  0.00    -0.218 NA
ATOM      9  C   UNL     1       0.818  -1.252   4.397  0.00  0.00    +0.201 A 
ATOM     10  N   UNL     1       1.219  -1.601   5.673  0.00  0.00    -0.312 N 
ATOM     11  H   UNL     1       0.543  -1.729   6.412  0.00  0.00    +0.170 HD
ATOM     12  C   UNL     1       2.545  -1.793   6.034  0.00  0.00    +0.279 A 
ATOM     13  O   UNL     1       2.864  -2.092   7.181  0.00  0.00    -0.265 OA
ATOM     14  C   UNL     1       3.452  -1.604   4.920  0.00  0.00    +0.172 A 
ATOM     15  N   UNL     1       4.815  -1.737   4.852  0.00  0.00    -0.229 NA
ATOM     16  C   UNL     1       5.110  -1.439   3.602  0.00  0.00    +0.203 A 
ENDBRANCH   3   6
BRANCH   1  17
ATOM     17  O   UNL     1       0.864  -0.069  -0.141  0.00  0.00    -0.386 OA
ATOM     18  H   UNL     1       0.576   0.674  -0.699  0.00  0.00    +0.210 HD
ENDBRANCH   1  17
BRANCH   2  19
ATOM     19  O   UNL     1       3.306  -2.178  -0.445  0.00  0.00    -0.385 OA
ATOM     20  H   UNL     1       3.328  -3.076  -0.070  0.00  0.00    +0.210 HD
ENDBRANCH   2  19
BRANCH   5  21
ATOM     21  C   UNL     1       2.861   2.414   0.164  0.00  0.00    +0.206 C 
BRANCH  21  22
ATOM     22  O   UNL     1       3.238   3.418   1.090  0.00  0.00    -0.284 OA
BRANCH  22  23
ATOM     23  P   UNL     1       3.743   4.814   0.503  0.00  0.00    +0.472 P 
ATOM     24  O   UNL     1       2.757   5.549  -0.335  0.00  0.00    -0.228 OA
BRANCH  23  25
ATOM     25  O   UNL     1       5.085   4.431  -0.266  0.00  0.00    -0.303 OA
ATOM     26  H   UNL     1       5.025   4.634  -1.215  0.00  0.00    +0.222 HD
ENDBRANCH  23  25
BRANCH  23  27
ATOM     27  O   UNL     1       4.265   5.583   1.797  0.00  0.00    -0.303 OA
ATOM     28  H   UNL     1       3.591   5.602   2.495  0.00  0.00    +0.222 HD
ENDBRANCH  23  27
ENDBRANCH  22  23
ENDBRANCH  21  22
ENDBRANCH   5  21
TORSDOF 8
