REMARK  Name = 
REMARK  14 active torsions:
REMARK  status: ('A' for Active; 'I' for Inactive)
REMARK    1  A    between atoms: N_10  and  C_11
REMARK    2  A    between atoms: C_14  and  C_16
REMARK    3  A    between atoms: C_16  and  O_17
REMARK    4  A    between atoms: O_17  and  P_18
REMARK    5  A    between atoms: P_18  and  O_19
REMARK    6  A    between atoms: P_18  and  O_21
REMARK    7  A    between atoms: O_21  and  P_22
REMARK    8  A    between atoms: P_22  and  O_23
REMARK    9  A    between atoms: P_22  and  N_25
REMARK   10  A    between atoms: N_25  and  P_26
REMARK   11  A    between atoms: P_26  and  O_27
REMARK   12  A    between atoms: P_26  and  O_28
REMARK   13  A    between atoms: C_30  and  O_32
REMARK   14  A    between atoms: C_33  and  O_35
REMARK                            x       y       z     vdW  Elec       q    Type
REMARK                         _______ _______ _______ _____ _____    ______ ____
ROOT
ATOM      1  C   UNL     1       4.789   0.904   4.115  0.00  0.00    +0.253 C 
ATOM      2  C   UNL     1       4.968   0.749   5.636  0.00  0.00    +0.195 C 
ATOM      3  C   UNL     1       5.702  -0.593   5.815  0.00  0.00    +0.178 C 
ATOM      4  C   UNL     1       5.929  -1.068   4.381  0.00  0.00    +0.178 C 
ATOM      5  O   UNL     1       5.876   0.115   3.561  0.00  0.00    -0.346 OA
ENDROOT
BRANCH   1  13
ATOM      6  N   UNL     1      -0.429  -1.582   2.263  0.00  0.00    -0.341 N 
ATOM      7  H   UNL     1      -0.393  -1.008   1.425  0.00  0.00    +0.144 HD
ATOM      8  H   UNL     1      -1.340  -1.750   2.673  0.00  0.00    +0.144 HD
ATOM      9  C   UNL     1       0.501  -1.212   3.226  0.00  0.00    +0.147 A 
ATOM     10  C   UNL     1       1.674  -0.495   2.936  0.00  0.00    +0.147 A 
ATOM     11  N   UNL     1       2.205  -0.006   1.760  0.00  0.00    -0.231 NA
ATOM     12  C   UNL     1       3.340   0.558   2.117  0.00  0.00    +0.203 A 
ATOM     13  N   UNL     1       3.568   0.463   3.471  0.00  0.00    -0.286 N 
ATOM     14  C   UNL     1       2.498  -0.195   4.009  0.00  0.00    +0.167 A 
ATOM     15  N   UNL     1       2.289  -0.517   5.291  0.00  0.00    -0.216 NA
ATOM     16  C   UNL     1       1.139  -1.194   5.453  0.00  0.00    +0.225 A 
ATOM     17  N   UNL     1       0.247  -1.554   4.509  0.00  0.00    -0.219 NA
ENDBRANCH   1  13
BRANCH   2  18
ATOM     18  O   UNL     1       5.820   1.814   6.122  0.00  0.00    -0.385 OA
ATOM     19  H   UNL     1       6.663   1.789   5.634  0.00  0.00    +0.210 HD
ENDBRANCH   2  18
BRANCH   3  20
ATOM     20  O   UNL     1       4.917  -1.536   6.535  0.00  0.00    -0.386 OA
ATOM     21  H   UNL     1       5.469  -2.314   6.759  0.00  0.00    +0.210 HD
ENDBRANCH   3  20
BRANCH   4  22
ATOM     22  C   UNL     1       7.240  -1.825   4.159  0.00  0.00    +0.206 C 
BRANCH  22  23
ATOM     23  O   UNL     1       7.304  -3.096   4.809  0.00  0.00    -0.284 OA
BRANCH  23  24
ATOM     24  P   UNL     1       6.065  -4.150   4.573  0.00  0.00    +0.483 P 
ATOM     25  O   UNL     1       6.572  -5.584   4.665  0.00  0.00    -0.227 OA
BRANCH  24  26
ATOM     26  O   UNL     1       5.829  -4.194   6.286  0.00  0.00    -0.302 OA
ATOM     27  H   UNL     1       6.340  -4.990   6.553  0.00  0.00    +0.222 HD
ENDBRANCH  24  26
BRANCH  24  28
ATOM     28  O   UNL     1       6.301  -4.106   2.860  0.00  0.00    -0.196 OA
BRANCH  28  29
ATOM     29  P   UNL     1       4.873  -4.674   2.066  0.00  0.00    +0.423 P 
ATOM     30  O   UNL     1       5.554  -4.587   0.701  0.00  0.00    -0.239 OA
BRANCH  29  31
ATOM     31  N   UNL     1       3.403  -5.258   1.249  0.00  0.00    -0.125 NA
ATOM     32  H   UNL     1       3.769  -5.659   0.386  0.00  0.00    +0.146 HD
BRANCH  31  33
ATOM     33  P   UNL     1       2.766  -6.675   2.117  0.00  0.00    +0.412 P 
ATOM     34  O   UNL     1       2.211  -7.908   2.872  0.00  0.00    -0.240 OA
BRANCH  33  35
ATOM     35  O   UNL     1       3.196  -7.525   0.797  0.00  0.00    -0.312 OA
ATOM     36  H   UNL     1       2.688  -8.362   0.849  0.00  0.00    +0.221 HD
ENDBRANCH  33  35
BRANCH  33  37
ATOM     37  O   UNL     1       1.322  -6.188   1.533  0.00  0.00    -0.312 OA
ATOM     38  H   UNL     1       1.434  -5.347   1.049  0.00  0.00    +0.221 HD
ENDBRANCH  33  37
ENDBRANCH  31  33
ENDBRANCH  29  31
BRANCH  29  39
ATOM     39  O   UNL     1       4.206  -3.200   2.261  0.00  0.00    -0.312 OA
ATOM     40  H   UNL     1       4.411  -2.674   1.457  0.00  0.00    +0.221 HD
ENDBRANCH  29  39
ENDBRANCH  28  29
ENDBRANCH  24  28
ENDBRANCH  23  24
ENDBRANCH  22  23
ENDBRANCH   4  22
TORSDOF 14
