REMARK  Name = 
REMARK  12 active torsions:
REMARK  status: ('A' for Active; 'I' for Inactive)
REMARK    1  A    between atoms: C_1  and  C_2
REMARK    2  A    between atoms: C_2  and  C_3
REMARK    3  A    between atoms: C_2  and  O_4
REMARK    4  A    between atoms: C_2  and  C_20
REMARK    5  A    between atoms: O_4  and  N_5
REMARK    6  A    between atoms: C_6  and  C_7
REMARK    7  A    between atoms: C_6  and  C_14
REMARK    8  A    between atoms: N_9  and  C_10
REMARK    9  A    between atoms: C_10  and  B_11
REMARK   10  A    between atoms: B_11  and  O_12
REMARK   11  A    between atoms: B_11  and  O_13
REMARK   12  A    between atoms: C_20  and  O_21
REMARK                            x       y       z     vdW  Elec       q    Type
REMARK                         _______ _______ _______ _____ _____    ______ ____
ROOT
ATOM      1  N   UNL     1       2.788   2.045  -1.107  0.00  0.00    +0.000 NA
ATOM      2  C   UNL     1       3.207   3.270  -1.051  0.00  0.00    +0.000 C 
ENDROOT
BRANCH   2   3
ATOM      3  C   UNL     1       2.838   4.174  -2.176  0.00  0.00    +0.000 A 
ATOM      4  N   UNL     1       3.238   5.476  -2.231  0.00  0.00    +0.000 NA
ATOM      5  C   UNL     1       2.809   6.089  -3.354  0.00  0.00    +0.000 A 
ATOM      6  N   UNL     1       3.094   7.437  -3.656  0.00  0.00    +0.000 N 
ATOM      7  H   UNL     1       3.649   8.010  -3.004  0.00  0.00    +0.000 HD
ATOM      8  H   UNL     1       2.754   7.856  -4.533  0.00  0.00    +0.000 HD
ATOM      9  S   UNL     1       1.918   5.060  -4.337  0.00  0.00    +0.000 S 
ATOM     10  C   UNL     1       2.085   3.760  -3.278  0.00  0.00    +0.000 A 
ENDBRANCH   2   3
BRANCH   2  11
ATOM     11  C   UNL     1       4.024   3.811   0.098  0.00  0.00    +0.000 C 
ATOM     12  N   UNL     1       4.803   3.016   0.894  0.00  0.00    +0.000 N 
ATOM     13  H   UNL     1       4.896   2.011   0.702  0.00  0.00    +0.000 HD
ATOM     14  O   UNL     1       4.023   5.021   0.285  0.00  0.00    +0.000 OA
BRANCH  12  15
ATOM     15  C   UNL     1       5.602   3.533   1.992  0.00  0.00    +0.000 C 
BRANCH  15  16
ATOM     16  B   UNL     1       5.231   2.775   3.347  0.00  0.00    +0.000 B 
BRANCH  16  17
ATOM     17  O   UNL     1       3.857   2.775   3.853  0.00  0.00    +0.000 OA
ATOM     18  H   UNL     1       3.466   3.642   3.575  0.00  0.00    +0.000 HD
ENDBRANCH  16  17
BRANCH  16  19
ATOM     19  O   UNL     1       6.272   2.053   4.076  0.00  0.00    +0.000 OA
ATOM     20  H   UNL     1       6.378   1.198   3.588  0.00  0.00    +0.000 HD
ENDBRANCH  16  19
ENDBRANCH  15  16
ENDBRANCH  12  15
ENDBRANCH   2  11
BRANCH   1  21
ATOM     21  O   UNL     1       2.982   1.168  -0.142  0.00  0.00    +0.000 OA
BRANCH  21  23
ATOM     22  C   UNL     1       0.970  -0.123  -0.283  0.00  0.00    +0.000 C 
ATOM     23  C   UNL     1       2.506  -0.133  -0.189  0.00  0.00    +0.000 C 
ATOM     24  C   UNL     1       3.107  -0.859  -1.406  0.00  0.00    +0.000 C 
BRANCH  23  25
ATOM     25  C   UNL     1       2.933  -0.839   1.089  0.00  0.00    +0.000 C 
ATOM     26  O   UNL     1       3.580  -0.238   1.935  0.00  0.00    +0.000 OA
BRANCH  25  27
ATOM     27  O   UNL     1       2.611  -2.131   1.323  0.00  0.00    +0.000 OA
ATOM     28  H   UNL     1       2.104  -2.662   0.694  0.00  0.00    +0.000 HD
ENDBRANCH  25  27
ENDBRANCH  23  25
ENDBRANCH  21  23
ENDBRANCH   1  21
TORSDOF 10
