REMARK  Name = 
REMARK  27 active torsions:
REMARK  status: ('A' for Active; 'I' for Inactive)
REMARK    1  A    between atoms: C_1  and  N_2
REMARK    2  A    between atoms: C_3  and  C_5
REMARK    3  A    between atoms: C_5  and  N_7
REMARK    4  A    between atoms: C_5  and  C_58
REMARK    5  A    between atoms: C_8  and  C_10
REMARK    6  A    between atoms: C_10  and  O_12
REMARK    7  A    between atoms: C_10  and  C_25
REMARK    8  A    between atoms: O_12  and  C_13
REMARK    9  A    between atoms: C_13  and  C_14
REMARK   10  A    between atoms: C_17  and  C_20
REMARK   11  A    between atoms: C_25  and  O_27
REMARK   12  A    between atoms: C_25  and  C_28
REMARK   13  A    between atoms: C_28  and  O_30
REMARK   14  A    between atoms: C_28  and  C_31
REMARK   15  A    between atoms: C_31  and  O_33
REMARK   16  A    between atoms: C_31  and  C_46
REMARK   17  A    between atoms: O_33  and  C_34
REMARK   18  A    between atoms: C_34  and  C_35
REMARK   19  A    between atoms: C_38  and  C_41
REMARK   20  A    between atoms: N_48  and  C_49
REMARK   21  A    between atoms: C_49  and  C_51
REMARK   22  A    between atoms: C_49  and  C_54
REMARK   23  A    between atoms: C_51  and  C_52
REMARK   24  A    between atoms: C_51  and  C_53
REMARK   25  A    between atoms: N_56  and  C_57
REMARK   26  A    between atoms: C_58  and  C_59
REMARK   27  A    between atoms: C_58  and  C_60
REMARK                            x       y       z     vdW  Elec       q    Type
REMARK                         _______ _______ _______ _____ _____    ______ ____
ROOT
ATOM      1  C   UNL     1       2.702 -11.688  -1.270  0.00  0.00    +0.184 C 
ENDROOT
BRANCH   1   2
ATOM      2  O   UNL     1       1.668 -12.693  -1.154  0.00  0.00    -0.386 OA
ATOM      3  H   UNL     1       1.212 -12.795  -2.011  0.00  0.00    +0.210 HD
ENDBRANCH   1   2
BRANCH   1   4
ATOM      4  C   UNL     1       2.539 -10.964  -2.673  0.00  0.00    +0.184 C 
BRANCH   4   5
ATOM      5  O   UNL     1       2.548 -11.911  -3.759  0.00  0.00    -0.386 OA
ATOM      6  H   UNL     1       2.855 -12.786  -3.435  0.00  0.00    +0.210 HD
ENDBRANCH   4   5
BRANCH   4   7
ATOM      7  C   UNL     1       1.278  -9.969  -2.921  0.00  0.00    +0.235 C 
BRANCH   7   8
ATOM      8  C   UNL     1      -0.106 -10.699  -3.388  0.00  0.00    +0.245 C 
ATOM      9  N   UNL     1      -0.137 -11.505  -4.541  0.00  0.00    -0.302 N 
ATOM     10  H   UNL     1       0.711 -11.542  -5.098  0.00  0.00    +0.150 HD
ATOM     11  O   UNL     1      -1.162 -10.492  -2.782  0.00  0.00    -0.273 OA
BRANCH   9  12
ATOM     12  C   UNL     1      -1.437 -11.891  -5.192  0.00  0.00    +0.161 C 
BRANCH  12  13
ATOM     13  C   UNL     1      -1.985 -10.799  -6.167  0.00  0.00    +0.233 C 
ATOM     14  N   UNL     1      -3.360 -10.878  -6.355  0.00  0.00    -0.317 N 
ATOM     15  H   UNL     1      -3.890 -11.516  -5.774  0.00  0.00    +0.148 HD
ATOM     16  C   UNL     1      -4.117 -10.007  -7.222  0.00  0.00    +0.128 C 
ATOM     17  O   UNL     1      -1.258 -10.029  -6.788  0.00  0.00    -0.274 OA
ENDBRANCH  12  13
BRANCH  12  18
ATOM     18  C   UNL     1      -1.527 -13.248  -5.992  0.00  0.00    +0.012 C 
ATOM     19  C   UNL     1      -1.553 -14.499  -5.117  0.00  0.00    +0.009 C 
ATOM     20  C   UNL     1      -0.542 -13.406  -7.152  0.00  0.00    +0.009 C 
ENDBRANCH  12  18
ENDBRANCH   9  12
ENDBRANCH   7   8
BRANCH   7  21
ATOM     21  O   UNL     1       1.075  -9.061  -1.791  0.00  0.00    -0.360 OA
BRANCH  21  22
ATOM     22  C   UNL     1       1.293  -7.627  -1.962  0.00  0.00    +0.196 C 
BRANCH  22  23
ATOM     23  C   UNL     1       0.058  -6.692  -1.998  0.00  0.00    -0.022 A 
ATOM     24  C   UNL     1       0.135  -5.292  -1.727  0.00  0.00    +0.006 A 
ATOM     25  C   UNL     1      -0.988  -4.429  -1.862  0.00  0.00    +0.009 A 
ATOM     26  C   UNL     1      -2.223  -4.946  -2.278  0.00  0.00    -0.017 A 
ATOM     27  C   UNL     1      -2.302  -6.325  -2.507  0.00  0.00    +0.009 A 
ATOM     28  C   UNL     1      -1.174  -7.172  -2.368  0.00  0.00    +0.006 A 
BRANCH  26  29
ATOM     29  C   UNL     1      -3.428  -4.126  -2.513  0.00  0.00    -0.011 A 
ATOM     30  C   UNL     1      -4.445  -4.376  -3.507  0.00  0.00    +0.016 A 
ATOM     31  C   UNL     1      -5.501  -3.489  -3.450  0.00  0.00    +0.046 A 
ATOM     32  S   UNL     1      -5.279  -2.329  -2.222  0.00  0.00    -0.104 S 
ATOM     33  C   UNL     1      -3.773  -3.018  -1.760  0.00  0.00    +0.053 A 
ENDBRANCH  26  29
ENDBRANCH  22  23
ENDBRANCH  21  22
ENDBRANCH   7  21
ENDBRANCH   4   7
ENDBRANCH   1   4
BRANCH   1  34
ATOM     34  C   UNL     1       4.097 -12.402  -0.817  0.00  0.00    +0.235 C 
BRANCH  34  37
ATOM     35  N   UNL     1       5.846 -14.041  -1.653  0.00  0.00    -0.302 N 
ATOM     36  H   UNL     1       6.468 -13.444  -1.116  0.00  0.00    +0.150 HD
ATOM     37  C   UNL     1       4.551 -13.553  -1.818  0.00  0.00    +0.245 C 
ATOM     38  O   UNL     1       3.801 -14.015  -2.682  0.00  0.00    -0.273 OA
BRANCH  35  39
ATOM     39  C   UNL     1       6.447 -15.182  -2.407  0.00  0.00    +0.161 C 
BRANCH  39  43
ATOM     40  C   UNL     1       5.838 -14.116  -6.039  0.00  0.00    +0.128 C 
ATOM     41  N   UNL     1       5.723 -14.420  -4.640  0.00  0.00    -0.317 N 
ATOM     42  H   UNL     1       4.809 -14.417  -4.193  0.00  0.00    +0.148 HD
ATOM     43  C   UNL     1       6.801 -14.842  -3.882  0.00  0.00    +0.233 C 
ATOM     44  O   UNL     1       7.904 -15.019  -4.399  0.00  0.00    -0.274 OA
ENDBRANCH  39  43
BRANCH  39  45
ATOM     45  C   UNL     1       7.687 -15.826  -1.702  0.00  0.00    +0.012 C 
ATOM     46  C   UNL     1       7.316 -16.534  -0.395  0.00  0.00    +0.009 C 
ATOM     47  C   UNL     1       8.835 -14.851  -1.439  0.00  0.00    +0.009 C 
ENDBRANCH  39  45
ENDBRANCH  35  39
ENDBRANCH  34  37
BRANCH  34  48
ATOM     48  O   UNL     1       5.301 -11.677  -0.481  0.00  0.00    -0.360 OA
BRANCH  48  49
ATOM     49  C   UNL     1       5.332 -10.444   0.250  0.00  0.00    +0.196 C 
BRANCH  49  50
ATOM     50  C   UNL     1       5.435 -10.339   1.783  0.00  0.00    -0.022 A 
ATOM     51  C   UNL     1       5.831  -9.097   2.340  0.00  0.00    +0.006 A 
ATOM     52  C   UNL     1       5.770  -8.827   3.726  0.00  0.00    +0.009 A 
ATOM     53  C   UNL     1       5.299  -9.788   4.623  0.00  0.00    -0.017 A 
ATOM     54  C   UNL     1       5.038 -11.065   4.096  0.00  0.00    +0.009 A 
ATOM     55  C   UNL     1       5.104 -11.338   2.699  0.00  0.00    +0.006 A 
BRANCH  53  56
ATOM     56  C   UNL     1       4.970  -9.415   6.018  0.00  0.00    -0.011 A 
ATOM     57  C   UNL     1       4.559  -8.113   6.487  0.00  0.00    +0.016 A 
ATOM     58  C   UNL     1       4.169  -8.098   7.810  0.00  0.00    +0.046 A 
ATOM     59  S   UNL     1       4.330  -9.635   8.529  0.00  0.00    -0.104 S 
ATOM     60  C   UNL     1       4.915 -10.320   7.066  0.00  0.00    +0.053 A 
ENDBRANCH  53  56
ENDBRANCH  49  50
ENDBRANCH  48  49
ENDBRANCH  34  48
ENDBRANCH   1  34
TORSDOF 21
