REMARK  Name = 
REMARK  6 active torsions:
REMARK  status: ('A' for Active; 'I' for Inactive)
REMARK    1  A    between atoms: O_1  and  C_2
REMARK    2  A    between atoms: C_6  and  O_7
REMARK    3  A    between atoms: C_11  and  O_12
REMARK    4  A    between atoms: C_13  and  C_15
REMARK    5  A    between atoms: C_18  and  O_19
REMARK    6  A    between atoms: C_20  and  O_21
REMARK                            x       y       z     vdW  Elec       q    Type
REMARK                         _______ _______ _______ _____ _____    ______ ____
ROOT
ATOM      1  C   UNL     1       2.458   0.078   0.091  0.00  0.00    +0.124 A 
ATOM      2  C   UNL     1       3.048  -1.182   0.097  0.00  0.00    +0.091 A 
ATOM      3  C   UNL     1       4.434  -1.283   0.113  0.00  0.00    +0.135 A 
ATOM      4  C   UNL     1       5.219  -0.125   0.124  0.00  0.00    +0.109 A 
ATOM      5  C   UNL     1       6.675  -0.196   0.145  0.00  0.00    +0.238 A 
ATOM      6  C   UNL     1       7.429   1.076   0.141  0.00  0.00    +0.208 A 
ATOM      7  C   UNL     1       6.749   2.241   0.132  0.00  0.00    +0.181 A 
ATOM      8  O   UNL     1       5.351   2.301   0.118  0.00  0.00    -0.451 OA
ATOM      9  O   UNL     1       7.276  -1.270   0.162  0.00  0.00    -0.283 OA
ATOM     10  C   UNL     1       4.624   1.134   0.114  0.00  0.00    +0.147 A 
ATOM     11  C   UNL     1       3.230   1.239   0.098  0.00  0.00    +0.092 A 
ENDROOT
BRANCH   7  12
ATOM     12  C   UNL     1       7.401   3.584   0.114  0.00  0.00    +0.025 A 
ATOM     13  C   UNL     1       6.754   4.680  -0.485  0.00  0.00    +0.060 A 
ATOM     14  C   UNL     1       7.354   5.937  -0.491  0.00  0.00    +0.159 A 
ATOM     15  C   UNL     1       8.604   6.139   0.085  0.00  0.00    +0.158 A 
ATOM     16  C   UNL     1       9.268   5.082   0.684  0.00  0.00    +0.050 A 
ATOM     17  C   UNL     1       8.658   3.820   0.710  0.00  0.00    +0.015 A 
BRANCH  14  18
ATOM     18  O   UNL     1       6.700   6.987  -1.070  0.00  0.00    -0.503 OA
ATOM     19  H   UNL     1       7.302   7.749  -0.946  0.00  0.00    +0.292 HD
ENDBRANCH  14  18
BRANCH  15  20
ATOM     20  O   UNL     1       9.136   7.397   0.043  0.00  0.00    -0.503 OA
ATOM     21  H   UNL     1      10.000   7.376   0.490  0.00  0.00    +0.292 HD
ENDBRANCH  15  20
ENDBRANCH   7  12
BRANCH   1  22
ATOM     22  O   UNL     1       1.095   0.127   0.079  0.00  0.00    -0.507 OA
ATOM     23  H   UNL     1       0.804   1.054   0.082  0.00  0.00    +0.292 HD
ENDBRANCH   1  22
BRANCH   3  24
ATOM     24  O   UNL     1       4.963  -2.546   0.117  0.00  0.00    -0.506 OA
ATOM     25  H   UNL     1       5.943  -2.474   0.127  0.00  0.00    +0.292 HD
ENDBRANCH   3  24
BRANCH   6  26
ATOM     26  O   UNL     1       8.807   0.959   0.134  0.00  0.00    -0.501 OA
ATOM     27  H   UNL     1       8.982  -0.006   0.153  0.00  0.00    +0.292 HD
ENDBRANCH   6  26
TORSDOF 6
