REMARK  Name = 
REMARK  4 active torsions:
REMARK  status: ('A' for Active; 'I' for Inactive)
REMARK    1  A    between atoms: NE_4  and  CD_5
REMARK    2  A    between atoms: CD_5  and  CG_6
REMARK    3  A    between atoms: CG_6  and  CB_7
REMARK    4  A    between atoms: CB_7  and  CA_8
REMARK                            x       y       z     vdW  Elec       q    Type
REMARK                         _______ _______ _______ _____ _____    ______ ____
ROOT
ATOM      1  CA  ARG A   2       7.216   3.642  -1.881  0.00  0.00    +0.159 C 
ATOM      2  C   ARG A   2       6.185   3.910  -3.007  0.00  0.00    +0.237 C 
ATOM      3  O   ARG A   2       5.773   3.014  -3.742  0.00  0.00    -0.274 OA
ATOM      4  N   PRO A   1       5.996   5.245  -3.273  0.00  0.00    -0.288 N 
ATOM      5  CA  PRO A   1       6.064   6.252  -2.231  0.00  0.00    +0.162 C 
ATOM      6  CB  PRO A   1       6.109   7.543  -3.027  0.00  0.00    +0.033 C 
ATOM      7  CG  PRO A   1       5.129   7.240  -4.165  0.00  0.00    +0.021 C 
ATOM      8  C   PRO A   1       7.203   6.020  -1.244  0.00  0.00    +0.234 C 
ATOM      9  O   PRO A   1       7.786   6.903  -0.628  0.00  0.00    -0.274 OA
ATOM     10  CD  PRO A   1       5.334   5.754  -4.455  0.00  0.00    +0.109 C 
ATOM     11  N   ARG A   2       7.299   4.694  -0.863  0.00  0.00    -0.302 N 
ATOM     12  H   ARG A   2       7.971   4.554  -0.118  0.00  0.00    +0.150 HD
ENDROOT
BRANCH   1  13
ATOM     13  CB  ARG A   2       8.593   3.419  -2.535  0.00  0.00    +0.035 C 
BRANCH  13  14
ATOM     14  CG  ARG A   2       9.693   2.975  -1.561  0.00  0.00    +0.043 C 
BRANCH  14  15
ATOM     15  CD  ARG A   2       9.352   1.659  -0.864  0.00  0.00    +0.243 C 
BRANCH  15  20
ATOM     16  NH1 ARG A   2      11.259  -0.146   1.588  0.00  0.00    -0.289 N 
ATOM     17 HH11 ARG A   2      11.948   0.592   1.692  0.00  0.00    +0.255 HD
ATOM     18 HH12 ARG A   2      10.955  -0.505   2.480  0.00  0.00    +0.255 HD
ATOM     19  CZ  ARG A   2      10.282   0.235   0.740  0.00  0.00    +0.376 C 
ATOM     20  NE  ARG A   2      10.428   1.313   0.059  0.00  0.00    -0.114 NA
ATOM     21  NH2 ARG A   2       9.261  -0.647   0.727  0.00  0.00    -0.289 N 
ATOM     22 HH21 ARG A   2       8.405  -0.383   0.262  0.00  0.00    +0.255 HD
ATOM     23 HH22 ARG A   2       9.143  -1.263   1.516  0.00  0.00    +0.255 HD
ENDBRANCH  15  20
ENDBRANCH  14  15
ENDBRANCH  13  14
ENDBRANCH   1  13
TORSDOF 4
