REMARK  Name = 
REMARK  4 active torsions:
REMARK  status: ('A' for Active; 'I' for Inactive)
REMARK    1  A    between atoms: C_2  and  C_4
REMARK    2  A    between atoms: C_6  and  N_7
REMARK    3  A    between atoms: C_10  and  N_16
REMARK    4  A    between atoms: C_12  and  N_13
REMARK                            x       y       z     vdW  Elec       q    Type
REMARK                         _______ _______ _______ _____ _____    ______ ____
ROOT
ATOM      1  C   UNL     1       3.175   1.357   0.073  0.00  0.00    +0.116 A 
ATOM      2  C   UNL     1       4.532   1.321   0.407  0.00  0.00    +0.292 A 
ATOM      3  C   UNL     1       5.248   2.488   0.699  0.00  0.00    +0.171 A 
ATOM      4  C   UNL     1       4.555   3.705   0.700  0.00  0.00    +0.300 A 
ATOM      5  C   UNL     1       3.170   3.783   0.464  0.00  0.00    +0.109 A 
ATOM      6  C   UNL     1       2.515   2.597   0.084  0.00  0.00    +0.049 A 
ENDROOT
BRANCH   1  10
ATOM      7  N   UNL     1       1.106   0.087  -0.145  0.00  0.00    -0.325 N 
ATOM      8  H   UNL     1       0.588   0.742   0.422  0.00  0.00    +0.145 HD
ATOM      9  H   UNL     1       0.635  -0.767  -0.421  0.00  0.00    +0.145 HD
ATOM     10  C   UNL     1       2.452   0.144  -0.373  0.00  0.00    +0.248 C 
ATOM     11  O   UNL     1       3.038  -0.761  -0.946  0.00  0.00    -0.270 OA
ENDBRANCH   1  10
BRANCH   2  12
ATOM     12  N   UNL     1       5.224   0.057   0.571  0.00  0.00    +0.081 N 
ATOM     13  O   UNL     1       6.222  -0.130  -0.137  0.00  0.00    +0.041 OA
ATOM     14  O   UNL     1       4.833  -0.668   1.494  0.00  0.00    -0.576 OA
ENDBRANCH   2  12
BRANCH   4  15
ATOM     15  N   UNL     1       5.317   4.908   0.978  0.00  0.00    +0.082 N 
ATOM     16  O   UNL     1       5.881   4.958   2.078  0.00  0.00    +0.042 OA
ATOM     17  O   UNL     1       5.402   5.752   0.078  0.00  0.00    -0.576 OA
ENDBRANCH   4  15
BRANCH   5  18
ATOM     18  N   UNL     1       2.449   4.997   0.549  0.00  0.00    -0.322 N 
ATOM     19  C   UNL     1       2.212   5.585   1.865  0.00  0.00    +0.124 C 
ATOM     20  C   UNL     1       1.078   5.014   1.054  0.00  0.00    +0.124 C 
ENDBRANCH   5  18
TORSDOF 4
