REMARK  Name = 
REMARK  10 active torsions:
REMARK  status: ('A' for Active; 'I' for Inactive)
REMARK    1  A    between atoms: N_1  and  S_2
REMARK    2  A    between atoms: S_2  and  C_5
REMARK    3  A    between atoms: C_8  and  C_11
REMARK    4  A    between atoms: N_13  and  C_14
REMARK    5  A    between atoms: C_14  and  C_15
REMARK    6  A    between atoms: C_15  and  C_16
REMARK    7  A    between atoms: C_16  and  C_17
REMARK    8  A    between atoms: C_17  and  N_18
REMARK    9  A    between atoms: N_18  and  C_19
REMARK   10  A    between atoms: C_19  and  S_20
REMARK                            x       y       z     vdW  Elec       q    Type
REMARK                         _______ _______ _______ _____ _____    ______ ____
ROOT
ATOM      1  C   UNL     1       4.605   4.363   3.897  0.00  0.00    +0.244 C 
ATOM      2  N   UNL     1       5.600   4.123   4.824  0.00  0.00    -0.311 N 
ATOM      3  H   UNL     1       5.959   3.195   4.982  0.00  0.00    +0.149 HD
ATOM      4  O   UNL     1       4.137   5.484   3.714  0.00  0.00    -0.270 OA
ENDROOT
BRANCH   1   8
ATOM      5  C   UNL     1       3.154   1.170   1.409  0.00  0.00    +0.105 A 
ATOM      6  C   UNL     1       4.048   0.867   2.438  0.00  0.00    +0.029 A 
ATOM      7  C   UNL     1       4.521   1.885   3.273  0.00  0.00    +0.015 A 
ATOM      8  C   UNL     1       4.104   3.210   3.083  0.00  0.00    +0.037 A 
ATOM      9  C   UNL     1       3.176   3.489   2.061  0.00  0.00    +0.015 A 
ATOM     10  C   UNL     1       2.698   2.476   1.226  0.00  0.00    +0.029 A 
BRANCH   5  11
ATOM     11  S   UNL     1       2.634  -0.102   0.297  0.00  0.00    +0.056 S 
ATOM     12  O   UNL     1       3.355  -1.318   0.593  0.00  0.00    -0.153 OA
ATOM     13  O   UNL     1       1.196  -0.056   0.173  0.00  0.00    -0.153 OA
BRANCH  11  14
ATOM     14  N   UNL     1       3.261   0.441  -1.164  0.00  0.00    -0.204 NA
ATOM     15  H   UNL     1       4.047  -0.143  -1.450  0.00  0.00    +0.144 HD
ATOM     16  H   UNL     1       2.516   0.499  -1.860  0.00  0.00    +0.144 HD
ENDBRANCH  11  14
ENDBRANCH   5  11
ENDBRANCH   1   8
BRANCH   2  17
ATOM     17  C   UNL     1       6.155   5.193   5.632  0.00  0.00    +0.104 C 
BRANCH  17  18
ATOM     18  C   UNL     1       5.321   5.440   6.885  0.00  0.00    +0.020 C 
BRANCH  18  19
ATOM     19  C   UNL     1       5.906   6.575   7.730  0.00  0.00    +0.017 C 
BRANCH  19  20
ATOM     20  C   UNL     1       5.067   6.810   8.988  0.00  0.00    +0.082 C 
BRANCH  20  21
ATOM     21  N   UNL     1       5.659   7.882   9.788  0.00  0.00    -0.307 NA
ATOM     22  H   UNL     1       5.690   8.743   9.241  0.00  0.00    +0.123 HD
BRANCH  21  23
ATOM     23  C   UNL     1       4.865   8.138  10.978  0.00  0.00    +0.147 C 
BRANCH  23  24
ATOM     24  S   UNL     1       5.613   9.497  11.898  0.00  0.00    -0.163 S 
ATOM     25  H   UNL     1       6.793   8.888  12.084  0.00  0.00    +0.103 HD
ENDBRANCH  23  24
ENDBRANCH  21  23
ENDBRANCH  20  21
ENDBRANCH  19  20
ENDBRANCH  18  19
ENDBRANCH  17  18
ENDBRANCH   2  17
TORSDOF 10
