REMARK  Name = 
REMARK  12 active torsions:
REMARK  status: ('A' for Active; 'I' for Inactive)
REMARK    1  A    between atoms: O_1  and  C_2
REMARK    2  A    between atoms: C_2  and  C_3
REMARK    3  A    between atoms: C_6  and  O_8
REMARK    4  A    between atoms: O_8  and  C_9
REMARK    5  A    between atoms: C_11  and  O_13
REMARK    6  A    between atoms: C_14  and  O_16
REMARK    7  A    between atoms: C_17  and  O_18
REMARK    8  A    between atoms: C_20  and  C_22
REMARK    9  A    between atoms: C_22  and  O_23
REMARK   10  A    between atoms: C_24  and  O_26
REMARK   11  A    between atoms: C_27  and  O_29
REMARK   12  A    between atoms: C_30  and  O_32
REMARK                            x       y       z     vdW  Elec       q    Type
REMARK                         _______ _______ _______ _____ _____    ______ ____
ROOT
ATOM      1  O   UNL     1       0.490   1.955   0.566  0.00  0.00    -0.340 OA
ENDROOT
BRANCH   1   6
ATOM      2  C   UNL     1      -0.063   4.647  -1.056  0.00  0.00    +0.178 C 
ATOM      3  C   UNL     1       0.116   4.095  -2.481  0.00  0.00    +0.177 C 
ATOM      4  C   UNL     1       0.447   2.602  -2.515  0.00  0.00    +0.179 C 
ATOM      5  C   UNL     1       1.613   2.304  -1.580  0.00  0.00    +0.201 C 
ATOM      6  C   UNL     1       1.346   2.847  -0.159  0.00  0.00    +0.282 C 
ATOM      7  O   UNL     1       0.936   4.213  -0.123  0.00  0.00    -0.341 OA
BRANCH   3   8
ATOM      8  O   UNL     1      -1.033   4.372  -3.293  0.00  0.00    -0.386 OA
ATOM      9  H   UNL     1      -1.513   3.525  -3.377  0.00  0.00    +0.210 HD
ENDBRANCH   3   8
BRANCH   4  10
ATOM     10  O   UNL     1      -0.714   1.816  -2.225  0.00  0.00    -0.386 OA
ATOM     11  H   UNL     1      -1.043   2.076  -1.329  0.00  0.00    +0.210 HD
ENDBRANCH   4  10
BRANCH   5  12
ATOM     12  O   UNL     1       2.795   2.914  -2.131  0.00  0.00    -0.384 OA
ATOM     13  H   UNL     1       3.525   2.796  -1.498  0.00  0.00    +0.210 HD
ENDBRANCH   5  12
BRANCH   2  14
ATOM     14  C   UNL     1      -1.482   4.531  -0.477  0.00  0.00    +0.190 C 
BRANCH  14  15
ATOM     15  O   UNL     1      -1.892   3.180  -0.288  0.00  0.00    -0.392 OA
ATOM     16  H   UNL     1      -2.819   3.217   0.015  0.00  0.00    +0.210 HD
ENDBRANCH  14  15
ENDBRANCH   2  14
ENDBRANCH   1   6
BRANCH   1  17
ATOM     17  C   UNL     1       0.304   2.301   1.958  0.00  0.00    +0.183 C 
ATOM     18  C   UNL     1       1.604   2.131   2.777  0.00  0.00    +0.178 C 
ATOM     19  O   UNL     1       1.965   0.758   2.988  0.00  0.00    -0.341 OA
ATOM     20  C   UNL     1       0.948  -0.102   3.504  0.00  0.00    +0.279 C 
ATOM     21  C   UNL     1      -0.340  -0.061   2.654  0.00  0.00    +0.201 C 
ATOM     22  C   UNL     1      -0.816   1.395   2.518  0.00  0.00    +0.179 C 
BRANCH  20  23
ATOM     23  O   UNL     1       0.706   0.171   4.877  0.00  0.00    -0.365 OA
ATOM     24  H   UNL     1      -0.120   0.693   4.923  0.00  0.00    +0.213 HD
ENDBRANCH  20  23
BRANCH  21  25
ATOM     25  O   UNL     1      -0.147  -0.663   1.372  0.00  0.00    -0.384 OA
ATOM     26  H   UNL     1       0.404  -0.053   0.843  0.00  0.00    +0.210 HD
ENDBRANCH  21  25
BRANCH  22  27
ATOM     27  O   UNL     1      -1.242   1.859   3.807  0.00  0.00    -0.386 OA
ATOM     28  H   UNL     1      -1.711   2.704   3.669  0.00  0.00    +0.210 HD
ENDBRANCH  22  27
BRANCH  18  29
ATOM     29  C   UNL     1       1.622   2.962   4.068  0.00  0.00    +0.190 C 
BRANCH  29  30
ATOM     30  O   UNL     1       2.950   2.991   4.593  0.00  0.00    -0.392 OA
ATOM     31  H   UNL     1       3.228   2.058   4.663  0.00  0.00    +0.210 HD
ENDBRANCH  29  30
ENDBRANCH  18  29
ENDBRANCH   1  17
TORSDOF 12
