REMARK  Name = 
REMARK  5 active torsions:
REMARK  status: ('A' for Active; 'I' for Inactive)
REMARK    1  A    between atoms: C_1  and  O_2
REMARK    2  A    between atoms: O_2  and  C_3
REMARK    3  A    between atoms: C_4  and  C_11
REMARK    4  A    between atoms: C_7  and  N_8
REMARK    5  A    between atoms: N_13  and  C_14
REMARK                            x       y       z     vdW  Elec       q    Type
REMARK                         _______ _______ _______ _____ _____    ______ ____
ROOT
ATOM      1  C   UNL     1       1.638   1.252   0.221  0.00  0.00    +0.248 C 
ATOM      2  N   UNL     1       2.332   2.465   0.090  0.00  0.00    -0.308 N 
ATOM      3  H   UNL     1       3.299   2.526   0.379  0.00  0.00    +0.149 HD
ATOM      4  O   UNL     1       0.479   1.112  -0.145  0.00  0.00    -0.270 OA
ENDROOT
BRANCH   2   5
ATOM      5  C   UNL     1       1.725   3.659  -0.538  0.00  0.00    +0.079 C 
ATOM      6  C   UNL     1       0.820   4.423   0.458  0.00  0.00    +0.023 C 
ATOM      7  C   UNL     1       1.601   5.444   1.278  0.00  0.00    +0.089 C 
ATOM      8  N   UNL     1       2.233   6.417   0.402  0.00  0.00    -0.302 NA
ATOM      9  C   UNL     1       1.244   7.216  -0.329  0.00  0.00    +0.084 C 
ATOM     10  C   UNL     1       0.021   6.484  -0.899  0.00  0.00    +0.016 C 
ATOM     11  C   UNL     1       3.243   5.781  -0.437  0.00  0.00    +0.086 C 
ATOM     12  C   UNL     1      -0.335   5.139  -0.254  0.00  0.00    +0.008 C 
ATOM     13  C   UNL     1       2.784   4.549  -1.221  0.00  0.00    +0.038 C 
ENDBRANCH   2   5
BRANCH   1  20
ATOM     14  C   UNL     1       2.240  -1.227   0.504  0.00  0.00    +0.152 A 
ATOM     15  C   UNL     1       3.101  -2.191   1.093  0.00  0.00    +0.104 A 
ATOM     16 CL   UNL     1       3.167  -3.845   0.547  0.00  0.00    -0.078 Cl
ATOM     17  C   UNL     1       4.037  -1.829   2.087  0.00  0.00    +0.047 A 
ATOM     18  C   UNL     1       4.082  -0.506   2.518  0.00  0.00    +0.025 A 
ATOM     19  C   UNL     1       3.297   0.467   1.899  0.00  0.00    +0.018 A 
ATOM     20  C   UNL     1       2.409   0.131   0.865  0.00  0.00    +0.080 A 
BRANCH  17  21
ATOM     21  N   UNL     1       4.773  -2.798   2.803  0.00  0.00    -0.357 N 
ATOM     22  H   UNL     1       4.862  -3.674   2.291  0.00  0.00    +0.142 HD
ATOM     23  H   UNL     1       5.658  -2.468   3.171  0.00  0.00    +0.142 HD
ENDBRANCH  17  21
BRANCH  14  25
ATOM     24  C   UNL     1       0.427  -2.608  -0.145  0.00  0.00    +0.277 C 
ATOM     25  O   UNL     1       1.331  -1.545  -0.476  0.00  0.00    -0.493 OA
ENDBRANCH  14  25
ENDBRANCH   1  20
TORSDOF 4
