REMARK  Name = 
REMARK  7 active torsions:
REMARK  status: ('A' for Active; 'I' for Inactive)
REMARK    1  A    between atoms: O_1  and  C_2
REMARK    2  A    between atoms: C_2  and  C_4
REMARK    3  A    between atoms: C_2  and  C_6
REMARK    4  A    between atoms: C_4  and  S_5
REMARK    5  A    between atoms: C_6  and  O_8
REMARK    6  A    between atoms: C_6  and  C_9
REMARK    7  A    between atoms: C_9  and  S_10
REMARK                            x       y       z     vdW  Elec       q    Type
REMARK                         _______ _______ _______ _____ _____    ______ ____
ROOT
ATOM      1  C   UNL     1       2.471  -2.289   1.229  0.00  0.00    +0.153 C 
ENDROOT
BRANCH   1   2
ATOM      2  O   UNL     1       3.016  -1.635   2.380  0.00  0.00    -0.388 OA
ATOM      3  H   UNL     1       2.506  -1.961   3.145  0.00  0.00    +0.210 HD
ENDBRANCH   1   2
BRANCH   1   4
ATOM      4  C   UNL     1       2.952  -1.554  -0.043  0.00  0.00    +0.153 C 
BRANCH   4   5
ATOM      5  O   UNL     1       2.362  -2.171  -1.192  0.00  0.00    -0.388 OA
ATOM      6  H   UNL     1       2.471  -1.540  -1.928  0.00  0.00    +0.210 HD
ENDBRANCH   4   5
BRANCH   4   7
ATOM      7  C   UNL     1       4.481  -1.519  -0.180  0.00  0.00    +0.099 C 
BRANCH   7   8
ATOM      8  S   UNL     1       4.987  -0.499  -1.611  0.00  0.00    -0.176 S 
ATOM      9  H   UNL     1       4.616  -1.372  -2.559  0.00  0.00    +0.102 HD
ENDBRANCH   7   8
ENDBRANCH   4   7
ENDBRANCH   1   4
BRANCH   1  10
ATOM     10  C   UNL     1       2.827  -3.783   1.236  0.00  0.00    +0.099 C 
BRANCH  10  11
ATOM     11  S   UNL     1       2.178  -4.607   2.732  0.00  0.00    -0.176 S 
ATOM     12  H   UNL     1       3.095  -4.118   3.581  0.00  0.00    +0.102 HD
ENDBRANCH  10  11
ENDBRANCH   1  10
TORSDOF 7
