REMARK  Name = 
REMARK  12 active torsions:
REMARK  status: ('A' for Active; 'I' for Inactive)
REMARK    1  A    between atoms: CG2_1  and  CB_2
REMARK    2  A    between atoms: CB_2  and  OG1_4
REMARK    3  A    between atoms: CB_2  and  CA_5
REMARK    4  A    between atoms: CA_5  and  N_7
REMARK    5  A    between atoms: CA_5  and  C_26
REMARK    6  A    between atoms: C_8  and  CA_10
REMARK    7  A    between atoms: CA_10  and  C_12
REMARK    8  A    between atoms: CA_10  and  N_22
REMARK    9  A    between atoms: C_12  and  C_13
REMARK   10  A    between atoms: C_17  and  O_18
REMARK   11  A    between atoms: C_23  and  C_24
REMARK   12  A    between atoms: C_26  and  O_27
REMARK                            x       y       z     vdW  Elec       q    Type
REMARK                         _______ _______ _______ _____ _____    ______ ____
ROOT
ATOM      1  CA  UNL     1       0.613  -2.956  -2.633  0.00  0.00    +0.163 C 
ENDROOT
BRANCH   1   2
ATOM      2  N   UNL     1      -0.844  -3.005  -2.806  0.00  0.00    -0.304 N 
ATOM      3  H   UNL     1      -1.210  -2.563  -3.641  0.00  0.00    +0.149 HD
ATOM      4  C   UNL     1      -1.688  -3.805  -2.079  0.00  0.00    +0.211 C 
ATOM      5  O   UNL     1      -1.312  -4.541  -1.172  0.00  0.00    -0.276 OA
ATOM      6  C   UNL     1      -3.139  -3.680  -2.458  0.00  0.00    +0.109 C 
ENDBRANCH   1   2
BRANCH   1   9
ATOM      7  N   UNL     1       0.677  -3.091  -0.170  0.00  0.00    -0.299 N 
ATOM      8  H   UNL     1       0.050  -3.887  -0.305  0.00  0.00    +0.150 HD
ATOM      9  C   UNL     1       0.996  -2.332  -1.265  0.00  0.00    +0.234 C 
ATOM     10  O   UNL     1       1.560  -1.243  -1.178  0.00  0.00    -0.274 OA
BRANCH   7  11
ATOM     11  CA  UNL     1       1.048  -2.739   1.202  0.00  0.00    +0.210 C 
BRANCH  11  13
ATOM     12  CG2 UNL     1      -1.093  -1.403   1.547  0.00  0.00    +0.040 C 
ATOM     13  CB  UNL     1       0.428  -1.421   1.702  0.00  0.00    +0.143 C 
BRANCH  13  14
ATOM     14  OG1 UNL     1       0.740  -1.280   3.104  0.00  0.00    -0.390 OA
ATOM     15  HG1 UNL     1       0.138  -0.602   3.472  0.00  0.00    +0.210 HD
ENDBRANCH  13  14
ENDBRANCH  11  13
BRANCH  11  16
ATOM     16  C   UNL     1       2.586  -2.807   1.361  0.00  0.00    +0.328 C 
ATOM     17  OXT UNL     1       3.324  -3.470   0.641  0.00  0.00    -0.249 OA
BRANCH  16  18
ATOM     18  O   UNL     1       3.065  -2.171   2.459  0.00  0.00    -0.479 OA
ATOM     19  H   UNL     1       2.346  -1.738   2.981  0.00  0.00    +0.295 HD
ENDBRANCH  16  18
ENDBRANCH  11  16
ENDBRANCH   7  11
ENDBRANCH   1   9
BRANCH   1  20
ATOM     20  C   UNL     1       1.344  -4.295  -2.829  0.00  0.00    +0.067 C 
BRANCH  20  21
ATOM     21  C   UNL     1       1.146  -4.996  -4.159  0.00  0.00    -0.043 A 
ATOM     22  C   UNL     1       0.598  -6.288  -4.180  0.00  0.00    +0.021 A 
ATOM     23  C   UNL     1       0.564  -7.035  -5.364  0.00  0.00    +0.056 A 
ATOM     24  I   UNL     1      -0.225  -8.972  -5.280  0.00  0.00    -0.040 I 
ATOM     25  C   UNL     1       1.083  -6.497  -6.543  0.00  0.00    +0.143 A 
ATOM     26  C   UNL     1       1.580  -5.189  -6.542  0.00  0.00    +0.056 A 
ATOM     27  I   UNL     1       2.336  -4.319  -8.289  0.00  0.00    -0.040 I 
ATOM     28  C   UNL     1       1.608  -4.437  -5.359  0.00  0.00    +0.021 A 
BRANCH  25  29
ATOM     29  O   UNL     1       1.127  -7.272  -7.673  0.00  0.00    -0.505 OA
ATOM     30  H   UNL     1       1.701  -6.825  -8.320  0.00  0.00    +0.292 HD
ENDBRANCH  25  29
ENDBRANCH  20  21
ENDBRANCH   1  20
TORSDOF 10
