REMARK  Name = 
REMARK  11 active torsions:
REMARK  status: ('A' for Active; 'I' for Inactive)
REMARK    1  A    between atoms: N_1  and  C_2
REMARK    2  A    between atoms: C_2  and  C_3
REMARK    3  A    between atoms: C_6  and  O_8
REMARK    4  A    between atoms: O_8  and  C_9
REMARK    5  A    between atoms: C_11  and  N_13
REMARK    6  A    between atoms: C_15  and  N_17
REMARK    7  A    between atoms: C_18  and  O_20
REMARK    8  A    between atoms: C_21  and  O_23
REMARK    9  A    between atoms: C_24  and  N_26
REMARK   10  A    between atoms: C_27  and  O_29
REMARK   11  A    between atoms: C_30  and  O_32
REMARK                            x       y       z     vdW  Elec       q    Type
REMARK                         _______ _______ _______ _____ _____    ______ ____
ROOT
ATOM      1  C   UNL     1       7.375  -2.001   4.753  0.00  0.00    +0.166 C 
ATOM      2  C   UNL     1       7.990  -1.724   6.142  0.00  0.00    +0.175 C 
ATOM      3  C   UNL     1       7.219  -2.411   7.271  0.00  0.00    +0.167 C 
ATOM      4  C   UNL     1       5.724  -2.085   7.166  0.00  0.00    +0.139 C 
ATOM      5  C   UNL     1       5.205  -2.596   5.796  0.00  0.00    +0.270 C 
ATOM      6  O   UNL     1       5.941  -2.114   4.670  0.00  0.00    -0.343 OA
ENDROOT
BRANCH   4   7
ATOM      7  N   UNL     1       5.442  -0.636   7.387  0.00  0.00    -0.321 NA
ATOM      8  H   UNL     1       5.949  -0.114   6.661  0.00  0.00    +0.119 HD
ATOM      9  H   UNL     1       4.459  -0.503   7.134  0.00  0.00    +0.119 HD
ENDBRANCH   4   7
BRANCH   2  10
ATOM     10  O   UNL     1       8.006  -0.294   6.322  0.00  0.00    -0.387 OA
ATOM     11  H   UNL     1       8.128  -0.118   7.276  0.00  0.00    +0.210 HD
ENDBRANCH   2  10
BRANCH   3  12
ATOM     12  O   UNL     1       7.435  -3.823   7.299  0.00  0.00    -0.387 OA
ATOM     13  H   UNL     1       7.557  -4.153   6.377  0.00  0.00    +0.210 HD
ENDBRANCH   3  12
BRANCH   1  14
ATOM     14  C   UNL     1       8.132  -3.130   4.014  0.00  0.00    +0.112 C 
BRANCH  14  15
ATOM     15  N   UNL     1       8.043  -4.450   4.647  0.00  0.00    -0.328 NA
ATOM     16  H   UNL     1       7.411  -5.027   4.081  0.00  0.00    +0.118 HD
ATOM     17  H   UNL     1       8.947  -4.923   4.533  0.00  0.00    +0.118 HD
ENDBRANCH  14  15
ENDBRANCH   1  14
BRANCH   5  18
ATOM     18  O   UNL     1       3.825  -2.168   5.719  0.00  0.00    -0.342 OA
BRANCH  18  19
ATOM     19  C   UNL     1       3.081  -2.600   4.561  0.00  0.00    +0.169 C 
ATOM     20  C   UNL     1       2.847  -4.130   4.547  0.00  0.00    +0.175 C 
ATOM     21  C   UNL     1       1.875  -4.552   3.437  0.00  0.00    +0.162 C 
ATOM     22  C   UNL     1       0.544  -3.784   3.486  0.00  0.00    +0.084 C 
ATOM     23  C   UNL     1       0.773  -2.277   3.464  0.00  0.00    +0.042 C 
ATOM     24  C   UNL     1       1.709  -1.849   4.603  0.00  0.00    +0.084 C 
BRANCH  22  25
ATOM     25  N   UNL     1      -0.309  -4.218   2.364  0.00  0.00    -0.325 NA
ATOM     26  H   UNL     1      -1.206  -3.731   2.411  0.00  0.00    +0.119 HD
ATOM     27  H   UNL     1       0.110  -3.925   1.479  0.00  0.00    +0.119 HD
ENDBRANCH  22  25
BRANCH  24  28
ATOM     28  N   UNL     1       1.866  -0.388   4.530  0.00  0.00    -0.325 NA
ATOM     29  H   UNL     1       0.984   0.069   4.772  0.00  0.00    +0.119 HD
ATOM     30  H   UNL     1       2.532  -0.107   5.253  0.00  0.00    +0.119 HD
ENDBRANCH  24  28
BRANCH  20  31
ATOM     31  O   UNL     1       4.082  -4.839   4.346  0.00  0.00    -0.387 OA
ATOM     32  H   UNL     1       4.579  -4.376   3.653  0.00  0.00    +0.210 HD
ENDBRANCH  20  31
BRANCH  21  33
ATOM     33  O   UNL     1       1.579  -5.952   3.539  0.00  0.00    -0.388 OA
ATOM     34  H   UNL     1       0.773  -6.079   2.994  0.00  0.00    +0.210 HD
ENDBRANCH  21  33
ENDBRANCH  18  19
ENDBRANCH   5  18
TORSDOF 11
