REMARK  Name = 
REMARK  12 active torsions:
REMARK  status: ('A' for Active; 'I' for Inactive)
REMARK    1  A    between atoms: C_2  and  O_3
REMARK    2  A    between atoms: C_4  and  O_6
REMARK    3  A    between atoms: C_7  and  C_9
REMARK    4  A    between atoms: C_9  and  O_10
REMARK    5  A    between atoms: C_12  and  O_14
REMARK    6  A    between atoms: O_14  and  C_15
REMARK    7  A    between atoms: C_15  and  C_16
REMARK    8  A    between atoms: C_16  and  C_17
REMARK    9  A    between atoms: C_17  and  C_18
REMARK   10  A    between atoms: C_18  and  C_19
REMARK   11  A    between atoms: C_19  and  C_20
REMARK   12  A    between atoms: C_21  and  O_23
REMARK                            x       y       z     vdW  Elec       q    Type
REMARK                         _______ _______ _______ _____ _____    ______ ____
ROOT
ATOM      1  C   UNL     1       2.212  -0.017   0.124  0.00  0.00    +0.179 C 
ATOM      2  C   UNL     1       2.537   1.017  -0.956  0.00  0.00    +0.201 C 
ATOM      3  C   UNL     1       1.960   0.601  -2.313  0.00  0.00    +0.282 C 
ATOM      4  O   UNL     1       2.392  -0.709  -2.706  0.00  0.00    -0.341 OA
ATOM      5  C   UNL     1       2.306  -1.771  -1.735  0.00  0.00    +0.178 C 
ATOM      6  C   UNL     1       2.727  -1.390  -0.304  0.00  0.00    +0.177 C 
ENDROOT
BRANCH   1   7
ATOM      7  O   UNL     1       0.816  -0.123   0.431  0.00  0.00    -0.386 OA
ATOM      8  H   UNL     1       0.378   0.712   0.175  0.00  0.00    +0.210 HD
ENDBRANCH   1   7
BRANCH   2   9
ATOM      9  O   UNL     1       3.965   1.171  -1.052  0.00  0.00    -0.384 OA
ATOM     10  H   UNL     1       4.300   0.508  -1.685  0.00  0.00    +0.210 HD
ENDBRANCH   2   9
BRANCH   6  11
ATOM     11  O   UNL     1       2.370  -2.389   0.658  0.00  0.00    -0.386 OA
ATOM     12  H   UNL     1       1.673  -1.998   1.221  0.00  0.00    +0.210 HD
ENDBRANCH   6  11
BRANCH   3  13
ATOM     13  O   UNL     1       0.540   0.793  -2.356  0.00  0.00    -0.349 OA
BRANCH  13  14
ATOM     14  C   UNL     1       0.062   0.862  -3.705  0.00  0.00    +0.163 C 
BRANCH  14  15
ATOM     15  C   UNL     1      -1.374   1.393  -3.770  0.00  0.00    +0.028 C 
BRANCH  15  16
ATOM     16  C   UNL     1      -1.493   2.877  -3.393  0.00  0.00    +0.002 C 
BRANCH  16  17
ATOM     17  C   UNL     1      -2.912   3.406  -3.645  0.00  0.00    -0.000 C 
BRANCH  17  18
ATOM     18  C   UNL     1      -3.050   4.876  -3.245  0.00  0.00    -0.003 C 
ATOM     19  C   UNL     1      -4.456   5.404  -3.488  0.00  0.00    +0.004 C 
ENDBRANCH  17  18
ENDBRANCH  16  17
ENDBRANCH  15  16
ENDBRANCH  14  15
ENDBRANCH  13  14
ENDBRANCH   3  13
BRANCH   5  20
ATOM     20  C   UNL     1       0.982  -2.527  -1.849  0.00  0.00    +0.190 C 
BRANCH  20  21
ATOM     21  O   UNL     1       0.752  -2.913  -3.213  0.00  0.00    -0.392 OA
ATOM     22  H   UNL     1       1.171  -2.226  -3.763  0.00  0.00    +0.210 HD
ENDBRANCH  20  21
ENDBRANCH   5  20
TORSDOF 11
