REMARK  Name = 
REMARK  6 active torsions:
REMARK  status: ('A' for Active; 'I' for Inactive)
REMARK    1  A    between atoms: N_3  and  C_4
REMARK    2  A    between atoms: C_7  and  C_8
REMARK    3  A    between atoms: C_13  and  O_14
REMARK    4  A    between atoms: O_14  and  C_15
REMARK    5  A    between atoms: N_17  and  C_18
REMARK    6  A    between atoms: N_25  and  C_26
REMARK                            x       y       z     vdW  Elec       q    Type
REMARK                         _______ _______ _______ _____ _____    ______ ____
ROOT
ATOM      1  C   UNL     1       2.382   0.163  -0.125  0.00  0.00    +0.154 C 
ATOM      2  N   UNL     1       2.500  -1.285   0.078  0.00  0.00    -0.316 N 
ATOM      3  C   UNL     1       2.855  -1.900   1.343  0.00  0.00    +0.131 C 
ATOM      4  C   UNL     1       3.005  -1.781  -1.098  0.00  0.00    +0.035 A 
ATOM      5  C   UNL     1       3.127  -3.145  -1.397  0.00  0.00    +0.027 A 
ATOM      6  C   UNL     1       3.462  -3.563  -2.679  0.00  0.00    +0.048 A 
ATOM      7  C   UNL     1       3.579  -2.612  -3.677  0.00  0.00    +0.134 A 
ATOM      8  C   UNL     1       3.511  -1.250  -3.356  0.00  0.00    +0.052 A 
ATOM      9  C   UNL     1       3.283  -0.787  -2.027  0.00  0.00    -0.014 A 
ATOM     10  C   UNL     1       3.443   0.655  -1.389  0.00  0.00    +0.028 C 
ATOM     11  C   UNL     1       3.284   1.346  -2.841  0.00  0.00    +0.019 C 
ATOM     12  C   UNL     1       3.221   2.134  -0.818  0.00  0.00    +0.030 C 
ATOM     13  C   UNL     1       2.919   2.298   0.639  0.00  0.00    +0.087 C 
ATOM     14  N   UNL     1       2.651   0.971   1.079  0.00  0.00    -0.287 NA
ATOM     15  C   UNL     1       1.575   0.968   2.066  0.00  0.00    +0.106 C 
ENDROOT
BRANCH   7  16
ATOM     16  O   UNL     1       3.832  -2.920  -5.033  0.00  0.00    -0.411 OA
BRANCH  16  17
ATOM     17  C   UNL     1       3.212  -4.038  -5.596  0.00  0.00    +0.410 C 
ATOM     18  N   UNL     1       3.504  -4.130  -6.934  0.00  0.00    -0.251 N 
ATOM     19  H   UNL     1       4.234  -3.528  -7.284  0.00  0.00    +0.158 HD
ATOM     20  O   UNL     1       2.528  -4.835  -4.959  0.00  0.00    -0.226 OA
BRANCH  18  21
ATOM     21  C   UNL     1       2.953  -5.109  -7.800  0.00  0.00    +0.036 A 
ATOM     22  C   UNL     1       3.594  -5.391  -9.011  0.00  0.00    +0.023 A 
ATOM     23  C   UNL     1       3.110  -6.410  -9.845  0.00  0.00    +0.002 A 
ATOM     24  C   UNL     1       1.965  -7.129  -9.490  0.00  0.00    +0.000 A 
ATOM     25  C   UNL     1       1.289  -6.811  -8.318  0.00  0.00    +0.002 A 
ATOM     26  C   UNL     1       1.779  -5.805  -7.486  0.00  0.00    +0.023 A 
ENDBRANCH  18  21
ENDBRANCH  16  17
ENDBRANCH   7  16
TORSDOF 3
