REMARK  Name = 
REMARK  7 active torsions:
REMARK  status: ('A' for Active; 'I' for Inactive)
REMARK    1  A    between atoms: C_1  and  C_2
REMARK    2  A    between atoms: C_2  and  C_3
REMARK    3  A    between atoms: C_2  and  C_4
REMARK    4  A    between atoms: C_4  and  C_5
REMARK    5  A    between atoms: C_7  and  C_11
REMARK    6  A    between atoms: C_20  and  C_21
REMARK    7  A    between atoms: C_21  and  O_22
REMARK                            x       y       z     vdW  Elec       q    Type
REMARK                         _______ _______ _______ _____ _____    ______ ____
ROOT
ATOM      1  C   UNL     1       2.619  -4.572  -1.030  0.00  0.00    +0.169 A 
ATOM      2  C   UNL     1       1.592  -5.402  -1.477  0.00  0.00    +0.093 A 
ATOM      3  C   UNL     1       1.673  -6.771  -1.189  0.00  0.00    +0.027 A 
ATOM      4  C   UNL     1       2.770  -7.284  -0.495  0.00  0.00    +0.001 A 
ATOM      5  C   UNL     1       3.758  -6.381  -0.060  0.00  0.00    +0.072 A 
ATOM      6  C   UNL     1       4.825  -6.894   0.671  0.00  0.00    +0.028 A 
ATOM      7  C   UNL     1       4.941  -8.262   0.947  0.00  0.00    +0.002 A 
ATOM      8  C   UNL     1       3.972  -9.148   0.489  0.00  0.00    +0.001 A 
ATOM      9  C   UNL     1       2.883  -8.659  -0.225  0.00  0.00    +0.010 A 
ATOM     10  N   UNL     1       3.685  -5.063  -0.330  0.00  0.00    -0.238 NA
ENDROOT
BRANCH   1  16
ATOM     11  C   UNL     1       3.100  -0.888  -1.062  0.00  0.00    +0.249 C 
ATOM     12  C   UNL     1       2.208  -1.171  -2.262  0.00  0.00    +0.354 C 
ATOM     13  O   UNL     1       1.687  -0.376  -3.028  0.00  0.00    -0.242 OA
ATOM     14  N   UNL     1       2.114  -2.519  -2.346  0.00  0.00    -0.165 N 
ATOM     15  H   UNL     1       1.477  -2.928  -3.011  0.00  0.00    +0.301 HD
ATOM     16  C   UNL     1       2.699  -3.086  -1.266  0.00  0.00    +0.340 C 
ATOM     17  N   UNL     1       3.347  -2.260  -0.493  0.00  0.00    -0.062 NA
ATOM     18  C   UNL     1       4.434  -0.338  -1.572  0.00  0.00    +0.078 C 
BRANCH  11  20
ATOM     19  C   UNL     1       2.131   1.433  -0.451  0.00  0.00    +0.012 C 
ATOM     20  C   UNL     1       2.443   0.006   0.022  0.00  0.00    +0.046 C 
ATOM     21  C   UNL     1       1.169  -0.603   0.623  0.00  0.00    +0.012 C 
ENDBRANCH  11  20
ENDBRANCH   1  16
BRANCH   2  22
ATOM     22  C   UNL     1       0.380  -4.900  -2.145  0.00  0.00    +0.339 C 
ATOM     23  O   UNL     1      -0.131  -3.828  -1.882  0.00  0.00    -0.245 OA
BRANCH  22  24
ATOM     24  O   UNL     1      -0.083  -5.696  -3.131  0.00  0.00    -0.477 OA
ATOM     25  H   UNL     1       0.431  -6.496  -3.353  0.00  0.00    +0.295 HD
ENDBRANCH  22  24
ENDBRANCH   2  22
TORSDOF 4
