REMARK  Name = 
REMARK  6 active torsions:
REMARK  status: ('A' for Active; 'I' for Inactive)
REMARK    1  A    between atoms: C_2  and  C_8
REMARK    2  A    between atoms: C_8  and  C_11
REMARK    3  A    between atoms: C_11  and  N_12
REMARK    4  A    between atoms: C_20  and  C_21
REMARK    5  A    between atoms: C_21  and  C_22
REMARK    6  A    between atoms: C_27  and  N_28
REMARK                            x       y       z     vdW  Elec       q    Type
REMARK                         _______ _______ _______ _____ _____    ______ ____
ROOT
ATOM      1  N   UNL     1      -1.979   0.806  -0.906  0.00  0.00    -0.322 N 
ATOM      2  H   UNL     1      -1.912   1.357  -0.051  0.00  0.00    +0.148 HD
ATOM      3  C   UNL     1      -2.437   1.579  -1.983  0.00  0.00    +0.148 A 
ATOM      4  C   UNL     1      -2.385   2.991  -2.008  0.00  0.00    +0.149 A 
ATOM      5  N   UNL     1      -1.955   3.933  -1.086  0.00  0.00    -0.210 NA
ATOM      6  C   UNL     1      -2.199   5.091  -1.680  0.00  0.00    +0.201 A 
ATOM      7  O   UNL     1      -2.751   4.980  -2.931  0.00  0.00    -0.439 OA
ATOM      8  C   UNL     1      -2.882   3.639  -3.126  0.00  0.00    +0.160 A 
ATOM      9  C   UNL     1      -3.438   3.022  -4.229  0.00  0.00    +0.068 A 
ATOM     10  C   UNL     1      -3.457   1.647  -4.123  0.00  0.00    +0.116 A 
ATOM     11  N   UNL     1      -2.985   0.945  -3.066  0.00  0.00    -0.238 NA
ENDROOT
BRANCH   1  12
ATOM     12  C   UNL     1      -2.677  -0.486  -0.792  0.00  0.00    +0.180 C 
BRANCH  12  13
ATOM     13  C   UNL     1      -2.180  -1.366   0.363  0.00  0.00    +0.279 C 
ATOM     14  F   UNL     1      -0.832  -1.540   0.257  0.00  0.00    -0.202 F 
ATOM     15  F   UNL     1      -2.391  -0.717   1.539  0.00  0.00    -0.202 F 
BRANCH  13  16
ATOM     16  C   UNL     1      -2.865  -2.774   0.362  0.00  0.00    +0.125 C 
ATOM     17  N   UNL     1      -4.347  -2.845   0.430  0.00  0.00    -0.308 NA
ATOM     18  H   UNL     1      -4.779  -2.278  -0.299  0.00  0.00    +0.122 HD
ATOM     19  C   UNL     1      -4.884  -2.462   1.735  0.00  0.00    +0.081 C 
ATOM     20  C   UNL     1      -4.301  -3.295   2.875  0.00  0.00    +0.015 C 
ATOM     21  C   UNL     1      -2.777  -3.325   2.847  0.00  0.00    +0.003 C 
ATOM     22  C   UNL     1      -2.280  -3.690   1.453  0.00  0.00    +0.025 C 
ENDBRANCH  13  16
ENDBRANCH  12  13
ENDBRANCH   1  12
BRANCH   6  23
ATOM     23  C   UNL     1      -2.121   6.490  -1.145  0.00  0.00    +0.133 C 
BRANCH  23  24
ATOM     24  C   UNL     1      -0.774   7.048  -0.699  0.00  0.00    -0.013 A 
ATOM     25  C   UNL     1      -0.640   8.361  -0.156  0.00  0.00    +0.071 A 
ATOM     26  C   UNL     1       0.633   8.802   0.278  0.00  0.00    +0.028 A 
ATOM     27  C   UNL     1       1.757   7.985   0.173  0.00  0.00    +0.002 A 
ATOM     28  C   UNL     1       1.636   6.717  -0.376  0.00  0.00    +0.000 A 
ATOM     29  C   UNL     1       0.391   6.257  -0.810  0.00  0.00    +0.006 A 
BRANCH  25  30
ATOM     30  N   UNL     1      -1.738   9.273  -0.022  0.00  0.00    -0.220 N 
ATOM     31  N   UNL     1      -3.005   8.970  -0.397  0.00  0.00    -0.154 NA
ATOM     32  C   UNL     1      -3.679  10.080  -0.103  0.00  0.00    +0.245 A 
ATOM     33  N   UNL     1      -2.941  11.086   0.428  0.00  0.00    -0.222 NA
ATOM     34  C   UNL     1      -1.736  10.564   0.467  0.00  0.00    +0.225 A 
ENDBRANCH  25  30
ENDBRANCH  23  24
ENDBRANCH   6  23
TORSDOF 6
