REMARK  Name = 
REMARK  4 active torsions:
REMARK  status: ('A' for Active; 'I' for Inactive)
REMARK    1  A    between atoms: N_1  and  C_2
REMARK    2  A    between atoms: C_3  and  C_10
REMARK    3  A    between atoms: C_8  and  O_9
REMARK    4  A    between atoms: C_10  and  O_11
REMARK                            x       y       z     vdW  Elec       q    Type
REMARK                         _______ _______ _______ _____ _____    ______ ____
ROOT
ATOM      1  C   UNL     1       2.376   0.100  -0.052  0.00  0.00    +0.082 A 
ATOM      2  C   UNL     1       3.083  -1.117  -0.078  0.00  0.00    +0.156 A 
ATOM      3  C   UNL     1       4.469  -1.158   0.109  0.00  0.00    +0.084 A 
ATOM      4 CL   UNL     1       5.309  -2.661   0.113  0.00  0.00    -0.080 Cl
ATOM      5  C   UNL     1       5.178   0.025   0.303  0.00  0.00    +0.024 A 
ATOM      6  C   UNL     1       4.503   1.249   0.307  0.00  0.00    +0.018 A 
ATOM      7  C   UNL     1       3.110   1.292   0.104  0.00  0.00    +0.083 A 
ENDROOT
BRANCH   1   8
ATOM      8  N   UNL     1       1.009   0.098  -0.405  0.00  0.00    -0.354 N 
ATOM      9  H   UNL     1       0.573  -0.801  -0.203  0.00  0.00    +0.142 HD
ATOM     10  H   UNL     1       0.496   0.889  -0.003  0.00  0.00    +0.142 HD
ENDBRANCH   1   8
BRANCH   2  11
ATOM     11  O   UNL     1       2.358  -2.273  -0.267  0.00  0.00    -0.504 OA
ATOM     12  H   UNL     1       2.992  -3.014  -0.280  0.00  0.00    +0.292 HD
ENDBRANCH   2  11
BRANCH   7  13
ATOM     13  C   UNL     1       2.394   2.595   0.152  0.00  0.00    +0.339 C 
ATOM     14  O   UNL     1       1.277   2.720   0.630  0.00  0.00    -0.245 OA
BRANCH  13  15
ATOM     15  O   UNL     1       3.088   3.628  -0.372  0.00  0.00    -0.477 OA
ATOM     16  H   UNL     1       3.866   3.376  -0.901  0.00  0.00    +0.295 HD
ENDBRANCH  13  15
ENDBRANCH   7  13
TORSDOF 4
