REMARK  Name = 
REMARK  4 active torsions:
REMARK  status: ('A' for Active; 'I' for Inactive)
REMARK    1  A    between atoms: C_7  and  N_11
REMARK    2  A    between atoms: N_14  and  C_15
REMARK    3  A    between atoms: C_15  and  C_16
REMARK    4  A    between atoms: C_18  and  C_22
REMARK                            x       y       z     vdW  Elec       q    Type
REMARK                         _______ _______ _______ _____ _____    ______ ____
ROOT
ATOM      1  N   UNL     1       5.599  -2.673  -0.020  0.00  0.00    -0.325 N 
ATOM      2  C   UNL     1       6.147  -3.293  -1.245  0.00  0.00    +0.120 C 
ATOM      3  C   UNL     1       5.846  -4.815  -1.276  0.00  0.00    +0.103 C 
ATOM      4  N   UNL     1       6.232  -5.569  -0.055  0.00  0.00    -0.295 NA
ATOM      5  C   UNL     1       5.621  -4.881   1.109  0.00  0.00    +0.103 C 
ATOM      6  C   UNL     1       5.956  -3.376   1.226  0.00  0.00    +0.120 C 
ENDROOT
BRANCH   1  11
ATOM      7  O   UNL     1       2.366   0.128  -3.049  0.00  0.00    -0.223 OA
ATOM      8  C   UNL     1       3.279   0.124  -2.239  0.00  0.00    +0.419 A 
ATOM      9  O   UNL     1       3.849  -1.033  -1.706  0.00  0.00    -0.406 OA
ATOM     10  C   UNL     1       4.822  -0.526  -0.846  0.00  0.00    +0.178 A 
ATOM     11  C   UNL     1       5.659  -1.277  -0.027  0.00  0.00    +0.075 A 
ATOM     12  C   UNL     1       6.538  -0.528   0.776  0.00  0.00    +0.027 A 
ATOM     13  C   UNL     1       6.566   0.885   0.743  0.00  0.00    +0.004 A 
ATOM     14  C   UNL     1       5.701   1.600  -0.085  0.00  0.00    +0.029 A 
ATOM     15  C   UNL     1       4.845   0.856  -0.858  0.00  0.00    +0.089 A 
ATOM     16  N   UNL     1       3.882   1.254  -1.738  0.00  0.00    -0.288 N 
ATOM     17  H   UNL     1       3.611   2.190  -1.986  0.00  0.00    +0.172 HD
ENDBRANCH   1  11
BRANCH   4  18
ATOM     18  C   UNL     1       7.696  -5.659   0.044  0.00  0.00    +0.119 C 
BRANCH  18  19
ATOM     19  C   UNL     1       8.199  -6.477   1.213  0.00  0.00    -0.033 A 
ATOM     20  C   UNL     1       7.924  -7.841   1.318  0.00  0.00    +0.005 A 
ATOM     21  C   UNL     1       8.480  -8.585   2.357  0.00  0.00    +0.001 A 
ATOM     22  C   UNL     1       9.339  -7.977   3.283  0.00  0.00    +0.008 A 
ATOM     23  C   UNL     1       9.641  -6.606   3.213  0.00  0.00    -0.018 A 
ATOM     24  C   UNL     1       9.017  -5.874   2.183  0.00  0.00    +0.013 A 
BRANCH  23  25
ATOM     25  C   UNL     1      10.601  -5.946   4.134  0.00  0.00    -0.018 A 
ATOM     26  C   UNL     1      11.366  -4.840   3.709  0.00  0.00    +0.008 A 
ATOM     27  C   UNL     1      12.258  -4.183   4.560  0.00  0.00    +0.001 A 
ATOM     28  C   UNL     1      12.430  -4.633   5.862  0.00  0.00    +0.000 A 
ATOM     29  C   UNL     1      11.712  -5.738   6.308  0.00  0.00    +0.001 A 
ATOM     30  C   UNL     1      10.806  -6.384   5.456  0.00  0.00    +0.008 A 
ENDBRANCH  23  25
ENDBRANCH  18  19
ENDBRANCH   4  18
TORSDOF 4
