REMARK  Name = 
REMARK  1 active torsions:
REMARK  status: ('A' for Active; 'I' for Inactive)
REMARK    1  A    between atoms: N_2  and  C_4
REMARK                            x       y       z     vdW  Elec       q    Type
REMARK                         _______ _______ _______ _____ _____    ______ ____
ROOT
ATOM      1  C   UNL     1       3.067  -0.593  -1.084  0.00  0.00    +0.274 A 
ATOM      2  C   UNL     1       3.982   0.023  -1.946  0.00  0.00    +0.086 A 
ATOM      3  C   UNL     1       4.584  -0.704  -2.980  0.00  0.00    +0.033 A 
ATOM      4  C   UNL     1       4.232  -2.054  -3.117  0.00  0.00    +0.048 A 
ATOM      5  N   UNL     1       4.642  -2.993  -4.040  0.00  0.00    -0.354 N 
ATOM      6  H   UNL     1       5.308  -2.814  -4.778  0.00  0.00    +0.166 HD
ATOM      7  C   UNL     1       4.029  -4.202  -3.808  0.00  0.00    +0.053 A 
ATOM      8  C   UNL     1       4.212  -5.415  -4.609  0.00  0.00    +0.020 A 
ATOM      9  C   UNL     1       4.379  -5.296  -6.001  0.00  0.00    +0.012 A 
ATOM     10  C   UNL     1       4.565  -6.424  -6.804  0.00  0.00    +0.001 A 
ATOM     11  C   UNL     1       4.613  -7.686  -6.227  0.00  0.00    +0.002 A 
ATOM     12  C   UNL     1       4.466  -7.823  -4.847  0.00  0.00    +0.024 A 
ATOM     13  C   UNL     1       4.227  -6.705  -4.031  0.00  0.00    +0.043 A 
ATOM     14  N   UNL     1       4.056  -6.992  -2.660  0.00  0.00    -0.285 N 
ATOM     15  H   UNL     1       4.425  -7.870  -2.317  0.00  0.00    +0.155 HD
ATOM     16  C   UNL     1       3.385  -6.305  -1.683  0.00  0.00    +0.222 C 
ATOM     17  O   UNL     1       3.440  -6.722  -0.523  0.00  0.00    -0.275 OA
ATOM     18  C   UNL     1       2.481  -5.152  -2.061  0.00  0.00    +0.134 C 
ATOM     19  C   UNL     1       3.256  -4.049  -2.674  0.00  0.00    -0.005 A 
ATOM     20  C   UNL     1       3.342  -2.692  -2.255  0.00  0.00    +0.010 A 
ATOM     21  C   UNL     1       2.744  -1.952  -1.216  0.00  0.00    +0.094 A 
ENDROOT
BRANCH   1  23
ATOM     22  O   UNL     1       1.588  -0.378   0.695  0.00  0.00    -0.576 OA
ATOM     23  N   UNL     1       2.421   0.193  -0.024  0.00  0.00    +0.080 N 
ATOM     24  O   UNL     1       2.742   1.387   0.083  0.00  0.00    +0.041 OA
ENDBRANCH   1  23
TORSDOF 1
