REMARK  Name = 
REMARK  30 active torsions:
REMARK  status: ('A' for Active; 'I' for Inactive)
REMARK    1  A    between atoms: C_9  and  C_11
REMARK    2  A    between atoms: C_11  and  C_12
REMARK    3  A    between atoms: C_12  and  C_13
REMARK    4  A    between atoms: C_12  and  C_14
REMARK    5  A    between atoms: C_18  and  C_20
REMARK    6  A    between atoms: C_23  and  C_88
REMARK    7  A    between atoms: C_29  and  O_31
REMARK    8  A    between atoms: C_32  and  C_83
REMARK    9  A    between atoms: C_37  and  N_39
REMARK   10  A    between atoms: C_40  and  C_42
REMARK   11  A    between atoms: C_42  and  C_44
REMARK   12  A    between atoms: C_42  and  N_48
REMARK   13  A    between atoms: C_44  and  C_45
REMARK   14  A    between atoms: C_45  and  C_46
REMARK   15  A    between atoms: C_45  and  C_47
REMARK   16  A    between atoms: N_48  and  C_49
REMARK   17  A    between atoms: C_50  and  C_52
REMARK   18  A    between atoms: C_58  and  C_60
REMARK   19  A    between atoms: C_60  and  C_61
REMARK   20  A    between atoms: C_63  and  C_65
REMARK   21  A    between atoms: C_69  and  C_70
REMARK   22  A    between atoms: C_70  and  C_71
REMARK   23  A    between atoms: C_74  and  O_75
REMARK   24  A    between atoms: O_75  and  C_76
REMARK   25  A    between atoms: N_79  and  C_80
REMARK   26  A    between atoms: C_83  and  C_85
REMARK   27  A    between atoms: C_83  and  C_86
REMARK   28  A    between atoms: C_86  and  C_87
REMARK   29  A    between atoms: C_88  and  C_89
REMARK   30  A    between atoms: C_88  and  C_90
REMARK                            x       y       z     vdW  Elec       q    Type
REMARK                         _______ _______ _______ _____ _____    ______ ____
ROOT
ATOM      1  C   UNL     1       8.249  10.547  -2.683  0.00  0.00    +0.162 C 
ATOM      2  C   UNL     1       9.158  10.693  -1.032  0.00  0.00    +0.237 C 
ATOM      3  O   UNL     1       8.273  10.858  -0.139  0.00  0.00    -0.274 OA
ATOM      4  N   UNL     1      10.494  11.135  -0.534  0.00  0.00    -0.289 N 
ATOM      5  C   UNL     1      10.291  12.020   0.638  0.00  0.00    +0.133 C 
ATOM      6  C   UNL     1      12.078  10.527  -0.318  0.00  0.00    +0.189 C 
ATOM      7  C   UNL     1      12.482   9.675   1.010  0.00  0.00    +0.328 C 
ATOM      8  O   UNL     1      12.800  10.367   1.994  0.00  0.00    -0.249 OA
ATOM      9  O   UNL     1      12.595   8.326   1.196  0.00  0.00    -0.458 OA
ATOM     10  C   UNL     1      12.277   7.060   0.519  0.00  0.00    +0.203 C 
ATOM     11  C   UNL     1      13.074   5.810   1.016  0.00  0.00    +0.054 C 
ATOM     12  C   UNL     1      10.775   6.587   0.433  0.00  0.00    +0.200 C 
ATOM     13  C   UNL     1       9.644   7.515  -0.010  0.00  0.00    +0.237 C 
ATOM     14  O   UNL     1       9.147   8.356   0.736  0.00  0.00    -0.274 OA
ATOM     15  N   UNL     1       9.102   7.449  -1.259  0.00  0.00    -0.308 N 
ATOM     16  H   UNL     1       8.396   8.171  -1.273  0.00  0.00    +0.149 HD
ATOM     17  C   UNL     1       9.091   6.570  -2.455  0.00  0.00    +0.105 C 
ATOM     18  C   UNL     1      10.486   6.069  -3.125  0.00  0.00    +0.146 C 
ATOM     19  C   UNL     1      11.743   6.770  -2.695  0.00  0.00    +0.153 C 
ATOM     20  C   UNL     1      11.502   8.212  -2.395  0.00  0.00    +0.310 C 
ATOM     21  O   UNL     1      11.240   8.586  -1.287  0.00  0.00    -0.251 OA
ATOM     22  O   UNL     1      11.653   9.149  -3.366  0.00  0.00    -0.453 OA
ATOM     23  C   UNL     1      10.379   9.673  -3.881  0.00  0.00    +0.245 C 
ATOM     24  C   UNL     1      10.377   8.473  -5.039  0.00  0.00    +0.185 C 
ATOM     25  O   UNL     1      11.539   8.079  -5.331  0.00  0.00    -0.293 OA
ATOM     26  C   UNL     1       9.151   7.690  -5.930  0.00  0.00    +0.142 C 
ATOM     27  C   UNL     1       8.062   6.839  -5.378  0.00  0.00    +0.025 C 
ATOM     28  C   UNL     1       8.504   8.124  -7.237  0.00  0.00    +0.224 C 
ATOM     29  O   UNL     1       7.561   7.581  -7.810  0.00  0.00    -0.275 OA
ATOM     30  N   UNL     1       9.036   9.192  -7.812  0.00  0.00    -0.303 N 
ATOM     31  H   UNL     1       8.642   9.523  -8.691  0.00  0.00    +0.149 HD
ATOM     32  C   UNL     1      10.087   9.835  -7.140  0.00  0.00    +0.159 C 
ATOM     33  C   UNL     1       8.626  10.320  -5.948  0.00  0.00    +0.237 C 
ATOM     34  O   UNL     1       7.707  10.977  -6.519  0.00  0.00    -0.274 OA
ATOM     35  N   UNL     1       8.125   9.886  -4.404  0.00  0.00    -0.288 N 
ATOM     36  C   UNL     1       6.643   9.758  -4.475  0.00  0.00    +0.109 C 
ATOM     37  C   UNL     1       6.186   9.168  -3.153  0.00  0.00    +0.021 C 
ATOM     38  C   UNL     1       6.866  10.000  -2.105  0.00  0.00    +0.033 C 
ENDROOT
BRANCH  12  39
ATOM     39  N   UNL     1      10.204   5.962   1.603  0.00  0.00    -0.299 N 
ATOM     40  H   UNL     1       9.395   5.373   1.454  0.00  0.00    +0.150 HD
ATOM     41  C   UNL     1      10.178   6.650   2.792  0.00  0.00    +0.234 C 
ATOM     42  O   UNL     1      10.819   7.672   3.014  0.00  0.00    -0.274 OA
BRANCH  41  43
ATOM     43  C   UNL     1       9.459   5.873   3.875  0.00  0.00    +0.162 C 
BRANCH  43  44
ATOM     44  N   UNL     1       8.779   6.690   4.899  0.00  0.00    -0.291 N 
ATOM     45  C   UNL     1       7.975   6.005   5.788  0.00  0.00    +0.236 C 
ATOM     46  O   UNL     1       7.762   4.792   5.662  0.00  0.00    -0.274 OA
ATOM     47  C   UNL     1       8.706   8.157   4.778  0.00  0.00    +0.133 C 
BRANCH  45  48
ATOM     48  C   UNL     1       7.407   6.771   7.005  0.00  0.00    +0.162 C 
ATOM     49  N   UNL     1       6.491   5.895   7.729  0.00  0.00    -0.284 N 
ATOM     50  C   UNL     1       5.212   5.590   7.382  0.00  0.00    +0.282 C 
ATOM     51  O   UNL     1       4.546   4.776   8.019  0.00  0.00    -0.267 OA
ATOM     52  C   UNL     1       7.186   5.171   8.774  0.00  0.00    +0.109 C 
ATOM     53  C   UNL     1       8.630   5.673   8.743  0.00  0.00    +0.021 C 
ATOM     54  C   UNL     1       8.539   7.009   8.014  0.00  0.00    +0.033 C 
BRANCH  50  55
ATOM     55  C   UNL     1       4.517   6.279   6.183  0.00  0.00    +0.214 C 
ATOM     56  O   UNL     1       5.121   7.055   5.451  0.00  0.00    -0.287 OA
ATOM     57  C   UNL     1       3.067   5.947   5.943  0.00  0.00    +0.096 C 
ENDBRANCH  50  55
ENDBRANCH  45  48
ENDBRANCH  43  44
BRANCH  43  58
ATOM     58  C   UNL     1      10.533   4.857   4.363  0.00  0.00    +0.035 C 
BRANCH  58  59
ATOM     59  C   UNL     1      11.894   5.461   4.790  0.00  0.00    -0.015 C 
ATOM     60  C   UNL     1      12.911   4.358   5.059  0.00  0.00    +0.007 C 
ATOM     61  C   UNL     1      11.785   6.375   5.997  0.00  0.00    +0.007 C 
ENDBRANCH  58  59
ENDBRANCH  43  58
ENDBRANCH  41  43
ENDBRANCH  12  39
BRANCH  23  62
ATOM     62  C   UNL     1      10.422  11.528  -4.039  0.00  0.00    +0.031 C 
ATOM     63  C   UNL     1      10.581  12.560  -2.827  0.00  0.00    +0.011 C 
ATOM     64  C   UNL     1       9.337  12.444  -4.805  0.00  0.00    +0.011 C 
ENDBRANCH  23  62
BRANCH  17  65
ATOM     65  C   UNL     1       8.023   5.455  -2.177  0.00  0.00    +0.008 C 
ATOM     66  C   UNL     1       7.250   4.847  -3.353  0.00  0.00    +0.009 C 
BRANCH  65  67
ATOM     67  C   UNL     1       8.721   4.385  -1.355  0.00  0.00    +0.002 C 
ATOM     68  C   UNL     1       7.923   3.190  -0.948  0.00  0.00    +0.004 C 
ENDBRANCH  65  67
ENDBRANCH  17  65
BRANCH  18  69
ATOM     69  O   UNL     1      10.561   5.979  -4.536  0.00  0.00    -0.389 OA
ATOM     70  H   UNL     1      11.420   6.344  -4.865  0.00  0.00    +0.210 HD
ENDBRANCH  18  69
BRANCH  32  71
ATOM     71  C   UNL     1      11.295   8.662  -7.977  0.00  0.00    +0.034 C 
BRANCH  71  72
ATOM     72  C   UNL     1      12.191   7.148  -7.880  0.00  0.00    -0.015 C 
ATOM     73  C   UNL     1      11.586   5.719  -7.750  0.00  0.00    +0.007 C 
ATOM     74  C   UNL     1      13.596   7.050  -7.195  0.00  0.00    +0.007 C 
ENDBRANCH  71  72
ENDBRANCH  32  71
BRANCH   6  75
ATOM     75  C   UNL     1      12.980  10.428  -1.593  0.00  0.00    +0.069 C 
BRANCH  75  76
ATOM     76  C   UNL     1      14.319  10.857  -2.153  0.00  0.00    -0.045 A 
ATOM     77  C   UNL     1      14.345  11.178  -3.536  0.00  0.00    +0.007 A 
ATOM     78  C   UNL     1      15.512  11.136  -4.300  0.00  0.00    +0.046 A 
ATOM     79  C   UNL     1      16.707  10.790  -3.694  0.00  0.00    +0.120 A 
ATOM     80  C   UNL     1      16.700  10.475  -2.325  0.00  0.00    +0.046 A 
ATOM     81  C   UNL     1      15.521  10.495  -1.558  0.00  0.00    +0.007 A 
BRANCH  79  82
ATOM     82  O   UNL     1      17.925  10.725  -4.302  0.00  0.00    -0.495 OA
ATOM     83  C   UNL     1      18.011  10.690  -5.723  0.00  0.00    +0.277 C 
ENDBRANCH  79  82
ENDBRANCH  75  76
ENDBRANCH   6  75
TORSDOF 16
