REMARK  Name = 
REMARK  24 active torsions:
REMARK  status: ('A' for Active; 'I' for Inactive)
REMARK    1  A    between atoms: C_1  and  C_2
REMARK    2  A    between atoms: C_2  and  O_3
REMARK    3  A    between atoms: O_3  and  P_4
REMARK    4  A    between atoms: P_4  and  O_6
REMARK    5  A    between atoms: P_4  and  C_9
REMARK    6  A    between atoms: O_6  and  C_7
REMARK    7  A    between atoms: C_7  and  C_8
REMARK    8  A    between atoms: C_9  and  P_26
REMARK    9  A    between atoms: C_10  and  C_11
REMARK   10  A    between atoms: C_13  and  C_22
REMARK   11  A    between atoms: C_14  and  O_15
REMARK   12  A    between atoms: C_16  and  C_18
REMARK   13  A    between atoms: C_18  and  C_19
REMARK   14  A    between atoms: C_18  and  C_20
REMARK   15  A    between atoms: C_18  and  C_21
REMARK   16  A    between atoms: C_22  and  C_23
REMARK   17  A    between atoms: C_22  and  C_24
REMARK   18  A    between atoms: C_22  and  C_25
REMARK   19  A    between atoms: P_26  and  O_28
REMARK   20  A    between atoms: P_26  and  O_31
REMARK   21  A    between atoms: O_28  and  C_29
REMARK   22  A    between atoms: C_29  and  C_30
REMARK   23  A    between atoms: O_31  and  C_32
REMARK   24  A    between atoms: C_32  and  C_33
REMARK                            x       y       z     vdW  Elec       q    Type
REMARK                         _______ _______ _______ _____ _____    ______ ____
ROOT
ATOM      1  C   UNL     1       6.518  -0.645  -1.222  0.00  0.00    +0.152 C 
ATOM      2  C   UNL     1       7.228  -0.340  -2.370  0.00  0.00    +0.032 C 
ENDROOT
BRANCH   2   3
ATOM      3  C   UNL     1       6.770  -0.323  -3.790  0.00  0.00    -0.023 A 
ATOM      4  C   UNL     1       6.153  -1.488  -4.244  0.00  0.00    +0.015 A 
ATOM      5  C   UNL     1       5.675  -1.662  -5.547  0.00  0.00    +0.000 A 
ATOM      6  C   UNL     1       5.912  -0.603  -6.447  0.00  0.00    +0.124 A 
ATOM      7  C   UNL     1       6.582   0.600  -6.088  0.00  0.00    +0.000 A 
ATOM      8  C   UNL     1       7.002   0.710  -4.726  0.00  0.00    +0.015 A 
BRANCH   5   9
ATOM      9  C   UNL     1       5.041  -3.014  -5.946  0.00  0.00    -0.009 C 
ATOM     10  C   UNL     1       3.682  -2.863  -6.656  0.00  0.00    +0.015 C 
ATOM     11  C   UNL     1       4.759  -3.952  -4.738  0.00  0.00    +0.015 C 
ATOM     12  C   UNL     1       6.032  -3.759  -6.862  0.00  0.00    +0.015 C 
ENDBRANCH   5   9
BRANCH   7  13
ATOM     13  C   UNL     1       6.993   1.682  -7.138  0.00  0.00    -0.009 C 
ATOM     14  C   UNL     1       7.128   3.108  -6.545  0.00  0.00    +0.015 C 
ATOM     15  C   UNL     1       6.036   1.870  -8.351  0.00  0.00    +0.015 C 
ATOM     16  C   UNL     1       8.375   1.267  -7.690  0.00  0.00    +0.015 C 
ENDBRANCH   7  13
BRANCH   6  17
ATOM     17  O   UNL     1       5.544  -0.811  -7.744  0.00  0.00    -0.506 OA
ATOM     18  H   UNL     1       6.374  -0.929  -8.233  0.00  0.00    +0.292 HD
ENDBRANCH   6  17
ENDBRANCH   2   3
BRANCH   1  19
ATOM     19  P   UNL     1       4.688  -0.645  -1.222  0.00  0.00    +0.371 P 
ATOM     20  O   UNL     1       4.664  -2.151  -1.545  0.00  0.00    -0.253 OA
BRANCH  19  21
ATOM     21  O   UNL     1       2.958  -0.645  -1.222  0.00  0.00    -0.305 OA
BRANCH  21  23
ATOM     22  C   UNL     1       0.875  -1.360  -0.250  0.00  0.00    +0.034 C 
ATOM     23  C   UNL     1       2.385  -1.422  -0.171  0.00  0.00    +0.167 C 
ENDBRANCH  21  23
ENDBRANCH  19  21
BRANCH  19  24
ATOM     24  O   UNL     1       4.497   0.273  -2.622  0.00  0.00    -0.305 OA
BRANCH  24  25
ATOM     25  C   UNL     1       3.324   1.070  -2.872  0.00  0.00    +0.167 C 
ATOM     26  C   UNL     1       3.146   1.476  -4.328  0.00  0.00    +0.034 C 
ENDBRANCH  24  25
ENDBRANCH  19  24
ENDBRANCH   1  19
BRANCH   1  27
ATOM     27  P   UNL     1       7.433  -0.889   0.344  0.00  0.00    +0.371 P 
ATOM     28  O   UNL     1       8.560  -1.689  -0.339  0.00  0.00    -0.253 OA
BRANCH  27  29
ATOM     29  O   UNL     1       8.298  -1.120   1.824  0.00  0.00    -0.305 OA
BRANCH  29  30
ATOM     30  C   UNL     1       7.492  -1.721   2.826  0.00  0.00    +0.167 C 
ATOM     31  C   UNL     1       8.304  -1.886   4.092  0.00  0.00    +0.034 C 
ENDBRANCH  29  30
ENDBRANCH  27  29
BRANCH  27  32
ATOM     32  O   UNL     1       7.826   0.721   0.364  0.00  0.00    -0.305 OA
BRANCH  32  33
ATOM     33  C   UNL     1       9.117   1.215   0.709  0.00  0.00    +0.167 C 
ATOM     34  C   UNL     1      10.171   1.007  -0.363  0.00  0.00    +0.034 C 
ENDBRANCH  32  33
ENDBRANCH  27  32
ENDBRANCH   1  27
TORSDOF 14
