REMARK  Name = 
REMARK  10 active torsions:
REMARK  status: ('A' for Active; 'I' for Inactive)
REMARK    1  A    between atoms: C_1  and  O_2
REMARK    2  A    between atoms: O_2  and  C_3
REMARK    3  A    between atoms: C_8  and  O_9
REMARK    4  A    between atoms: O_9  and  C_10
REMARK    5  A    between atoms: C_10  and  C_11
REMARK    6  A    between atoms: C_11  and  C_12
REMARK    7  A    between atoms: C_12  and  N_13
REMARK    8  A    between atoms: C_21  and  O_22
REMARK    9  A    between atoms: O_22  and  C_23
REMARK   10  A    between atoms: C_29  and  C_30
REMARK                            x       y       z     vdW  Elec       q    Type
REMARK                         _______ _______ _______ _____ _____    ______ ____
ROOT
ATOM      1  C   UNL     1       3.165   0.714  -0.817  0.00  0.00    +0.162 A 
ATOM      2  C   UNL     1       2.692   2.022  -0.646  0.00  0.00    +0.164 A 
ATOM      3  C   UNL     1       3.371   3.081  -1.276  0.00  0.00    +0.078 A 
ATOM      4  C   UNL     1       4.504   2.886  -2.061  0.00  0.00    +0.082 A 
ATOM      5  N   UNL     1       5.068   3.913  -2.708  0.00  0.00    -0.235 NA
ATOM      6  C   UNL     1       6.132   3.642  -3.479  0.00  0.00    +0.225 A 
ATOM      7  N   UNL     1       6.704   2.446  -3.640  0.00  0.00    -0.201 NA
ATOM      8  C   UNL     1       6.176   1.456  -2.901  0.00  0.00    +0.231 A 
ATOM      9  C   UNL     1       5.016   1.596  -2.144  0.00  0.00    +0.066 A 
ATOM     10  C   UNL     1       4.362   0.521  -1.506  0.00  0.00    +0.064 A 
ENDROOT
BRANCH   1  12
ATOM     11  C   UNL     1       2.549  -1.558  -1.054  0.00  0.00    +0.277 C 
ATOM     12  O   UNL     1       2.472  -0.348  -0.304  0.00  0.00    -0.491 OA
ENDBRANCH   1  12
BRANCH   2  13
ATOM     13  O   UNL     1       1.593   2.445   0.056  0.00  0.00    -0.488 OA
BRANCH  13  14
ATOM     14  C   UNL     1       0.867   1.477   0.814  0.00  0.00    +0.230 C 
BRANCH  14  15
ATOM     15  C   UNL     1      -0.214   2.200   1.613  0.00  0.00    +0.056 C 
BRANCH  15  16
ATOM     16  C   UNL     1      -1.112   1.225   2.382  0.00  0.00    +0.087 C 
BRANCH  16  17
ATOM     17  N   UNL     1      -0.392   0.400   3.356  0.00  0.00    -0.302 NA
ATOM     18  C   UNL     1      -1.262  -0.601   3.984  0.00  0.00    +0.084 C 
ATOM     19  C   UNL     1      -0.705  -0.817   5.387  0.00  0.00    +0.017 C 
ATOM     20  C   UNL     1       0.486   0.119   5.494  0.00  0.00    +0.017 C 
ATOM     21  C   UNL     1       0.211   1.175   4.442  0.00  0.00    +0.084 C 
ENDBRANCH  16  17
ENDBRANCH  15  16
ENDBRANCH  14  15
ENDBRANCH  13  14
ENDBRANCH   2  13
BRANCH   8  22
ATOM     22  O   UNL     1       6.754   0.188  -2.913  0.00  0.00    -0.434 OA
BRANCH  22  23
ATOM     23  C   UNL     1       8.095   0.055  -3.183  0.00  0.00    +0.166 A 
ATOM     24  C   UNL     1       8.462  -1.156  -3.784  0.00  0.00    +0.051 A 
ATOM     25  C   UNL     1       9.785  -1.412  -4.165  0.00  0.00    +0.030 A 
ATOM     26  C   UNL     1      10.711  -0.380  -3.981  0.00  0.00    +0.050 A 
ATOM     27  N   UNL     1      12.031  -0.283  -4.362  0.00  0.00    -0.358 N 
ATOM     28  H   UNL     1      12.538  -1.006  -4.853  0.00  0.00    +0.166 HD
ATOM     29  C   UNL     1      12.501   0.985  -4.114  0.00  0.00    +0.014 A 
ATOM     30  C   UNL     1      11.539   1.642  -3.376  0.00  0.00    +0.033 A 
ATOM     31  C   UNL     1      13.797   1.473  -4.642  0.00  0.00    +0.063 C 
ATOM     32  C   UNL     1      10.386   0.815  -3.340  0.00  0.00    +0.039 A 
ATOM     33  C   UNL     1       9.079   0.995  -2.862  0.00  0.00    +0.175 A 
ATOM     34  F   UNL     1       8.797   2.086  -2.131  0.00  0.00    -0.201 F 
ENDBRANCH  22  23
ENDBRANCH   8  22
TORSDOF 8
