REMARK  Name = 
REMARK  10 active torsions:
REMARK  status: ('A' for Active; 'I' for Inactive)
REMARK    1  A    between atoms: C_1  and  C_2
REMARK    2  A    between atoms: C_6  and  O_8
REMARK    3  A    between atoms: C_9  and  O_11
REMARK    4  A    between atoms: C_12  and  N_14
REMARK    5  A    between atoms: N_14  and  C_15
REMARK    6  A    between atoms: C_18  and  C_19
REMARK    7  A    between atoms: C_19  and  O_20
REMARK    8  A    between atoms: C_21  and  O_23
REMARK    9  A    between atoms: C_24  and  O_26
REMARK   10  A    between atoms: C_27  and  O_29
REMARK                            x       y       z     vdW  Elec       q    Type
REMARK                         _______ _______ _______ _____ _____    ______ ____
ROOT
ATOM      1  C   UNL     1       2.040   2.053   0.940  0.00  0.00    +0.109 C 
ATOM      2  C   UNL     1       1.836   3.599   0.761  0.00  0.00    +0.166 C 
ATOM      3  C   UNL     1       2.050   4.429   2.042  0.00  0.00    +0.177 C 
ATOM      4  C   UNL     1       3.443   4.159   2.655  0.00  0.00    +0.173 C 
ATOM      5  C   UNL     1       3.845   2.701   2.630  0.00  0.00    -0.016 C 
ATOM      6  C   UNL     1       3.203   1.786   1.875  0.00  0.00    -0.002 C 
ENDROOT
BRANCH   1   7
ATOM      7  N   UNL     1       0.797   1.366   1.386  0.00  0.00    -0.300 NA
ATOM      8  H   UNL     1       0.609   1.696   2.335  0.00  0.00    +0.123 HD
BRANCH   7  11
ATOM      9  C   UNL     1      -1.676  -0.062   2.220  0.00  0.00    +0.039 C 
ATOM     10  C   UNL     1      -0.303  -0.735   2.271  0.00  0.00    +0.135 C 
ATOM     11  C   UNL     1       0.819  -0.132   1.364  0.00  0.00    +0.114 C 
ATOM     12  C   UNL     1       0.911  -0.806  -0.056  0.00  0.00    +0.164 C 
ATOM     13  C   UNL     1       0.549  -2.302  -0.046  0.00  0.00    +0.170 C 
ATOM     14  C   UNL     1      -0.724  -2.540   0.754  0.00  0.00    +0.194 C 
ATOM     15  O   UNL     1      -0.475  -2.150   2.107  0.00  0.00    -0.373 OA
BRANCH  12  16
ATOM     16  O   UNL     1       0.092  -0.154  -1.039  0.00  0.00    -0.388 OA
ATOM     17  H   UNL     1      -0.662   0.259  -0.586  0.00  0.00    +0.210 HD
ENDBRANCH  12  16
BRANCH  13  18
ATOM     18  O   UNL     1       1.620  -3.065   0.527  0.00  0.00    -0.387 OA
ATOM     19  H   UNL     1       1.301  -3.410   1.383  0.00  0.00    +0.210 HD
ENDBRANCH  13  18
ENDBRANCH   7  11
ENDBRANCH   1   7
BRANCH   2  20
ATOM     20  O   UNL     1       0.529   3.893   0.246  0.00  0.00    -0.387 OA
ATOM     21  H   UNL     1      -0.068   3.332   0.780  0.00  0.00    +0.210 HD
ENDBRANCH   2  20
BRANCH   3  22
ATOM     22  O   UNL     1       1.017   4.154   3.002  0.00  0.00    -0.386 OA
ATOM     23  H   UNL     1       0.900   4.969   3.531  0.00  0.00    +0.210 HD
ENDBRANCH   3  22
BRANCH   4  24
ATOM     24  O   UNL     1       4.480   4.900   2.014  0.00  0.00    -0.385 OA
ATOM     25  H   UNL     1       4.165   5.238   1.159  0.00  0.00    +0.210 HD
ENDBRANCH   4  24
BRANCH   5  26
ATOM     26  C   UNL     1       5.020   2.379   3.526  0.00  0.00    +0.189 C 
BRANCH  26  27
ATOM     27  O   UNL     1       5.285   0.992   3.583  0.00  0.00    -0.391 OA
ATOM     28  H   UNL     1       4.531   0.581   4.038  0.00  0.00    +0.210 HD
ENDBRANCH  26  27
ENDBRANCH   5  26
TORSDOF 9
