REMARK  Name = 
REMARK  6 active torsions:
REMARK  status: ('A' for Active; 'I' for Inactive)
REMARK    1  A    between atoms: N_1  and  CA_2
REMARK    2  A    between atoms: CA_2  and  C_4
REMARK    3  A    between atoms: CA_2  and  C_13
REMARK    4  A    between atoms: C_4  and  C_5
REMARK    5  A    between atoms: C_9  and  O_10
REMARK    6  A    between atoms: C_13  and  O_14
REMARK                            x       y       z     vdW  Elec       q    Type
REMARK                         _______ _______ _______ _____ _____    ______ ____
ROOT
ATOM      1  C   UNL     1       3.050  -1.368  -0.163  0.00  0.00    +0.065 C 
ENDROOT
BRANCH   1   2
ATOM      2  C   UNL     1       2.588  -2.312   0.927  0.00  0.00    -0.042 A 
ATOM      3  C   UNL     1       3.292  -2.418   2.138  0.00  0.00    +0.007 A 
ATOM      4  C   UNL     1       2.827  -3.248   3.163  0.00  0.00    +0.048 A 
ATOM      5  C   UNL     1       1.665  -3.984   2.973  0.00  0.00    +0.152 A 
ATOM      6  C   UNL     1       0.975  -3.906   1.770  0.00  0.00    +0.165 A 
ATOM      7  F   UNL     1      -0.139  -4.633   1.601  0.00  0.00    -0.202 F 
ATOM      8  C   UNL     1       1.425  -3.079   0.747  0.00  0.00    +0.045 A 
BRANCH   5   9
ATOM      9  O   UNL     1       1.218  -4.780   3.989  0.00  0.00    -0.504 OA
ATOM     10  H   UNL     1       0.391  -5.193   3.676  0.00  0.00    +0.292 HD
ENDBRANCH   5   9
ENDBRANCH   1   2
BRANCH   1  11
ATOM     11  CA  UNL     1       2.447   0.048  -0.101  0.00  0.00    +0.165 C 
BRANCH  11  12
ATOM     12  N   UNL     1       2.805   0.807   1.140  0.00  0.00    -0.318 NA
ATOM     13  H1  UNL     1       2.797   0.155   1.932  0.00  0.00    +0.119 HD
ATOM     14  H2  UNL     1       3.787   1.087   1.058  0.00  0.00    +0.119 HD
ENDBRANCH  11  12
BRANCH  11  15
ATOM     15  C   UNL     1       0.917   0.020  -0.246  0.00  0.00    +0.322 C 
ATOM     16  OXT UNL     1       0.303  -0.575  -1.116  0.00  0.00    -0.249 OA
BRANCH  15  17
ATOM     17  O   UNL     1       0.315   0.772   0.713  0.00  0.00    -0.480 OA
ATOM     18  H   UNL     1       1.050   1.167   1.245  0.00  0.00    +0.295 HD
ENDBRANCH  15  17
ENDBRANCH  11  15
ENDBRANCH   1  11
TORSDOF 6
