REMARK  Name = 
REMARK  19 active torsions:
REMARK  status: ('A' for Active; 'I' for Inactive)
REMARK    1  A    between atoms: N_10  and  C_11
REMARK    2  A    between atoms: C_14  and  C_16
REMARK    3  A    between atoms: C_16  and  O_17
REMARK    4  A    between atoms: O_17  and  P_18
REMARK    5  A    between atoms: P_18  and  O_19
REMARK    6  A    between atoms: P_18  and  C_21
REMARK    7  A    between atoms: C_21  and  P_22
REMARK    8  A    between atoms: P_22  and  O_23
REMARK    9  A    between atoms: P_22  and  O_25
REMARK   10  A    between atoms: O_25  and  P_26
REMARK   11  A    between atoms: P_26  and  S_27
REMARK   12  A    between atoms: P_26  and  O_29
REMARK   13  A    between atoms: O_29  and  C_30
REMARK   14  A    between atoms: C_30  and  C_31
REMARK   15  A    between atoms: C_34  and  N_42
REMARK   16  A    between atoms: C_36  and  O_38
REMARK   17  A    between atoms: C_39  and  O_41
REMARK   18  A    between atoms: C_52  and  O_54
REMARK   19  A    between atoms: C_55  and  O_57
REMARK                            x       y       z     vdW  Elec       q    Type
REMARK                         _______ _______ _______ _____ _____    ______ ____
ROOT
ATOM      1  P   UNL     1       3.730  -4.375   5.094  0.00  0.00    +0.349 P 
ATOM      2  O   UNL     1       4.221  -5.565   4.268  0.00  0.00    -0.258 OA
ENDROOT
BRANCH   1   3
ATOM      3  O   UNL     1       4.685  -4.948   6.419  0.00  0.00    -0.323 OA
ATOM      4  H   UNL     1       4.204  -5.673   6.870  0.00  0.00    +0.220 HD
ENDBRANCH   1   3
BRANCH   1   5
ATOM      5  O   UNL     1       2.775  -3.803   3.770  0.00  0.00    -0.222 OA
BRANCH   5   6
ATOM      6  P   UNL     1       1.134  -4.178   4.168  0.00  0.00    +0.395 P 
ATOM      7  O   UNL     1       1.130  -4.798   5.574  0.00  0.00    -0.246 OA
BRANCH   6   8
ATOM      8  S   UNL     1       0.947  -2.311   5.156  0.00  0.00    -0.058 S 
ATOM      9  H   UNL     1      -0.250  -2.598   5.685  0.00  0.00    +0.114 HD
ENDBRANCH   6   8
BRANCH   6  10
ATOM     10  O   UNL     1       1.287  -5.701   3.362  0.00  0.00    -0.297 OA
BRANCH  10  11
ATOM     11  C   UNL     1       0.208  -6.594   3.712  0.00  0.00    +0.205 C 
BRANCH  11  12
ATOM     12  C   UNL     1      -0.465  -7.581   2.710  0.00  0.00    +0.178 C 
ATOM     13  C   UNL     1      -0.484  -7.388   1.191  0.00  0.00    +0.178 C 
ATOM     14  C   UNL     1       0.501  -8.429   0.620  0.00  0.00    +0.195 C 
ATOM     15  C   UNL     1       1.132  -9.011   1.884  0.00  0.00    +0.253 C 
ATOM     16  O   UNL     1       0.111  -8.890   2.892  0.00  0.00    -0.346 OA
BRANCH  15  17
ATOM     17  N   UNL     1       1.603 -10.378   1.892  0.00  0.00    -0.286 N 
ATOM     18  C   UNL     1       2.286 -11.032   0.901  0.00  0.00    +0.167 A 
ATOM     19  N   UNL     1       2.334 -10.748  -0.414  0.00  0.00    -0.216 NA
ATOM     20  C   UNL     1       3.197 -11.580  -1.045  0.00  0.00    +0.225 A 
ATOM     21  N   UNL     1       4.014 -12.516  -0.511  0.00  0.00    -0.219 NA
ATOM     22  C   UNL     1       3.966 -12.717   0.824  0.00  0.00    +0.147 A 
ATOM     23  N   UNL     1       4.882 -13.575   1.405  0.00  0.00    -0.341 N 
ATOM     24  H   UNL     1       4.686 -13.854   2.358  0.00  0.00    +0.144 HD
ATOM     25  H   UNL     1       5.349 -14.209   0.775  0.00  0.00    +0.144 HD
ATOM     26  C   UNL     1       3.013 -12.008   1.571  0.00  0.00    +0.147 A 
ATOM     27  N   UNL     1       2.677 -12.055   2.906  0.00  0.00    -0.231 NA
ATOM     28  C   UNL     1       1.806 -11.084   3.057  0.00  0.00    +0.203 A 
ENDBRANCH  15  17
BRANCH  14  29
ATOM     29  O   UNL     1       1.465  -7.789  -0.218  0.00  0.00    -0.385 OA
ATOM     30  H   UNL     1       2.007  -8.499  -0.618  0.00  0.00    +0.210 HD
ENDBRANCH  14  29
BRANCH  13  31
ATOM     31  O   UNL     1      -1.813  -7.718   0.715  0.00  0.00    -0.386 OA
ATOM     32  H   UNL     1      -2.080  -8.579   1.092  0.00  0.00    +0.210 HD
ENDBRANCH  13  31
ENDBRANCH  11  12
ENDBRANCH  10  11
ENDBRANCH   6  10
ENDBRANCH   5   6
ENDBRANCH   1   5
BRANCH   1  33
ATOM     33  C   UNL     1       4.875  -2.964   4.879  0.00  0.00    +0.254 C 
BRANCH  33  34
ATOM     34  P   UNL     1       4.910  -1.968   6.414  0.00  0.00    +0.342 P 
ATOM     35  O   UNL     1       6.151  -1.232   5.902  0.00  0.00    -0.258 OA
BRANCH  34  36
ATOM     36  O   UNL     1       3.624  -1.094   5.911  0.00  0.00    -0.324 OA
ATOM     37  H   UNL     1       2.782  -1.204   6.389  0.00  0.00    +0.220 HD
ENDBRANCH  34  36
BRANCH  34  38
ATOM     38  O   UNL     1       4.943  -1.027   7.865  0.00  0.00    -0.305 OA
BRANCH  38  39
ATOM     39  C   UNL     1       4.794  -1.772   9.064  0.00  0.00    +0.204 C 
BRANCH  39  43
ATOM     40  C   UNL     1       4.280  -0.605  12.499  0.00  0.00    +0.253 C 
ATOM     41  C   UNL     1       3.330   0.326  11.731  0.00  0.00    +0.195 C 
ATOM     42  C   UNL     1       3.806   0.258  10.278  0.00  0.00    +0.178 C 
ATOM     43  C   UNL     1       4.873  -0.840  10.276  0.00  0.00    +0.178 C 
ATOM     44  O   UNL     1       4.685  -1.582  11.497  0.00  0.00    -0.346 OA
BRANCH  40  52
ATOM     45  N   UNL     1       8.480   2.412  15.668  0.00  0.00    -0.341 N 
ATOM     46  H   UNL     1       9.188   1.818  15.266  0.00  0.00    +0.144 HD
ATOM     47  H   UNL     1       8.718   3.389  15.830  0.00  0.00    +0.144 HD
ATOM     48  C   UNL     1       7.235   2.282  15.062  0.00  0.00    +0.147 A 
ATOM     49  C   UNL     1       6.857   1.151  14.316  0.00  0.00    +0.147 A 
ATOM     50  N   UNL     1       7.524  -0.011  13.997  0.00  0.00    -0.231 NA
ATOM     51  C   UNL     1       6.654  -0.714  13.305  0.00  0.00    +0.203 A 
ATOM     52  N   UNL     1       5.464  -0.045  13.125  0.00  0.00    -0.286 N 
ATOM     53  C   UNL     1       5.574   1.147  13.789  0.00  0.00    +0.167 A 
ATOM     54  N   UNL     1       4.644   2.113  13.919  0.00  0.00    -0.216 NA
ATOM     55  C   UNL     1       5.133   3.158  14.622  0.00  0.00    +0.225 A 
ATOM     56  N   UNL     1       6.350   3.295  15.187  0.00  0.00    -0.219 NA
ENDBRANCH  40  52
BRANCH  42  57
ATOM     57  O   UNL     1       4.357   1.503   9.867  0.00  0.00    -0.386 OA
ATOM     58  H   UNL     1       4.663   1.399   8.944  0.00  0.00    +0.210 HD
ENDBRANCH  42  57
BRANCH  41  59
ATOM     59  O   UNL     1       1.982  -0.201  11.799  0.00  0.00    -0.385 OA
ATOM     60  H   UNL     1       2.008  -1.145  11.563  0.00  0.00    +0.210 HD
ENDBRANCH  41  59
ENDBRANCH  39  43
ENDBRANCH  38  39
ENDBRANCH  34  38
ENDBRANCH  33  34
ENDBRANCH   1  33
TORSDOF 19
