REMARK  Name = 
REMARK  13 active torsions:
REMARK  status: ('A' for Active; 'I' for Inactive)
REMARK    1  A    between atoms: C_1  and  C_2
REMARK    2  A    between atoms: C_2  and  O_4
REMARK    3  A    between atoms: O_4  and  C_5
REMARK    4  A    between atoms: C_5  and  C_6
REMARK    5  A    between atoms: C_6  and  O_8
REMARK    6  A    between atoms: C_6  and  C_9
REMARK    7  A    between atoms: C_9  and  O_10
REMARK    8  A    between atoms: O_10  and  P_11
REMARK    9  A    between atoms: P_11  and  O_12
REMARK   10  A    between atoms: P_11  and  O_14
REMARK   11  A    between atoms: O_14  and  C_15
REMARK   12  A    between atoms: C_15  and  C_16
REMARK   13  A    between atoms: C_16  and  N_17
REMARK                            x       y       z     vdW  Elec       q    Type
REMARK                         _______ _______ _______ _____ _____    ______ ____
ROOT
ATOM      1  P   UNL     1       9.226   0.124   3.820  0.00  0.00    +0.475 P 
ATOM      2  O   UNL     1      10.430   0.628   4.556  0.00  0.00    -0.227 OA
ENDROOT
BRANCH   1   3
ATOM      3  O   UNL     1       7.932  -0.091   4.722  0.00  0.00    -0.302 OA
ATOM      4  H   UNL     1       7.795   0.632   5.366  0.00  0.00    +0.222 HD
ENDBRANCH   1   3
BRANCH   1   5
ATOM      5  O   UNL     1       8.740   1.037   2.604  0.00  0.00    -0.284 OA
BRANCH   5   6
ATOM      6  C   UNL     1       7.667   0.605   1.766  0.00  0.00    +0.207 C 
BRANCH   6   7
ATOM      7  C   UNL     1       7.867   1.292   0.416  0.00  0.00    +0.178 C 
BRANCH   7   8
ATOM      8  O   UNL     1       9.136   0.850  -0.115  0.00  0.00    -0.386 OA
ATOM      9  H   UNL     1       9.769   1.549   0.125  0.00  0.00    +0.210 HD
ENDBRANCH   7   8
BRANCH   7  10
ATOM     10  C   UNL     1       6.744   0.983  -0.583  0.00  0.00    +0.265 C 
BRANCH  10  11
ATOM     11  O   UNL     1       6.834   1.860  -1.726  0.00  0.00    -0.462 OA
BRANCH  11  13
ATOM     12  C   UNL     1       6.596   3.978  -2.728  0.00  0.00    +0.136 C 
ATOM     13  C   UNL     1       6.412   3.135  -1.504  0.00  0.00    +0.304 C 
ATOM     14  O   UNL     1       5.986   3.551  -0.431  0.00  0.00    -0.251 OA
ENDBRANCH  11  13
ENDBRANCH  10  11
ENDBRANCH   7  10
ENDBRANCH   6   7
ENDBRANCH   5   6
ENDBRANCH   1   5
BRANCH   1  15
ATOM     15  O   UNL     1       9.540  -1.311   3.177  0.00  0.00    -0.281 OA
BRANCH  15  16
ATOM     16  C   UNL     1      10.415  -1.404   2.051  0.00  0.00    +0.223 C 
BRANCH  16  17
ATOM     17  C   UNL     1      11.617  -0.450   2.084  0.00  0.00    +0.156 C 
BRANCH  17  18
ATOM     18  N   UNL     1      12.487  -0.774   3.243  0.00  0.00    +0.220 N 
ATOM     19  H   UNL     1      13.226  -0.068   3.369  0.00  0.00    +0.199 HD
ATOM     20  H   UNL     1      12.933  -1.696   3.163  0.00  0.00    +0.199 HD
ATOM     21  H   UNL     1      11.936  -0.747   4.123  0.00  0.00    +0.199 HD
ENDBRANCH  17  18
ENDBRANCH  16  17
ENDBRANCH  15  16
ENDBRANCH   1  15
TORSDOF 12
