REMARK  Name = 
REMARK  10 active torsions:
REMARK  status: ('A' for Active; 'I' for Inactive)
REMARK    1  A    between atoms: C_2  and  C_3
REMARK    2  A    between atoms: C_3  and  C_4
REMARK    3  A    between atoms: C_7  and  O_8
REMARK    4  A    between atoms: C_9  and  O_10
REMARK    5  A    between atoms: O_10  and  C_11
REMARK    6  A    between atoms: C_17  and  C_19
REMARK    7  A    between atoms: C_19  and  C_20
REMARK    8  A    between atoms: C_23  and  O_24
REMARK    9  A    between atoms: C_25  and  O_26
REMARK   10  A    between atoms: O_26  and  C_27
REMARK                            x       y       z     vdW  Elec       q    Type
REMARK                         _______ _______ _______ _____ _____    ______ ____
ROOT
ATOM      1  C   UNL     1       2.042   0.108   0.176  0.00  0.00    +0.045 C 
ATOM      2  C   UNL     1       2.970  -1.079   0.440  0.00  0.00    +0.109 C 
ATOM      3  C   UNL     1       4.235  -0.437   0.935  0.00  0.00    +0.311 C 
ATOM      4  O   UNL     1       5.294  -1.013   1.140  0.00  0.00    -0.251 OA
ATOM      5  O   UNL     1       4.027   0.882   1.200  0.00  0.00    -0.464 OA
ATOM      6  C   UNL     1       2.641   1.193   1.055  0.00  0.00    +0.236 C 
ENDROOT
BRANCH   1   7
ATOM      7  C   UNL     1       0.562  -0.185   0.521  0.00  0.00    +0.043 C 
BRANCH   7   8
ATOM      8  C   UNL     1      -0.425   0.960   0.374  0.00  0.00    -0.043 A 
ATOM      9  C   UNL     1      -1.564   1.005   1.209  0.00  0.00    +0.053 A 
ATOM     10  C   UNL     1      -2.482   2.063   1.137  0.00  0.00    +0.162 A 
ATOM     11  C   UNL     1      -2.243   3.092   0.218  0.00  0.00    +0.158 A 
ATOM     12  C   UNL     1      -1.165   3.033  -0.660  0.00  0.00    +0.049 A 
ATOM     13  C   UNL     1      -0.270   1.961  -0.594  0.00  0.00    +0.007 A 
BRANCH  10  14
ATOM     14  O   UNL     1      -3.602   2.205   1.910  0.00  0.00    -0.491 OA
ATOM     15  C   UNL     1      -3.957   1.138   2.776  0.00  0.00    +0.277 C 
ENDBRANCH  10  14
BRANCH  11  16
ATOM     16  O   UNL     1      -3.087   4.170   0.184  0.00  0.00    -0.503 OA
ATOM     17  H   UNL     1      -2.623   4.910  -0.239  0.00  0.00    +0.292 HD
ENDBRANCH  11  16
ENDBRANCH   7   8
ENDBRANCH   1   7
BRANCH   2  18
ATOM     18  C   UNL     1       3.218  -2.033  -0.735  0.00  0.00    +0.050 C 
BRANCH  18  19
ATOM     19  C   UNL     1       3.882  -1.490  -1.984  0.00  0.00    -0.043 A 
ATOM     20  C   UNL     1       3.106  -1.037  -3.066  0.00  0.00    +0.053 A 
ATOM     21  C   UNL     1       3.702  -0.641  -4.269  0.00  0.00    +0.162 A 
ATOM     22  C   UNL     1       5.097  -0.705  -4.385  0.00  0.00    +0.158 A 
ATOM     23  C   UNL     1       5.886  -1.117  -3.313  0.00  0.00    +0.049 A 
ATOM     24  C   UNL     1       5.278  -1.505  -2.117  0.00  0.00    +0.007 A 
BRANCH  21  25
ATOM     25  O   UNL     1       3.025  -0.209  -5.379  0.00  0.00    -0.491 OA
ATOM     26  C   UNL     1       1.608  -0.184  -5.312  0.00  0.00    +0.277 C 
ENDBRANCH  21  25
BRANCH  22  27
ATOM     27  O   UNL     1       5.688  -0.375  -5.576  0.00  0.00    -0.503 OA
ATOM     28  H   UNL     1       6.598  -0.708  -5.575  0.00  0.00    +0.292 HD
ENDBRANCH  22  27
ENDBRANCH  18  19
ENDBRANCH   2  18
TORSDOF 8
