REMARK  Name = 
REMARK  7 active torsions:
REMARK  status: ('A' for Active; 'I' for Inactive)
REMARK    1  A    between atoms: N_9  and  C_12
REMARK    2  A    between atoms: C_15  and  O_17
REMARK    3  A    between atoms: C_18  and  C_20
REMARK    4  A    between atoms: C_20  and  O_21
REMARK    5  A    between atoms: O_21  and  P_22
REMARK    6  A    between atoms: P_22  and  O_23
REMARK    7  A    between atoms: P_22  and  O_24
REMARK                            x       y       z     vdW  Elec       q    Type
REMARK                         _______ _______ _______ _____ _____    ______ ____
ROOT
ATOM      1  C   UNL     1       4.774   3.696   0.005  0.00  0.00    +0.225 C 
ATOM      2  O   UNL     1       5.512   4.583  -0.859  0.00  0.00    -0.348 OA
ATOM      3  C   UNL     1       5.296   5.935  -0.362  0.00  0.00    +0.175 C 
ATOM      4  C   UNL     1       4.606   5.789   1.004  0.00  0.00    +0.150 C 
ATOM      5  C   UNL     1       4.875   4.347   1.374  0.00  0.00    +0.088 C 
ENDROOT
BRANCH   1  13
ATOM      6  N   UNL     1       4.398   1.285  -4.653  0.00  0.00    -0.329 N 
ATOM      7  H   UNL     1       4.764   2.171  -4.967  0.00  0.00    +0.145 HD
ATOM      8  H   UNL     1       4.550   0.555  -5.342  0.00  0.00    +0.145 HD
ATOM      9  C   UNL     1       4.839   0.889  -3.425  0.00  0.00    +0.195 A 
ATOM     10  N   UNL     1       4.845   1.901  -2.507  0.00  0.00    -0.312 N 
ATOM     11  H   UNL     1       4.505   2.819  -2.773  0.00  0.00    +0.170 HD
ATOM     12  C   UNL     1       5.229   1.581  -1.262  0.00  0.00    +0.148 A 
ATOM     13  N   UNL     1       5.273   2.342  -0.137  0.00  0.00    -0.289 N 
ATOM     14  C   UNL     1       5.690   1.491   0.865  0.00  0.00    +0.203 A 
ATOM     15  N   UNL     1       5.921   0.268   0.423  0.00  0.00    -0.229 NA
ATOM     16  C   UNL     1       5.620   0.312  -0.923  0.00  0.00    +0.172 A 
ATOM     17  C   UNL     1       5.625  -0.746  -1.943  0.00  0.00    +0.302 A 
ATOM     18  O   UNL     1       5.973  -1.891  -1.699  0.00  0.00    -0.263 OA
ATOM     19  N   UNL     1       5.185  -0.346  -3.217  0.00  0.00    -0.176 NA
ENDBRANCH   1  13
BRANCH   4  20
ATOM     20  O   UNL     1       3.196   5.960   0.852  0.00  0.00    -0.389 OA
ATOM     21  H   UNL     1       2.785   5.918   1.734  0.00  0.00    +0.210 HD
ENDBRANCH   4  20
BRANCH   3  22
ATOM     22  C   UNL     1       6.632   6.688  -0.255  0.00  0.00    +0.206 C 
BRANCH  22  23
ATOM     23  O   UNL     1       7.194   6.863  -1.551  0.00  0.00    -0.284 OA
BRANCH  23  24
ATOM     24  P   UNL     1       8.667   7.769  -1.615  0.00  0.00    +0.472 P 
ATOM     25  O   UNL     1       9.985   8.579  -1.672  0.00  0.00    -0.228 OA
BRANCH  24  26
ATOM     26  O   UNL     1       8.557   7.547  -3.227  0.00  0.00    -0.303 OA
ATOM     27  H   UNL     1       8.294   6.623  -3.383  0.00  0.00    +0.222 HD
ENDBRANCH  24  26
BRANCH  24  28
ATOM     28  O   UNL     1       9.448   6.379  -1.267  0.00  0.00    -0.303 OA
ATOM     29  H   UNL     1      10.392   6.616  -1.158  0.00  0.00    +0.222 HD
ENDBRANCH  24  28
ENDBRANCH  23  24
ENDBRANCH  22  23
ENDBRANCH   3  22
TORSDOF 7
