REMARK  Name = 
REMARK  6 active torsions:
REMARK  status: ('A' for Active; 'I' for Inactive)
REMARK    1  A    between atoms: N_4  and  C_5
REMARK    2  A    between atoms: C_9  and  C_11
REMARK    3  A    between atoms: C_11  and  C_13
REMARK    4  A    between atoms: C_11  and  C_15
REMARK    5  A    between atoms: C_13  and  S_14
REMARK    6  A    between atoms: C_15  and  O_16
REMARK                            x       y       z     vdW  Elec       q    Type
REMARK                         _______ _______ _______ _____ _____    ______ ____
ROOT
ATOM      1  C   UNL     1       4.595   1.239  -0.452  0.00  0.00    +0.142 A 
ATOM      2  C   UNL     1       5.389   1.673   0.615  0.00  0.00    +0.050 A 
ATOM      3  C   UNL     1       6.729   1.265   0.743  0.00  0.00    -0.030 A 
ATOM      4  C   UNL     1       7.325   0.595  -0.331  0.00  0.00    +0.005 A 
ATOM      5  C   UNL     1       6.588   0.323  -1.486  0.00  0.00    +0.004 A 
ATOM      6  C   UNL     1       5.220   0.619  -1.528  0.00  0.00    +0.046 A 
ENDROOT
BRANCH   1  11
ATOM      7  N   UNL     1       1.143   1.220   0.577  0.00  0.00    -0.289 N 
ATOM      8  H   UNL     1       0.803   1.259  -0.378  0.00  0.00    +0.255 HD
ATOM      9  H   UNL     1       0.644   0.536   1.126  0.00  0.00    +0.255 HD
ATOM     10  C   UNL     1       2.492   1.114   0.607  0.00  0.00    +0.382 C 
ATOM     11  N   UNL     1       3.191   1.372  -0.454  0.00  0.00    -0.073 NA
ATOM     12  N   UNL     1       2.894   0.726   1.838  0.00  0.00    -0.289 N 
ATOM     13  H   UNL     1       3.807   0.288   1.910  0.00  0.00    +0.255 HD
ATOM     14  H   UNL     1       2.223   0.355   2.488  0.00  0.00    +0.255 HD
ENDBRANCH   1  11
BRANCH   3  15
ATOM     15  C   UNL     1       7.404   1.446   2.101  0.00  0.00    +0.137 C 
BRANCH  15  16
ATOM     16  C   UNL     1       8.892   1.782   2.048  0.00  0.00    +0.313 C 
ATOM     17  O   UNL     1       9.708   1.391   2.871  0.00  0.00    -0.250 OA
BRANCH  16  18
ATOM     18  O   UNL     1       9.257   2.627   1.059  0.00  0.00    -0.480 OA
ATOM     19  H   UNL     1       8.528   2.898   0.466  0.00  0.00    +0.295 HD
ENDBRANCH  16  18
ENDBRANCH  15  16
BRANCH  15  20
ATOM     20  C   UNL     1       7.228   0.194   3.000  0.00  0.00    +0.085 C 
BRANCH  20  21
ATOM     21  S   UNL     1       5.512  -0.211   3.485  0.00  0.00    -0.177 S 
ATOM     22  H   UNL     1       5.211   0.973   4.042  0.00  0.00    +0.102 HD
ENDBRANCH  20  21
ENDBRANCH  15  20
ENDBRANCH   3  15
TORSDOF 6
