REMARK  Name = 
REMARK  13 active torsions:
REMARK  status: ('A' for Active; 'I' for Inactive)
REMARK    1  A    between atoms: O_1  and  C_2
REMARK    2  A    between atoms: C_2  and  C_3
REMARK    3  A    between atoms: C_3  and  C_5
REMARK    4  A    between atoms: C_5  and  O_7
REMARK    5  A    between atoms: C_5  and  C_8
REMARK    6  A    between atoms: C_8  and  O_10
REMARK    7  A    between atoms: C_8  and  C_11
REMARK    8  A    between atoms: C_11  and  O_13
REMARK    9  A    between atoms: C_11  and  C_14
REMARK   10  A    between atoms: C_14  and  O_15
REMARK   11  A    between atoms: O_15  and  P_16
REMARK   12  A    between atoms: P_16  and  O_17
REMARK   13  A    between atoms: P_16  and  O_18
REMARK                            x       y       z     vdW  Elec       q    Type
REMARK                         _______ _______ _______ _____ _____    ______ ____
ROOT
ATOM      1  C   UNL     1       6.738   2.710   1.492  0.00  0.00    +0.181 C 
ENDROOT
BRANCH   1   2
ATOM      2  O   UNL     1       5.627   2.062   2.139  0.00  0.00    -0.386 OA
ATOM      3  H   UNL     1       5.955   1.658   2.961  0.00  0.00    +0.210 HD
ENDBRANCH   1   2
BRANCH   1   4
ATOM      4  C   UNL     1       7.488   3.619   2.491  0.00  0.00    +0.213 C 
BRANCH   4   5
ATOM      5  C   UNL     1       8.813   4.113   1.906  0.00  0.00    +0.189 C 
ATOM      6  O   UNL     1       9.712   3.320   1.608  0.00  0.00    -0.292 OA
BRANCH   5   7
ATOM      7  C   UNL     1       8.991   5.616   1.741  0.00  0.00    +0.232 C 
BRANCH   7   8
ATOM      8  O   UNL     1       8.920   6.249   3.016  0.00  0.00    -0.387 OA
ATOM      9  H   UNL     1       9.557   6.988   2.992  0.00  0.00    +0.210 HD
ENDBRANCH   7   8
ENDBRANCH   5   7
ENDBRANCH   4   5
BRANCH   4  10
ATOM     10  O   UNL     1       6.629   4.630   3.003  0.00  0.00    -0.382 OA
ATOM     11  H   UNL     1       7.171   5.165   3.619  0.00  0.00    +0.210 HD
ENDBRANCH   4  10
ENDBRANCH   1   4
BRANCH   1  12
ATOM     12  C   UNL     1       6.217   3.392   0.212  0.00  0.00    +0.172 C 
BRANCH  12  13
ATOM     13  O   UNL     1       7.304   3.945  -0.543  0.00  0.00    -0.387 OA
ATOM     14  H   UNL     1       6.907   4.213  -1.397  0.00  0.00    +0.210 HD
ENDBRANCH  12  13
BRANCH  12  15
ATOM     15  C   UNL     1       5.170   4.489   0.426  0.00  0.00    +0.206 C 
BRANCH  15  16
ATOM     16  O   UNL     1       4.706   4.892  -0.869  0.00  0.00    -0.284 OA
BRANCH  16  17
ATOM     17  P   UNL     1       3.535   6.165  -0.825  0.00  0.00    +0.472 P 
ATOM     18  O   UNL     1       2.487   7.304  -0.784  0.00  0.00    -0.228 OA
BRANCH  17  19
ATOM     19  O   UNL     1       2.408   5.018  -0.524  0.00  0.00    -0.303 OA
ATOM     20  H   UNL     1       1.612   5.492  -0.207  0.00  0.00    +0.222 HD
ENDBRANCH  17  19
BRANCH  17  21
ATOM     21  O   UNL     1       3.484   5.998  -2.449  0.00  0.00    -0.303 OA
ATOM     22  H   UNL     1       2.994   5.181  -2.644  0.00  0.00    +0.222 HD
ENDBRANCH  17  21
ENDBRANCH  16  17
ENDBRANCH  15  16
ENDBRANCH  12  15
ENDBRANCH   1  12
TORSDOF 13
