REMARK  Name = 
REMARK  2 active torsions:
REMARK  status: ('A' for Active; 'I' for Inactive)
REMARK    1  A    between atoms: O_1  and  N_2
REMARK    2  A    between atoms: N_5  and  C_6
REMARK                            x       y       z     vdW  Elec       q    Type
REMARK                         _______ _______ _______ _____ _____    ______ ____
ROOT
ATOM      1  N   UNL     1       3.267  -0.844   0.949  0.00  0.00    -0.142 N 
ATOM      2  H   UNL     1       4.187  -0.665   1.350  0.00  0.00    +0.299 HD
ATOM      3  C   UNL     1       3.381  -1.307  -0.340  0.00  0.00    +0.411 C 
ATOM      4  N   UNL     1       4.503  -0.837  -0.972  0.00  0.00    -0.242 N 
ATOM      5  H   UNL     1       4.496   0.166  -1.097  0.00  0.00    +0.265 HD
ATOM      6  N   UNL     1       2.507  -2.104  -0.864  0.00  0.00    -0.127 NA
ATOM      7  H   UNL     1       1.822  -2.270  -0.118  0.00  0.00    +0.306 HD
ENDROOT
BRANCH   4   8
ATOM      8  C   UNL     1       5.132  -1.523  -2.037  0.00  0.00    +0.100 A 
ATOM      9  C   UNL     1       5.122  -2.924  -2.111  0.00  0.00    +0.043 A 
ATOM     10  C   UNL     1       5.739  -3.599  -3.164  0.00  0.00    +0.023 A 
ATOM     11  C   UNL     1       6.406  -2.874  -4.145  0.00  0.00    +0.041 A 
ATOM     12 CL   UNL     1       7.134  -3.697  -5.468  0.00  0.00    -0.084 Cl
ATOM     13  C   UNL     1       6.484  -1.485  -4.060  0.00  0.00    +0.023 A 
ATOM     14  C   UNL     1       5.862  -0.813  -3.000  0.00  0.00    +0.043 A 
ENDBRANCH   4   8
BRANCH   1  15
ATOM     15  O   UNL     1       2.494  -1.709   1.743  0.00  0.00    -0.233 OA
ATOM     16  H   UNL     1       2.199  -1.143   2.479  0.00  0.00    +0.262 HD
ENDBRANCH   1  15
TORSDOF 2
