REMARK  Name = 
REMARK  10 active torsions:
REMARK  status: ('A' for Active; 'I' for Inactive)
REMARK    1  A    between atoms: C_1  and  C_2
REMARK    2  A    between atoms: C_2  and  C_3
REMARK    3  A    between atoms: C_2  and  N_4
REMARK    4  A    between atoms: N_4  and  C_5
REMARK    5  A    between atoms: C_5  and  C_6
REMARK    6  A    between atoms: C_9  and  C_10
REMARK    7  A    between atoms: C_10  and  CA_11
REMARK    8  A    between atoms: CA_11  and  N_13
REMARK    9  A    between atoms: CA_11  and  C_14
REMARK   10  A    between atoms: C_14  and  O_15
REMARK                            x       y       z     vdW  Elec       q    Type
REMARK                         _______ _______ _______ _____ _____    ______ ____
ROOT
ATOM      1  C   UNL     1       2.463  -2.937   2.307  0.00  0.00    -0.034 A 
ATOM      2  C   UNL     1       1.687  -3.823   3.066  0.00  0.00    +0.005 A 
ATOM      3  C   UNL     1       2.292  -4.795   3.871  0.00  0.00    +0.004 A 
ATOM      4  C   UNL     1       3.684  -4.910   3.917  0.00  0.00    -0.045 A 
ATOM      5  C   UNL     1       4.465  -4.007   3.185  0.00  0.00    +0.004 A 
ATOM      6  C   UNL     1       3.860  -3.021   2.398  0.00  0.00    +0.005 A 
ENDROOT
BRANCH   1   7
ATOM      7  C   UNL     1       1.806  -1.932   1.380  0.00  0.00    +0.116 C 
BRANCH   7   8
ATOM      8  N   UNL     1       2.108  -2.238  -0.018  0.00  0.00    -0.310 NA
ATOM      9  H   UNL     1       3.120  -2.270  -0.134  0.00  0.00    +0.122 HD
BRANCH   8  11
ATOM     10  C   UNL     1       2.080  -1.632  -2.368  0.00  0.00    +0.023 C 
ATOM     11  C   UNL     1       1.546  -1.279  -0.976  0.00  0.00    +0.048 C 
ATOM     12  C   UNL     1       0.017  -1.308  -0.996  0.00  0.00    +0.023 C 
ENDBRANCH   8  11
ENDBRANCH   7   8
ENDBRANCH   1   7
BRANCH   4  13
ATOM     13  C   UNL     1       4.339  -6.026   4.702  0.00  0.00    +0.065 C 
BRANCH  13  14
ATOM     14  CA  UNL     1       4.604  -5.699   6.181  0.00  0.00    +0.165 C 
BRANCH  14  15
ATOM     15  N   UNL     1       5.623  -4.615   6.381  0.00  0.00    -0.318 NA
ATOM     16  H1  UNL     1       5.382  -3.852   5.739  0.00  0.00    +0.119 HD
ATOM     17  H2  UNL     1       5.456  -4.206   7.308  0.00  0.00    +0.119 HD
ENDBRANCH  14  15
BRANCH  14  18
ATOM     18  C   UNL     1       5.123  -6.977   6.862  0.00  0.00    +0.322 C 
ATOM     19  OXT UNL     1       4.489  -8.011   6.994  0.00  0.00    -0.249 OA
BRANCH  18  20
ATOM     20  O   UNL     1       6.405  -6.828   7.288  0.00  0.00    -0.480 OA
ATOM     21  H   UNL     1       6.676  -5.916   7.012  0.00  0.00    +0.295 HD
ENDBRANCH  18  20
ENDBRANCH  14  18
ENDBRANCH  13  14
ENDBRANCH   4  13
TORSDOF 8
