REMARK  Name = 
REMARK  4 active torsions:
REMARK  status: ('A' for Active; 'I' for Inactive)
REMARK    1  A    between atoms: C_1  and  C_2
REMARK    2  A    between atoms: C_2  and  C_4
REMARK    3  A    between atoms: C_4  and  C_5
REMARK    4  A    between atoms: C_5  and  O_6
REMARK                            x       y       z     vdW  Elec       q    Type
REMARK                         _______ _______ _______ _____ _____    ______ ____
ROOT
ATOM      1  C   UNL     1       3.329   0.251   1.251  0.00  0.00    +0.101 C 
ENDROOT
BRANCH   1   3
ATOM      2  C   UNL     1       1.072   0.089   0.038  0.00  0.00    +0.086 C 
ATOM      3  C   UNL     1       2.575   0.071  -0.051  0.00  0.00    +0.132 C 
ATOM      4  O   UNL     1       3.149  -0.057  -1.133  0.00  0.00    -0.298 OA
ENDBRANCH   1   3
BRANCH   1   5
ATOM      5  C   UNL     1       4.834   0.188   1.046  0.00  0.00    +0.163 C 
BRANCH   5   6
ATOM      6  O   UNL     1       5.273   1.275   0.239  0.00  0.00    -0.395 OA
ATOM      7  H   UNL     1       4.921   1.102  -0.658  0.00  0.00    +0.209 HD
ENDBRANCH   5   6
ENDBRANCH   1   5
TORSDOF 3
