REMARK  Name = 
REMARK  11 active torsions:
REMARK  status: ('A' for Active; 'I' for Inactive)
REMARK    1  A    between atoms: C_1  and  C_2
REMARK    2  A    between atoms: N_4  and  C_5
REMARK    3  A    between atoms: C_8  and  O_10
REMARK    4  A    between atoms: O_10  and  P_11
REMARK    5  A    between atoms: P_11  and  O_12
REMARK    6  A    between atoms: P_11  and  O_13
REMARK    7  A    between atoms: C_15  and  C_17
REMARK    8  A    between atoms: C_17  and  O_18
REMARK    9  A    between atoms: O_18  and  P_19
REMARK   10  A    between atoms: P_19  and  O_20
REMARK   11  A    between atoms: P_19  and  O_21
REMARK                            x       y       z     vdW  Elec       q    Type
REMARK                         _______ _______ _______ _____ _____    ______ ____
ROOT
ATOM      1  C   UNL     1       5.370   2.594  -0.620  0.00  0.00    +0.226 C 
ATOM      2  O   UNL     1       6.501   2.617   0.263  0.00  0.00    -0.348 OA
ATOM      3  C   UNL     1       6.697   3.963   0.726  0.00  0.00    +0.176 C 
ATOM      4  C   UNL     1       5.785   4.877  -0.083  0.00  0.00    +0.165 C 
ATOM      5  C   UNL     1       4.650   3.926  -0.435  0.00  0.00    +0.089 C 
ENDROOT
BRANCH   1  14
ATOM      6  C   UNL     1       3.674  -0.839   2.568  0.00  0.00    +0.051 C 
ATOM      7  C   UNL     1       3.736  -0.198   1.219  0.00  0.00    +0.030 A 
ATOM      8  C   UNL     1       2.867  -0.747   0.156  0.00  0.00    +0.257 A 
ATOM      9  O   UNL     1       2.104  -1.687   0.359  0.00  0.00    -0.267 OA
ATOM     10  N   UNL     1       2.968  -0.143  -1.064  0.00  0.00    -0.275 N 
ATOM     11  H   UNL     1       2.374  -0.498  -1.801  0.00  0.00    +0.173 HD
ATOM     12  C   UNL     1       3.726   0.960  -1.364  0.00  0.00    +0.331 A 
ATOM     13  O   UNL     1       3.660   1.480  -2.473  0.00  0.00    -0.246 OA
ATOM     14  N   UNL     1       4.536   1.427  -0.339  0.00  0.00    -0.274 N 
ATOM     15  C   UNL     1       4.519   0.845   0.915  0.00  0.00    +0.101 A 
ENDBRANCH   1  14
BRANCH   3  16
ATOM     16  C   UNL     1       8.163   4.299   0.547  0.00  0.00    +0.206 C 
BRANCH  16  17
ATOM     17  O   UNL     1       8.424   5.603   1.027  0.00  0.00    -0.284 OA
BRANCH  17  18
ATOM     18  P   UNL     1      10.095   6.001   0.824  0.00  0.00    +0.472 P 
ATOM     19  O   UNL     1      11.591   6.356   0.642  0.00  0.00    -0.228 OA
BRANCH  18  20
ATOM     20  O   UNL     1       9.711   7.375   1.630  0.00  0.00    -0.303 OA
ATOM     21  H   UNL     1       9.681   7.225   2.590  0.00  0.00    +0.222 HD
ENDBRANCH  18  20
BRANCH  18  22
ATOM     22  O   UNL     1       9.620   6.586  -0.628  0.00  0.00    -0.303 OA
ATOM     23  H   UNL     1       9.402   7.526  -0.482  0.00  0.00    +0.222 HD
ENDBRANCH  18  22
ENDBRANCH  17  18
ENDBRANCH  16  17
ENDBRANCH   3  16
BRANCH   4  24
ATOM     24  O   UNL     1       5.357   6.050   0.645  0.00  0.00    -0.281 OA
BRANCH  24  25
ATOM     25  P   UNL     1       4.287   6.979  -0.348  0.00  0.00    +0.473 P 
ATOM     26  O   UNL     1       3.329   7.810  -1.236  0.00  0.00    -0.228 OA
BRANCH  25  27
ATOM     27  O   UNL     1       5.656   7.644  -0.947  0.00  0.00    -0.303 OA
ATOM     28  H   UNL     1       5.685   8.554  -0.596  0.00  0.00    +0.222 HD
ENDBRANCH  25  27
BRANCH  25  29
ATOM     29  O   UNL     1       4.250   7.983   0.945  0.00  0.00    -0.303 OA
ATOM     30  H   UNL     1       4.181   7.466   1.767  0.00  0.00    +0.222 HD
ENDBRANCH  25  29
ENDBRANCH  24  25
ENDBRANCH   4  24
TORSDOF 10
