REMARK  Name = 
REMARK  4 active torsions:
REMARK  status: ('A' for Active; 'I' for Inactive)
REMARK    1  A    between atoms: CB_1  and  CA_2
REMARK    2  A    between atoms: CA_2  and  N_4
REMARK    3  A    between atoms: CA_2  and  C_8
REMARK    4  A    between atoms: C_8  and  O_9
REMARK                            x       y       z     vdW  Elec       q    Type
REMARK                         _______ _______ _______ _____ _____    ______ ____
ROOT
ATOM      1  N   ALA A   1       2.979  -1.376   0.457  0.00  0.00    -0.287 N 
ATOM      2  H   ALA A   1       3.219  -1.380   1.437  0.00  0.00    +0.151 HD
ATOM      3  C   UNK A   0       2.718  -2.590  -0.087  0.00  0.00    +0.298 C 
ATOM      4  O   UNK A   0       2.112  -2.752  -1.135  0.00  0.00    -0.253 OA
ATOM      5  N   UNK A   0       3.236  -3.613   0.627  0.00  0.00    -0.313 N 
ATOM      6  H   UNK A   0       3.159  -4.512   0.165  0.00  0.00    +0.146 HD
ATOM      7  H   UNK A   0       4.128  -3.457   1.077  0.00  0.00    +0.146 HD
ENDROOT
BRANCH   1   9
ATOM      8  CB  ALA A   1       0.937  -0.055  -0.138  0.00  0.00    +0.040 C 
ATOM      9  CA  ALA A   1       2.460  -0.118  -0.087  0.00  0.00    +0.180 C 
BRANCH   9  10
ATOM     10  C   ALA A   1       3.073   0.246  -1.448  0.00  0.00    +0.325 C 
ATOM     11  OXT ALA A   1       3.683   1.290  -1.644  0.00  0.00    -0.249 OA
BRANCH  10  12
ATOM     12  O   ALA A   1       2.852  -0.648  -2.437  0.00  0.00    -0.479 OA
ATOM     13  H   ALA A   1       2.383  -1.463  -2.128  0.00  0.00    +0.295 HD
ENDBRANCH  10  12
ENDBRANCH   9  10
ENDBRANCH   1   9
TORSDOF 3
