REMARK  Name = 
REMARK  15 active torsions:
REMARK  status: ('A' for Active; 'I' for Inactive)
REMARK    1  A    between atoms: N_1  and  C_2
REMARK    2  A    between atoms: C_2  and  C_4
REMARK    3  A    between atoms: C_2  and  C_22
REMARK    4  A    between atoms: C_4  and  C_5
REMARK    5  A    between atoms: C_5  and  C_6
REMARK    6  A    between atoms: N_8  and  C_9
REMARK    7  A    between atoms: C_9  and  C_11
REMARK    8  A    between atoms: C_9  and  C_15
REMARK    9  A    between atoms: C_11  and  S_12
REMARK   10  A    between atoms: S_12  and  C_13
REMARK   11  A    between atoms: C_13  and  O_14
REMARK   12  A    between atoms: N_17  and  CA_18
REMARK   13  A    between atoms: CA_18  and  C_19
REMARK   14  A    between atoms: C_19  and  O_20
REMARK   15  A    between atoms: C_22  and  O_23
REMARK                            x       y       z     vdW  Elec       q    Type
REMARK                         _______ _______ _______ _____ _____    ______ ____
ROOT
ATOM      1  C   UNK A   1       3.261   4.225  -4.779  0.00  0.00    +0.169 C 
ENDROOT
BRANCH   1   3
ATOM      2  C   UNK A   1       2.679   5.566  -2.737  0.00  0.00    +0.214 C 
ATOM      3  N   UNK A   1       2.859   5.464  -4.092  0.00  0.00    -0.303 N 
ATOM      4  H   UNK A   1       2.662   6.265  -4.680  0.00  0.00    +0.149 HD
ATOM      5  O   UNK A   1       2.765   4.629  -1.955  0.00  0.00    -0.276 OA
BRANCH   2   6
ATOM      6  C   UNK A   1       2.281   6.949  -2.264  0.00  0.00    +0.098 C 
BRANCH   6   7
ATOM      7  C   UNK A   1       0.886   7.391  -2.723  0.00  0.00    +0.039 C 
BRANCH   7   8
ATOM      8  C   UNK A   1      -0.301   6.519  -2.283  0.00  0.00    +0.161 C 
BRANCH   8   9
ATOM      9  N   UNK A   1      -0.412   6.356  -0.812  0.00  0.00    -0.318 NA
ATOM     10  H   UNK A   1       0.507   6.432  -0.370  0.00  0.00    +0.119 HD
ATOM     11  H   UNK A   1      -0.931   7.162  -0.446  0.00  0.00    +0.119 HD
ENDBRANCH   8   9
BRANCH   8  12
ATOM     12  C   UNK A   1      -0.302   5.131  -2.947  0.00  0.00    +0.322 C 
ATOM     13  O   UNK A   1      -0.248   4.932  -4.156  0.00  0.00    -0.249 OA
BRANCH  12  14
ATOM     14  O   UNK A   1      -0.366   4.129  -2.043  0.00  0.00    -0.480 OA
ATOM     15  H   UNK A   1      -0.405   4.563  -1.152  0.00  0.00    +0.295 HD
ENDBRANCH  12  14
ENDBRANCH   8  12
ENDBRANCH   7   8
ENDBRANCH   6   7
ENDBRANCH   2   6
ENDBRANCH   1   3
BRANCH   1  16
ATOM     16  C   UNK A   1       2.674   4.304  -6.211  0.00  0.00    +0.235 C 
ATOM     17  N   GLY A   2       1.324   4.588  -6.262  0.00  0.00    -0.303 N 
ATOM     18  H   GLY A   2       0.797   4.356  -5.420  0.00  0.00    +0.149 HD
ATOM     19  O   UNK A   1       3.338   4.116  -7.227  0.00  0.00    -0.274 OA
BRANCH  17  20
ATOM     20  CA  GLY A   2       0.669   4.726  -7.555  0.00  0.00    +0.224 C 
BRANCH  20  21
ATOM     21  C   GLY A   2      -0.808   5.117  -7.608  0.00  0.00    +0.322 C 
ATOM     22  OXT GLY A   2      -1.409   5.285  -8.662  0.00  0.00    -0.249 OA
BRANCH  21  23
ATOM     23  O   GLY A   2      -1.428   5.280  -6.422  0.00  0.00    -0.480 OA
ATOM     24  H   GLY A   2      -0.879   5.102  -5.627  0.00  0.00    +0.295 HD
ENDBRANCH  21  23
ENDBRANCH  20  21
ENDBRANCH  17  20
ENDBRANCH   1  16
BRANCH   1  25
ATOM     25  C   UNK A   1       4.787   4.038  -4.892  0.00  0.00    +0.103 C 
BRANCH  25  26
ATOM     26  S   UNK A   1       5.733   3.964  -3.330  0.00  0.00    -0.131 S 
BRANCH  26  27
ATOM     27  C   UNK A   1       5.075   2.428  -2.639  0.00  0.00    +0.225 C 
BRANCH  27  28
ATOM     28  O   UNK A   1       5.236   1.348  -3.542  0.00  0.00    -0.385 OA
ATOM     29  H   UNK A   1       4.350   0.996  -3.725  0.00  0.00    +0.211 HD
ENDBRANCH  27  28
ENDBRANCH  26  27
ENDBRANCH  25  26
ENDBRANCH   1  25
TORSDOF 15
