REMARK  Name = 
REMARK  33 active torsions:
REMARK  status: ('A' for Active; 'I' for Inactive)
REMARK    1  A    between atoms: C_1  and  O_2
REMARK    2  A    between atoms: O_2  and  C_3
REMARK    3  A    between atoms: C_3  and  C_5
REMARK    4  A    between atoms: C_3  and  C_12
REMARK    5  A    between atoms: C_5  and  C_6
REMARK    6  A    between atoms: C_7  and  N_8
REMARK    7  A    between atoms: N_8  and  C_9
REMARK    8  A    between atoms: C_12  and  C_14
REMARK    9  A    between atoms: C_12  and  C_15
REMARK   10  A    between atoms: C_15  and  C_17
REMARK   11  A    between atoms: C_17  and  C_18
REMARK   12  A    between atoms: C_18  and  C_19
REMARK   13  A    between atoms: C_19  and  C_21
REMARK   14  A    between atoms: C_19  and  C_22
REMARK   15  A    between atoms: C_22  and  O_24
REMARK   16  A    between atoms: C_22  and  C_26
REMARK   17  A    between atoms: O_24  and  C_25
REMARK   18  A    between atoms: C_26  and  C_28
REMARK   19  A    between atoms: C_26  and  C_29
REMARK   20  A    between atoms: C_37  and  C_38
REMARK   21  A    between atoms: C_40  and  O_83
REMARK   22  A    between atoms: C_50  and  O_52
REMARK   23  A    between atoms: C_53  and  C_55
REMARK   24  A    between atoms: C_56  and  O_81
REMARK   25  A    between atoms: C_59  and  O_61
REMARK   26  A    between atoms: O_61  and  C_62
REMARK   27  A    between atoms: C_65  and  C_67
REMARK   28  A    between atoms: C_68  and  O_70
REMARK   29  A    between atoms: C_72  and  O_74
REMARK   30  A    between atoms: O_74  and  C_75
REMARK   31  A    between atoms: C_78  and  C_80
REMARK   32  A    between atoms: O_81  and  C_82
REMARK   33  A    between atoms: O_83  and  C_84
REMARK                            x       y       z     vdW  Elec       q    Type
REMARK                         _______ _______ _______ _____ _____    ______ ____
ROOT
ATOM      1  C   UNL     1      15.325  11.962  -2.306  0.00  0.00    +0.189 C 
ATOM      2  C   UNL     1      15.516  11.279  -0.885  0.00  0.00    +0.049 C 
ATOM      3  C   UNL     1      15.453  12.200   0.338  0.00  0.00    +0.015 C 
ATOM      4  C   UNL     1      14.473  10.203  -0.555  0.00  0.00    -0.022 C 
ATOM      5  C   UNL     1      14.626   8.869  -0.569  0.00  0.00    +0.000 C 
ATOM      6  C   UNL     1      15.757   8.113  -1.210  0.00  0.00    +0.143 C 
ATOM      7  C   UNL     1      16.975   7.970  -0.264  0.00  0.00    +0.067 C 
ATOM      8  C   UNL     1      18.181   8.683  -0.897  0.00  0.00    +0.124 C 
ATOM      9  C   UNL     1      19.190   9.338   0.098  0.00  0.00    +0.037 C 
ATOM     10  C   UNL     1      20.037   8.262   0.769  0.00  0.00    +0.014 C 
ATOM     11  C   UNL     1      20.060  10.336  -0.649  0.00  0.00    -0.023 C 
ATOM     12  C   UNL     1      21.072  11.131  -0.237  0.00  0.00    +0.000 C 
ATOM     13  C   UNL     1      22.044  11.604  -1.310  0.00  0.00    +0.143 C 
ATOM     14  C   UNL     1      23.455  12.116  -1.010  0.00  0.00    +0.067 C 
ATOM     15  C   UNL     1      24.426  12.291  -2.230  0.00  0.00    +0.127 C 
ATOM     16  C   UNL     1      24.826  11.065  -3.152  0.00  0.00    +0.058 C 
ATOM     17  C   UNL     1      25.471   9.969  -2.310  0.00  0.00    +0.014 C 
ATOM     18  C   UNL     1      23.766  10.520  -4.162  0.00  0.00    +0.214 C 
ATOM     19  C   UNL     1      24.224   9.537  -5.298  0.00  0.00    +0.182 C 
ATOM     20  C   UNL     1      23.573   8.170  -5.225  0.00  0.00    -0.029 C 
ATOM     21  C   UNL     1      22.838   7.768  -4.182  0.00  0.00    +0.093 C 
ATOM     22  C   UNL     1      22.324   8.723  -3.235  0.00  0.00    +0.332 C 
ATOM     23  O   UNL     1      21.528   8.353  -2.382  0.00  0.00    -0.246 OA
ATOM     24  C   UNL     1      23.580   7.258  -6.424  0.00  0.00    +0.065 C 
ATOM     25  C   UNL     1      22.661   7.700  -7.609  0.00  0.00    +0.126 C 
ATOM     26  C   UNL     1      21.117   7.819  -7.358  0.00  0.00    +0.062 C 
ATOM     27  C   UNL     1      20.466   8.952  -6.547  0.00  0.00    -0.070 C 
ATOM     28  C   UNL     1      21.120  10.310  -6.578  0.00  0.00    +0.039 C 
ATOM     29  C   UNL     1      19.282   8.781  -5.907  0.00  0.00    -0.001 C 
ATOM     30  C   UNL     1      18.712   9.737  -4.972  0.00  0.00    +0.007 C 
ATOM     31  C   UNL     1      17.415   9.902  -4.656  0.00  0.00    +0.091 C 
ATOM     32  C   UNL     1      17.108  10.835  -3.545  0.00  0.00    +0.332 C 
ATOM     33  O   UNL     1      17.978  11.251  -2.800  0.00  0.00    -0.246 OA
ATOM     34  O   UNL     1      22.596  10.013  -3.494  0.00  0.00    -0.455 OA
ATOM     35  O   UNL     1      15.782  11.090  -3.405  0.00  0.00    -0.457 OA
ENDROOT
BRANCH   6  36
ATOM     36  O   UNL     1      15.268   6.825  -1.619  0.00  0.00    -0.376 OA
ATOM     37  C   UNL     1      14.294   6.916  -2.660  0.00  0.00    +0.194 C 
ENDBRANCH   6  36
BRANCH  25  38
ATOM     38  O   UNL     1      23.265   8.864  -8.203  0.00  0.00    -0.379 OA
ATOM     39  C   UNL     1      22.826   9.123  -9.526  0.00  0.00    +0.194 C 
ENDBRANCH  25  38
BRANCH  19  40
ATOM     40  O   UNL     1      25.637   9.374  -5.345  0.00  0.00    -0.384 OA
ATOM     41  H   UNL     1      25.998  10.186  -5.741  0.00  0.00    +0.210 HD
ENDBRANCH  19  40
BRANCH  15  42
ATOM     42  O   UNL     1      23.996  13.424  -2.995  0.00  0.00    -0.379 OA
ATOM     43  C   UNL     1      25.006  14.076  -3.747  0.00  0.00    +0.194 C 
ENDBRANCH  15  42
BRANCH  13  44
ATOM     44  O   UNL     1      21.374  12.215  -2.408  0.00  0.00    -0.376 OA
ATOM     45  C   UNL     1      21.067  13.587  -2.267  0.00  0.00    +0.194 C 
ENDBRANCH  13  44
BRANCH   8  46
ATOM     46  O   UNL     1      18.786   7.784  -1.829  0.00  0.00    -0.391 OA
ATOM     47  H   UNL     1      19.618   8.194  -2.149  0.00  0.00    +0.210 HD
ENDBRANCH   8  46
BRANCH   1  48
ATOM     48  C   UNL     1      15.725  13.487  -2.478  0.00  0.00    +0.056 C 
ATOM     49  C   UNL     1      17.241  13.756  -2.535  0.00  0.00    +0.014 C 
BRANCH  48  50
ATOM     50  C   UNL     1      15.065  14.270  -3.677  0.00  0.00    +0.127 C 
BRANCH  50  51
ATOM     51  O   UNL     1      15.495  13.669  -4.915  0.00  0.00    -0.379 OA
ATOM     52  C   UNL     1      15.419  14.525  -6.054  0.00  0.00    +0.194 C 
ENDBRANCH  50  51
BRANCH  50  53
ATOM     53  C   UNL     1      13.511  14.456  -3.700  0.00  0.00    +0.016 C 
ATOM     54  C   UNL     1      12.728  13.184  -4.032  0.00  0.00    +0.010 C 
BRANCH  53  55
ATOM     55  C   UNL     1      12.878  15.287  -2.564  0.00  0.00    +0.013 C 
BRANCH  55  56
ATOM     56  C   UNL     1      12.703  14.580  -1.234  0.00  0.00    +0.075 C 
BRANCH  56  57
ATOM     57  C   UNL     1      11.983  15.404  -0.179  0.00  0.00    +0.139 C 
ATOM     58  O   UNL     1      11.378  16.441  -0.442  0.00  0.00    -0.297 OA
BRANCH  57  59
ATOM     59  C   UNL     1      11.979  14.791   1.218  0.00  0.00    +0.081 C 
ATOM     60  C   UNL     1      10.547  14.359   1.539  0.00  0.00    +0.018 C 
BRANCH  59  61
ATOM     61  C   UNL     1      12.592  15.754   2.251  0.00  0.00    +0.132 C 
BRANCH  61  63
ATOM     62  C   UNL     1      14.953  15.488   1.658  0.00  0.00    +0.194 C 
ATOM     63  O   UNL     1      13.829  16.337   1.800  0.00  0.00    -0.379 OA
ENDBRANCH  61  63
BRANCH  61  64
ATOM     64  C   UNL     1      12.747  15.065   3.630  0.00  0.00    +0.060 C 
BRANCH  64  65
ATOM     65  C   UNL     1      13.354  15.977   4.657  0.00  0.00    -0.009 C 
ATOM     66  C   UNL     1      14.501  15.706   5.294  0.00  0.00    +0.073 C 
BRANCH  66  67
ATOM     67  N   UNL     1      15.151  16.530   6.194  0.00  0.00    -0.284 N 
ATOM     68  C   UNL     1      16.353  16.112   6.778  0.00  0.00    +0.332 C 
ATOM     69  O   UNL     1      17.018  16.760   7.578  0.00  0.00    -0.279 OA
ATOM     70  C   UNL     1      14.679  17.848   6.562  0.00  0.00    +0.137 C 
ENDBRANCH  66  67
ENDBRANCH  64  65
ENDBRANCH  61  64
ENDBRANCH  59  61
ENDBRANCH  57  59
ENDBRANCH  56  57
ENDBRANCH  55  56
ENDBRANCH  53  55
ENDBRANCH  50  53
ENDBRANCH  48  50
ENDBRANCH   1  48
TORSDOF 19
