REMARK  Name = 
REMARK  10 active torsions:
REMARK  status: ('A' for Active; 'I' for Inactive)
REMARK    1  A    between atoms: N_4  and  C_5
REMARK    2  A    between atoms: C_5  and  C_6
REMARK    3  A    between atoms: C_6  and  C_7
REMARK    4  A    between atoms: C_7  and  C_8
REMARK    5  A    between atoms: C_21  and  N_56
REMARK    6  A    between atoms: C_29  and  C_31
REMARK    7  A    between atoms: C_31  and  C_32
REMARK    8  A    between atoms: C_35  and  O_36
REMARK    9  A    between atoms: C_42  and  C_44
REMARK   10  A    between atoms: C_44  and  C_45
REMARK                            x       y       z     vdW  Elec       q    Type
REMARK                         _______ _______ _______ _____ _____    ______ ____
ROOT
ATOM      1  C   UNL     1      11.521  -0.127   6.424  0.00  0.00    +0.149 C 
ATOM      2  C   UNL     1      10.353   1.144   6.917  0.00  0.00    +0.237 C 
ATOM      3  O   UNL     1       9.811   0.976   8.019  0.00  0.00    -0.285 OA
ATOM      4  C   UNL     1       9.851   2.598   6.104  0.00  0.00    +0.282 C 
ATOM      5  O   UNL     1      10.633   3.247   5.426  0.00  0.00    -0.267 OA
ATOM      6  N   UNL     1       8.437   2.952   6.215  0.00  0.00    -0.297 N 
ATOM      7  H   UNL     1       8.134   2.640   7.149  0.00  0.00    +0.150 HD
ATOM      8  C   UNL     1       7.156   3.798   5.561  0.00  0.00    +0.163 C 
ATOM      9  C   UNL     1       6.284   2.520   5.765  0.00  0.00    +0.234 C 
ATOM     10  O   UNL     1       5.302   2.491   6.446  0.00  0.00    -0.274 OA
ATOM     11  N   UNL     1       6.730   1.556   4.790  0.00  0.00    -0.307 N 
ATOM     12  H   UNL     1       7.285   2.025   4.138  0.00  0.00    +0.149 HD
ATOM     13  C   UNL     1       7.478   0.356   5.073  0.00  0.00    +0.101 C 
ATOM     14  C   UNL     1       8.807   0.635   4.318  0.00  0.00    +0.000 C 
ATOM     15  C   UNL     1       9.418  -0.115   3.396  0.00  0.00    +0.065 C 
ATOM     16  C   UNL     1      10.702   0.301   2.703  0.00  0.00    +0.237 C 
ATOM     17  O   UNL     1      10.995   1.442   2.407  0.00  0.00    -0.271 OA
ATOM     18  N   UNL     1      11.511  -0.791   2.587  0.00  0.00    -0.310 N 
ATOM     19  H   UNL     1      11.009  -1.648   2.696  0.00  0.00    +0.149 HD
ATOM     20  C   UNL     1      12.853  -1.043   2.031  0.00  0.00    +0.136 C 
ATOM     21  C   UNL     1      13.285  -2.483   2.440  0.00  0.00    +0.176 C 
ATOM     22  C   UNL     1      12.263  -3.429   1.806  0.00  0.00    +0.238 C 
ATOM     23  O   UNL     1      12.365  -3.773   0.606  0.00  0.00    -0.273 OA
ATOM     24  N   UNL     1      11.196  -3.843   2.602  0.00  0.00    -0.288 N 
ATOM     25  C   UNL     1      10.604  -3.387   3.941  0.00  0.00    +0.162 C 
ATOM     26  C   UNL     1       9.693  -4.609   4.238  0.00  0.00    +0.033 C 
ATOM     27  C   UNL     1       9.090  -4.921   2.859  0.00  0.00    +0.021 C 
ATOM     28  C   UNL     1      11.092  -2.573   5.324  0.00  0.00    +0.234 C 
ATOM     29  O   UNL     1      11.023  -3.128   6.423  0.00  0.00    -0.274 OA
ATOM     30  C   UNL     1      10.286  -4.789   1.942  0.00  0.00    +0.109 C 
ATOM     31  N   UNL     1      11.398  -1.180   5.264  0.00  0.00    -0.304 N 
ATOM     32  H   UNL     1      11.879  -0.879   4.422  0.00  0.00    +0.149 HD
ENDROOT
BRANCH  21  33
ATOM     33  N   UNL     1      14.652  -2.850   2.074  0.00  0.00    -0.305 N 
ATOM     34  H   UNL     1      15.344  -2.129   1.932  0.00  0.00    +0.149 HD
ATOM     35  C   UNL     1      15.116  -4.095   2.413  0.00  0.00    +0.326 C 
ATOM     36  O   UNL     1      14.446  -5.004   2.884  0.00  0.00    -0.280 OA
ENDBRANCH  21  33
BRANCH   1  37
ATOM     37  C   UNL     1      13.053   0.252   6.608  0.00  0.00    +0.033 C 
BRANCH  37  38
ATOM     38  C   UNL     1      14.092  -0.818   7.182  0.00  0.00    +0.039 C 
BRANCH  38  39
ATOM     39  C   UNL     1      14.483  -2.040   6.311  0.00  0.00    +0.196 C 
BRANCH  39  44
ATOM     40  N   UNL     1      14.607  -3.706   8.726  0.00  0.00    -0.289 N 
ATOM     41  H   UNL     1      13.704  -3.438   8.351  0.00  0.00    +0.255 HD
ATOM     42  H   UNL     1      14.528  -4.518   9.315  0.00  0.00    +0.255 HD
ATOM     43  C   UNL     1      15.598  -3.749   7.834  0.00  0.00    +0.376 C 
ATOM     44  N   UNL     1      15.613  -2.790   6.864  0.00  0.00    -0.276 N 
ATOM     45  H   UNL     1      16.355  -3.018   6.199  0.00  0.00    +0.258 HD
ATOM     46  N   UNL     1      16.550  -4.614   7.890  0.00  0.00    -0.130 NA
ATOM     47  H   UNL     1      16.408  -5.213   8.681  0.00  0.00    +0.306 HD
ENDBRANCH  39  44
ENDBRANCH  38  39
ENDBRANCH  37  38
ENDBRANCH   1  37
BRANCH   8  48
ATOM     48  C   UNL     1       6.308   4.024   4.094  0.00  0.00    +0.067 C 
BRANCH  48  49
ATOM     49  C   UNL     1       6.423   5.104   3.074  0.00  0.00    -0.045 A 
ATOM     50  C   UNL     1       6.561   6.434   3.410  0.00  0.00    +0.004 A 
ATOM     51  C   UNL     1       6.945   7.329   2.417  0.00  0.00    +0.000 A 
ATOM     52  C   UNL     1       7.105   6.907   1.094  0.00  0.00    +0.000 A 
ATOM     53  C   UNL     1       6.708   5.633   0.714  0.00  0.00    +0.000 A 
ATOM     54  C   UNL     1       6.319   4.744   1.705  0.00  0.00    +0.004 A 
ENDBRANCH  48  49
ENDBRANCH   8  48
BRANCH  13  55
ATOM     55  C   UNL     1       7.325  -0.075   6.554  0.00  0.00    +0.061 C 
BRANCH  55  56
ATOM     56  C   UNL     1       5.858  -0.272   6.966  0.00  0.00    -0.045 A 
ATOM     57  C   UNL     1       5.414   0.111   8.247  0.00  0.00    +0.007 A 
ATOM     58  C   UNL     1       4.043   0.131   8.545  0.00  0.00    +0.045 A 
ATOM     59  C   UNL     1       3.120  -0.225   7.570  0.00  0.00    +0.117 A 
ATOM     60  C   UNL     1       3.535  -0.589   6.300  0.00  0.00    +0.045 A 
ATOM     61  C   UNL     1       4.893  -0.646   6.014  0.00  0.00    +0.007 A 
BRANCH  59  62
ATOM     62  O   UNL     1       1.794  -0.210   7.883  0.00  0.00    -0.507 OA
ATOM     63  H   UNL     1       1.316  -0.626   7.147  0.00  0.00    +0.292 HD
ENDBRANCH  59  62
ENDBRANCH  55  56
ENDBRANCH  13  55
TORSDOF 10
