REMARK  Name = 
REMARK  59 active torsions:
REMARK  status: ('A' for Active; 'I' for Inactive)
REMARK    1  A    between atoms: C_1  and  C_2
REMARK    2  A    between atoms: C_2  and  C_3
REMARK    3  A    between atoms: C_3  and  C_4
REMARK    4  A    between atoms: C_4  and  C_5
REMARK    5  A    between atoms: C_5  and  N_7
REMARK    6  A    between atoms: C_5  and  C_38
REMARK    7  A    between atoms: C_8  and  C_10
REMARK    8  A    between atoms: C_10  and  C_12
REMARK    9  A    between atoms: C_10  and  N_14
REMARK   10  A    between atoms: C_12  and  O_13
REMARK   11  A    between atoms: C_15  and  C_17
REMARK   12  A    between atoms: C_17  and  C_19
REMARK   13  A    between atoms: C_17  and  N_27
REMARK   14  A    between atoms: C_19  and  C_20
REMARK   15  A    between atoms: C_23  and  O_24
REMARK   16  A    between atoms: C_28  and  C_30
REMARK   17  A    between atoms: C_30  and  C_32
REMARK   18  A    between atoms: C_30  and  N_34
REMARK   19  A    between atoms: C_32  and  O_33
REMARK   20  A    between atoms: C_35  and  C_36
REMARK   21  A    between atoms: N_40  and  C_41
REMARK   22  A    between atoms: C_41  and  C_43
REMARK   23  A    between atoms: C_41  and  C_48
REMARK   24  A    between atoms: C_43  and  C_44
REMARK   25  A    between atoms: C_44  and  C_45
REMARK   26  A    between atoms: C_45  and  O_46
REMARK   27  A    between atoms: N_50  and  C_51
REMARK   28  A    between atoms: C_51  and  C_53
REMARK   29  A    between atoms: C_51  and  C_59
REMARK   30  A    between atoms: C_53  and  C_54
REMARK   31  A    between atoms: N_61  and  C_62
REMARK   32  A    between atoms: C_62  and  C_64
REMARK   33  A    between atoms: C_62  and  C_71
REMARK   34  A    between atoms: C_64  and  C_65
REMARK   35  A    between atoms: N_73  and  C_74
REMARK   36  A    between atoms: C_74  and  C_76
REMARK   37  A    between atoms: C_74  and  C_83
REMARK   38  A    between atoms: C_76  and  C_77
REMARK   39  A    between atoms: C_77  and  C_78
REMARK   40  A    between atoms: C_78  and  N_79
REMARK   41  A    between atoms: N_85  and  C_86
REMARK   42  A    between atoms: C_86  and  C_88
REMARK   43  A    between atoms: C_86  and  C_98
REMARK   44  A    between atoms: C_88  and  C_89
REMARK   45  A    between atoms: N_100  and  C_101
REMARK   46  A    between atoms: C_101  and  C_102
REMARK   47  A    between atoms: N_104  and  C_105
REMARK   48  A    between atoms: C_105  and  C_107
REMARK   49  A    between atoms: C_105  and  C_112
REMARK   50  A    between atoms: C_107  and  C_108
REMARK   51  A    between atoms: C_108  and  C_109
REMARK   52  A    between atoms: C_109  and  C_110
REMARK   53  A    between atoms: C_110  and  N_111
REMARK   54  A    between atoms: C_118  and  C_120
REMARK   55  A    between atoms: N_122  and  C_123
REMARK   56  A    between atoms: C_123  and  C_125
REMARK   57  A    between atoms: C_123  and  C_128
REMARK   58  A    between atoms: C_125  and  C_126
REMARK   59  A    between atoms: C_125  and  C_127
REMARK                            x       y       z     vdW  Elec       q    Type
REMARK                         _______ _______ _______ _____ _____    ______ ____
ROOT
ATOM      1  C   UNK A   1       0.993   3.532  -5.992  0.00  0.00    +0.163 C 
ENDROOT
BRANCH   1   2
ATOM      2  C   UNK A   1       1.541   4.715  -6.861  0.00  0.00    +0.234 C 
ATOM      3  N   UNK A   1       0.697   5.785  -7.088  0.00  0.00    -0.302 N 
ATOM      4  H   UNK A   1      -0.285   5.693  -6.853  0.00  0.00    +0.150 HD
ATOM      5  O   UNK A   1       2.708   4.730  -7.232  0.00  0.00    -0.274 OA
BRANCH   3   6
ATOM      6  C   UNK A   1       1.128   6.986  -7.830  0.00  0.00    +0.159 C 
BRANCH   6   7
ATOM      7  C   UNK A   1       0.214   8.219  -7.564  0.00  0.00    +0.234 C 
ATOM      8  N   UNK A   1       0.635   9.416  -8.126  0.00  0.00    -0.302 N 
ATOM      9  H   UNK A   1       1.544   9.476  -8.578  0.00  0.00    +0.150 HD
ATOM     10  O   UNK A   1      -0.834   8.114  -6.926  0.00  0.00    -0.274 OA
BRANCH   8  11
ATOM     11  C   UNK A   1      -0.107  10.699  -8.019  0.00  0.00    +0.163 C 
BRANCH  11  12
ATOM     12  C   UNK A   1       0.600  11.814  -8.903  0.00  0.00    +0.234 C 
ATOM     13  N   UNK A   1      -0.045  13.040  -9.063  0.00  0.00    -0.305 N 
ATOM     14  H   UNK A   1      -1.053  13.053  -8.967  0.00  0.00    +0.149 HD
ATOM     15  O   UNK A   1       1.689  11.602  -9.444  0.00  0.00    -0.274 OA
BRANCH  13  16
ATOM     16  C   UNK A   1       0.549  14.148  -9.862  0.00  0.00    +0.200 C 
BRANCH  16  17
ATOM     17  C   UNK A   1      -0.322  15.442  -9.894  0.00  0.00    +0.231 C 
ATOM     18  N   UNK A   1       0.270  16.633 -10.228  0.00  0.00    -0.303 N 
ATOM     19  H   UNK A   1       1.034  16.622 -10.890  0.00  0.00    +0.149 HD
ATOM     20  O   UNK A   1      -1.522  15.410  -9.598  0.00  0.00    -0.274 OA
BRANCH  18  21
ATOM     21  C   UNK A   1      -0.440  17.926  -9.998  0.00  0.00    +0.159 C 
BRANCH  21  22
ATOM     22  C   UNK A   1      -1.629  18.159 -10.978  0.00  0.00    +0.237 C 
ATOM     23  N   UNK A   1      -2.734  18.879 -10.541  0.00  0.00    -0.288 N 
ATOM     24  C   UNK A   1      -3.014  19.489  -9.233  0.00  0.00    +0.162 C 
ATOM     25  C   UNK A   1      -3.917  20.707  -9.569  0.00  0.00    +0.033 C 
ATOM     26  C   UNK A   1      -4.310  20.568 -11.037  0.00  0.00    +0.021 C 
ATOM     27  C   UNK A   1      -3.824  19.190 -11.454  0.00  0.00    +0.109 C 
ATOM     28  O   UNK A   1      -1.553  17.741 -12.137  0.00  0.00    -0.274 OA
BRANCH  24  29
ATOM     29  C   UNK A   1      -3.739  18.597  -8.180  0.00  0.00    +0.234 C 
ATOM     30  N   UNK A   1      -3.289  17.302  -7.983  0.00  0.00    -0.302 N 
ATOM     31  H   UNK A   1      -2.721  16.864  -8.700  0.00  0.00    +0.150 HD
ATOM     32  O   UNK A   1      -4.588  19.084  -7.430  0.00  0.00    -0.274 OA
BRANCH  30  33
ATOM     33  C   UNK A   1      -3.933  16.436  -6.953  0.00  0.00    +0.161 C 
BRANCH  33  34
ATOM     34  C   UNK A   1      -3.253  15.062  -6.668  0.00  0.00    +0.231 C 
ATOM     35  O   UNK A   1      -3.689  14.201  -5.908  0.00  0.00    -0.274 OA
ATOM     36  N   UNK A   1      -2.035  14.824  -7.205  0.00  0.00    -0.328 N 
ATOM     37  H   UNK A   1      -1.747  13.861  -7.111  0.00  0.00    +0.145 HD
ATOM     38  H   UNK A   1      -1.814  15.259  -8.091  0.00  0.00    +0.145 HD
ENDBRANCH  33  34
BRANCH  33  39
ATOM     39  C   UNK A   1      -5.465  16.281  -7.205  0.00  0.00    +0.012 C 
ATOM     40  C   UNK A   1      -6.187  15.354  -6.224  0.00  0.00    +0.009 C 
ATOM     41  C   UNK A   1      -5.783  15.883  -8.648  0.00  0.00    +0.009 C 
ENDBRANCH  33  39
ENDBRANCH  30  33
ENDBRANCH  24  29
ENDBRANCH  21  22
BRANCH  21  42
ATOM     42  C   UNK A   1       0.552  19.107 -10.068  0.00  0.00    +0.032 C 
BRANCH  42  43
ATOM     43  C   UNK A   1       1.585  19.003  -8.940  0.00  0.00    +0.003 C 
BRANCH  43  44
ATOM     44  C   UNK A   1       2.658  20.091  -8.982  0.00  0.00    +0.015 C 
BRANCH  44  45
ATOM     45  C   UNK A   1       3.657  19.874  -7.842  0.00  0.00    +0.077 C 
BRANCH  45  46
ATOM     46  N   UNK A   1       4.704  20.883  -7.866  0.00  0.00    -0.330 NA
ATOM     47  H   UNK A   1       5.373  20.690  -7.119  0.00  0.00    +0.118 HD
ATOM     48  H   UNK A   1       5.229  20.815  -8.737  0.00  0.00    +0.118 HD
ENDBRANCH  45  46
ENDBRANCH  44  45
ENDBRANCH  43  44
ENDBRANCH  42  43
ENDBRANCH  21  42
ENDBRANCH  18  21
ENDBRANCH  16  17
ENDBRANCH  13  16
ENDBRANCH  11  12
BRANCH  11  49
ATOM     49  C   UNK A   1      -0.308  11.131  -6.546  0.00  0.00    +0.069 C 
BRANCH  49  50
ATOM     50  C   UNK A   1       0.976  11.404  -5.821  0.00  0.00    -0.020 A 
ATOM     51  C   UNK A   1       1.627  10.602  -4.822  0.00  0.00    +0.003 A 
ATOM     52  C   UNK A   1       2.851  11.213  -4.541  0.00  0.00    +0.047 A 
ATOM     53  C   UNK A   1       3.778  10.691  -3.631  0.00  0.00    +0.026 A 
ATOM     54  C   UNK A   1       3.413   9.546  -2.920  0.00  0.00    +0.002 A 
ATOM     55  C   UNK A   1       2.189   8.924  -3.151  0.00  0.00    +0.001 A 
ATOM     56  N   UNK A   1       2.915  12.359  -5.294  0.00  0.00    -0.360 N 
ATOM     57  H   UNK A   1       3.698  12.997  -5.299  0.00  0.00    +0.165 HD
ATOM     58  C   UNK A   1       1.302   9.419  -4.120  0.00  0.00    +0.010 A 
ATOM     59  C   UNK A   1       1.746  12.541  -5.976  0.00  0.00    +0.087 A 
ENDBRANCH  49  50
ENDBRANCH  11  49
ENDBRANCH   8  11
ENDBRANCH   6   7
BRANCH   6  60
ATOM     60  C   UNK A   1       1.221   6.724  -9.342  0.00  0.00    +0.035 C 
BRANCH  60  61
ATOM     61  C   UNK A   1      -0.134   6.376  -9.978  0.00  0.00    +0.039 C 
BRANCH  61  62
ATOM     62  C   UNK A   1      -0.044   6.237 -11.496  0.00  0.00    +0.196 C 
BRANCH  62  63
ATOM     63  N   UNK A   1       0.766   5.090 -11.854  0.00  0.00    -0.276 N 
ATOM     64  H   UNK A   1       1.410   4.783 -11.134  0.00  0.00    +0.258 HD
ATOM     65  C   UNK A   1       1.216   4.832 -13.099  0.00  0.00    +0.376 C 
ATOM     66  N   UNK A   1       0.847   5.363 -14.203  0.00  0.00    -0.130 NA
ATOM     67  H   UNK A   1       0.123   6.056 -14.011  0.00  0.00    +0.306 HD
ATOM     68  N   UNK A   1       2.157   3.869 -13.096  0.00  0.00    -0.289 N 
ATOM     69  H   UNK A   1       2.321   3.559 -14.047  0.00  0.00    +0.255 HD
ATOM     70  H   UNK A   1       1.935   3.089 -12.492  0.00  0.00    +0.255 HD
ENDBRANCH  62  63
ENDBRANCH  61  62
ENDBRANCH  60  61
ENDBRANCH   6  60
ENDBRANCH   3   6
ENDBRANCH   1   2
BRANCH   1  72
ATOM     71  C   UNK A   1      -1.260   2.798  -6.756  0.00  0.00    +0.234 C 
ATOM     72  N   UNK A   1      -0.487   3.488  -5.839  0.00  0.00    -0.302 N 
ATOM     73  H   UNK A   1      -0.852   3.690  -4.914  0.00  0.00    +0.150 HD
ATOM     74  O   UNK A   1      -0.744   2.306  -7.763  0.00  0.00    -0.274 OA
BRANCH  71  75
ATOM     75  C   UNK A   1      -2.779   2.557  -6.446  0.00  0.00    +0.165 C 
BRANCH  75  77
ATOM     76  C   UNK A   1      -4.664   2.810  -4.837  0.00  0.00    +0.234 C 
ATOM     77  N   UNK A   1      -3.404   3.200  -5.271  0.00  0.00    -0.302 N 
ATOM     78  H   UNK A   1      -2.826   3.792  -4.677  0.00  0.00    +0.150 HD
ATOM     79  O   UNK A   1      -5.344   1.972  -5.430  0.00  0.00    -0.274 OA
BRANCH  76  80
ATOM     80  C   UNK A   1      -5.180   3.452  -3.530  0.00  0.00    +0.159 C 
BRANCH  80  82
ATOM     81  C   UNK A   1      -7.413   4.114  -2.608  0.00  0.00    +0.234 C 
ATOM     82  N   UNK A   1      -6.650   3.545  -3.608  0.00  0.00    -0.302 N 
ATOM     83  H   UNK A   1      -7.127   3.172  -4.432  0.00  0.00    +0.150 HD
ATOM     84  O   UNK A   1      -6.891   4.553  -1.585  0.00  0.00    -0.274 OA
BRANCH  81  85
ATOM     85  C   UNK A   1      -8.937   4.210  -2.893  0.00  0.00    +0.159 C 
BRANCH  85  86
ATOM     86  N   UNK A   1      -9.522   2.875  -3.034  0.00  0.00    -0.302 N 
ATOM     87  H   UNK A   1      -9.821   2.383  -2.189  0.00  0.00    +0.150 HD
ATOM     88  C   UNK A   1      -9.678   2.224  -4.233  0.00  0.00    +0.236 C 
ATOM     89  O   UNK A   1      -9.141   2.634  -5.262  0.00  0.00    -0.274 OA
BRANCH  88  90
ATOM     90  C   UNK A   1     -10.379   0.846  -4.160  0.00  0.00    +0.184 C 
BRANCH  90  91
ATOM     91  N   UNK A   1      -9.325  -0.162  -3.979  0.00  0.00    -0.301 N 
ATOM     92  H   UNK A   1      -8.427   0.062  -4.395  0.00  0.00    +0.150 HD
ATOM     93  C   UNK A   1      -9.605  -1.478  -3.679  0.00  0.00    +0.234 C 
ATOM     94  O   UNK A   1     -10.749  -1.868  -3.455  0.00  0.00    -0.274 OA
BRANCH  93  95
ATOM     95  C   UNK A   1      -8.396  -2.431  -3.647  0.00  0.00    +0.163 C 
BRANCH  95  96
ATOM     96  N   UNK A   1      -8.824  -3.690  -3.024  0.00  0.00    -0.302 N 
ATOM     97  H   UNK A   1      -9.606  -4.162  -3.483  0.00  0.00    +0.150 HD
ATOM     98  C   UNK A   1      -8.782  -3.886  -1.661  0.00  0.00    +0.236 C 
ATOM     99  O   UNK A   1      -8.382  -3.021  -0.879  0.00  0.00    -0.274 OA
BRANCH  98 100
ATOM    100  C   UNK A   1      -9.193  -5.300  -1.169  0.00  0.00    +0.184 C 
BRANCH 100 101
ATOM    101  N   UNK A   1     -10.139  -5.282  -0.046  0.00  0.00    -0.302 N 
ATOM    102  H   UNK A   1      -9.753  -5.391   0.883  0.00  0.00    +0.150 HD
ATOM    103  C   UNK A   0     -11.467  -4.970  -0.170  0.00  0.00    +0.211 C 
ATOM    104  O   UNK A   0     -11.991  -4.713  -1.249  0.00  0.00    -0.276 OA
ATOM    105  C   UNK A   0     -12.262  -5.029   1.108  0.00  0.00    +0.109 C 
ENDBRANCH 100 101
BRANCH 100 106
ATOM    106  C   UNK A   1      -9.526  -6.317  -2.275  0.00  0.00    +0.187 C 
BRANCH 106 107
ATOM    107  O   UNK A   1     -10.635  -5.952  -3.092  0.00  0.00    -0.393 OA
ATOM    108  H   UNK A   1     -11.353  -5.630  -2.498  0.00  0.00    +0.209 HD
ENDBRANCH 106 107
ENDBRANCH 100 106
ENDBRANCH  98 100
ENDBRANCH  95  96
BRANCH  95 109
ATOM    109  C   UNK A   1      -7.906  -2.645  -5.089  0.00  0.00    +0.067 C 
BRANCH 109 110
ATOM    110  C   UNK A   1      -6.688  -3.532  -5.205  0.00  0.00    -0.045 A 
ATOM    111  C   UNK A   1      -5.398  -2.983  -5.190  0.00  0.00    +0.007 A 
ATOM    112  C   UNK A   1      -4.281  -3.812  -5.319  0.00  0.00    +0.045 A 
ATOM    113  C   UNK A   1      -4.451  -5.185  -5.448  0.00  0.00    +0.117 A 
ATOM    114  C   UNK A   1      -5.723  -5.748  -5.462  0.00  0.00    +0.045 A 
ATOM    115  C   UNK A   1      -6.839  -4.920  -5.340  0.00  0.00    +0.007 A 
BRANCH 113 116
ATOM    116  O   UNK A   1      -3.333  -5.956  -5.570  0.00  0.00    -0.507 OA
ATOM    117  H   UNK A   1      -3.605  -6.886  -5.628  0.00  0.00    +0.292 HD
ENDBRANCH 113 116
ENDBRANCH 109 110
ENDBRANCH  95 109
ENDBRANCH  93  95
ENDBRANCH  90  91
BRANCH  90 118
ATOM    118  C   UNK A   1     -11.487   0.839  -3.089  0.00  0.00    +0.187 C 
BRANCH 118 119
ATOM    119  O   UNK A   1     -10.915   0.824  -1.774  0.00  0.00    -0.393 OA
ATOM    120  H   UNK A   1     -10.622  -0.100  -1.635  0.00  0.00    +0.209 HD
ENDBRANCH 118 119
ENDBRANCH  90 118
ENDBRANCH  88  90
ENDBRANCH  85  86
BRANCH  85 121
ATOM    121  C   UNK A   1      -9.708   4.966  -1.794  0.00  0.00    +0.032 C 
BRANCH 121 122
ATOM    122  C   UNK A   1      -9.265   6.409  -1.522  0.00  0.00    +0.002 C 
BRANCH 122 124
ATOM    123  C   UNK A   1      -8.726   8.688  -2.426  0.00  0.00    +0.004 C 
ATOM    124  C   UNK A   1      -9.282   7.311  -2.754  0.00  0.00    -0.003 C 
ENDBRANCH 122 124
ENDBRANCH 121 122
ENDBRANCH  85 121
ENDBRANCH  81  85
ENDBRANCH  80  82
BRANCH  80 125
ATOM    125  C   UNK A   1      -4.748   2.586  -2.328  0.00  0.00    +0.043 C 
BRANCH 125 126
ATOM    126  C   UNK A   1      -3.245   2.454  -2.119  0.00  0.00    +0.123 C 
BRANCH 126 127
ATOM    127  C   UNK A   1      -2.571   3.795  -2.049  0.00  0.00    +0.305 C 
ATOM    128  O   UNK A   1      -1.921   4.244  -2.985  0.00  0.00    -0.251 OA
BRANCH 127 129
ATOM    129  O   UNK A   1      -2.843   4.487  -0.924  0.00  0.00    -0.481 OA
ATOM    130  H   UNK A   1      -3.465   4.052  -0.305  0.00  0.00    +0.295 HD
ENDBRANCH 127 129
ENDBRANCH 126 127
ENDBRANCH 125 126
ENDBRANCH  80 125
ENDBRANCH  76  80
ENDBRANCH  75  77
BRANCH  75 131
ATOM    131  C   UNK A   1      -3.602   2.748  -7.749  0.00  0.00    +0.086 C 
BRANCH 131 132
ATOM    132  C   UNK A   1      -3.815   4.168  -8.166  0.00  0.00    +0.038 A 
ATOM    133  N   UNK A   1      -4.566   5.076  -7.458  0.00  0.00    -0.348 N 
ATOM    134  H   UNK A   1      -5.020   4.914  -6.576  0.00  0.00    +0.166 HD
ATOM    135  C   UNK A   1      -4.631   6.224  -8.191  0.00  0.00    +0.196 A 
ATOM    136  N   UNK A   1      -3.953   6.120  -9.308  0.00  0.00    -0.244 NA
ATOM    137  C   UNK A   1      -3.456   4.842  -9.311  0.00  0.00    +0.133 A 
ENDBRANCH 131 132
ENDBRANCH  75 131
ENDBRANCH  71  75
ENDBRANCH   1  72
BRANCH   1 138
ATOM    138  C   UNK A   1       1.741   3.580  -4.631  0.00  0.00    +0.067 C 
BRANCH 138 139
ATOM    139  C   UNK A   1       1.368   2.527  -3.603  0.00  0.00    -0.045 A 
ATOM    140  C   UNK A   1       1.415   2.857  -2.238  0.00  0.00    +0.004 A 
ATOM    141  C   UNK A   1       0.927   1.975  -1.272  0.00  0.00    +0.000 A 
ATOM    142  C   UNK A   1       0.408   0.742  -1.656  0.00  0.00    +0.000 A 
ATOM    143  C   UNK A   1       0.462   0.358  -2.994  0.00  0.00    +0.000 A 
ATOM    144  C   UNK A   1       0.970   1.233  -3.958  0.00  0.00    +0.004 A 
ENDBRANCH 138 139
ENDBRANCH   1 138
TORSDOF 55
