REMARK  Name = 
REMARK  7 active torsions:
REMARK  status: ('A' for Active; 'I' for Inactive)
REMARK    1  A    between atoms: C_1  and  C_2
REMARK    2  A    between atoms: C_2  and  C_3
REMARK    3  A    between atoms: C_3  and  C_4
REMARK    4  A    between atoms: C_4  and  CA_5
REMARK    5  A    between atoms: CA_5  and  N_7
REMARK    6  A    between atoms: CA_5  and  C_8
REMARK    7  A    between atoms: C_8  and  O_9
REMARK                            x       y       z     vdW  Elec       q    Type
REMARK                         _______ _______ _______ _____ _____    ______ ____
ROOT
ATOM      1  CA  UNL     1       5.089   2.938   0.285  0.00  0.00    +0.161 C 
ENDROOT
BRANCH   1   2
ATOM      2  N   UNL     1       4.743   3.593   1.580  0.00  0.00    -0.318 NA
ATOM      3  H1  UNL     1       5.016   4.580   1.510  0.00  0.00    +0.119 HD
ATOM      4  H2  UNL     1       3.723   3.628   1.658  0.00  0.00    +0.119 HD
ENDBRANCH   1   2
BRANCH   1   5
ATOM      5  C   UNL     1       6.622   2.865   0.187  0.00  0.00    +0.322 C 
ATOM      6  OXT UNL     1       7.256   2.748  -0.848  0.00  0.00    -0.249 OA
BRANCH   5   7
ATOM      7  O   UNL     1       7.193   2.918   1.420  0.00  0.00    -0.480 OA
ATOM      8  H   UNL     1       6.447   3.022   2.061  0.00  0.00    +0.295 HD
ENDBRANCH   5   7
ENDBRANCH   1   5
BRANCH   1   9
ATOM      9  C   UNL     1       4.523   1.514   0.201  0.00  0.00    +0.030 C 
BRANCH   9  10
ATOM     10  C   UNL     1       2.993   1.468   0.153  0.00  0.00    +0.002 C 
BRANCH  10  12
ATOM     11  C   UNL     1       0.958  -0.009   0.013  0.00  0.00    +0.004 C 
ATOM     12  C   UNL     1       2.479   0.031   0.053  0.00  0.00    -0.003 C 
ENDBRANCH  10  12
ENDBRANCH   9  10
ENDBRANCH   1   9
TORSDOF 6
