REMARK  Name = 
REMARK  3 active torsions:
REMARK  status: ('A' for Active; 'I' for Inactive)
REMARK    1  A    between atoms: O_1  and  C_2
REMARK    2  A    between atoms: C_2  and  C_3
REMARK    3  A    between atoms: C_3  and  C_4
REMARK                            x       y       z     vdW  Elec       q    Type
REMARK                         _______ _______ _______ _____ _____    ______ ____
ROOT
ATOM      1  C   UNL     1       3.016   0.775  -1.112  0.00  0.00    +0.070 C 
ENDROOT
BRANCH   1   2
ATOM      2  C   UNL     1       4.521   0.852  -1.121  0.00  0.00    -0.009 C 
ATOM      3  C   UNL     1       5.199   2.006  -1.069  0.00  0.00    +0.020 C 
ATOM      4 BR   UNL     1       5.421  -0.781  -1.291  0.00  0.00    -0.055 Br
ENDBRANCH   1   2
BRANCH   1   5
ATOM      5  C   UNL     1       2.432   0.058   0.105  0.00  0.00    +0.161 C 
BRANCH   5   6
ATOM      6  O   UNL     1       1.009   0.135   0.052  0.00  0.00    -0.395 OA
ATOM      7  H   UNL     1       0.668  -0.379   0.805  0.00  0.00    +0.209 HD
ENDBRANCH   5   6
ENDBRANCH   1   5
TORSDOF 3
