REMARK  Name = 
REMARK  17 active torsions:
REMARK  status: ('A' for Active; 'I' for Inactive)
REMARK    1  A    between atoms: O_1  and  C_2
REMARK    2  A    between atoms: C_2  and  C_4
REMARK    3  A    between atoms: C_2  and  C_10
REMARK    4  A    between atoms: C_4  and  O_5
REMARK    5  A    between atoms: O_5  and  P_6
REMARK    6  A    between atoms: P_6  and  O_7
REMARK    7  A    between atoms: P_6  and  O_8
REMARK    8  A    between atoms: C_10  and  O_12
REMARK    9  A    between atoms: C_10  and  C_13
REMARK   10  A    between atoms: C_13  and  O_15
REMARK   11  A    between atoms: C_13  and  C_16
REMARK   12  A    between atoms: C_16  and  O_18
REMARK   13  A    between atoms: C_16  and  C_19
REMARK   14  A    between atoms: C_19  and  O_20
REMARK   15  A    between atoms: O_20  and  P_21
REMARK   16  A    between atoms: P_21  and  O_22
REMARK   17  A    between atoms: P_21  and  O_23
REMARK                            x       y       z     vdW  Elec       q    Type
REMARK                         _______ _______ _______ _____ _____    ______ ____
ROOT
ATOM      1  C   UNL     1       2.827   3.580  -1.347  0.00  0.00    +0.176 C 
ENDROOT
BRANCH   1   2
ATOM      2  O   UNL     1       2.598   2.172  -1.552  0.00  0.00    -0.386 OA
ATOM      3  H   UNL     1       1.647   1.998  -1.643  0.00  0.00    +0.210 HD
ENDBRANCH   1   2
BRANCH   1   4
ATOM      4  C   UNL     1       4.341   3.816  -1.157  0.00  0.00    +0.176 C 
BRANCH   4   5
ATOM      5  O   UNL     1       5.071   3.411  -2.326  0.00  0.00    -0.386 OA
ATOM      6  H   UNL     1       4.822   4.031  -3.033  0.00  0.00    +0.210 HD
ENDBRANCH   4   5
BRANCH   4   7
ATOM      7  C   UNL     1       4.865   3.036   0.070  0.00  0.00    +0.172 C 
BRANCH   7   8
ATOM      8  O   UNL     1       4.217   3.536   1.256  0.00  0.00    -0.387 OA
ATOM      9  H   UNL     1       4.785   3.322   2.018  0.00  0.00    +0.210 HD
ENDBRANCH   7   8
BRANCH   7  10
ATOM     10  C   UNL     1       6.385   3.150   0.217  0.00  0.00    +0.206 C 
BRANCH  10  11
ATOM     11  O   UNL     1       6.713   4.522   0.379  0.00  0.00    -0.284 OA
BRANCH  11  12
ATOM     12  P   UNL     1       8.155   4.883   0.946  0.00  0.00    +0.472 P 
ATOM     13  O   UNL     1       9.324   4.491   0.121  0.00  0.00    -0.228 OA
BRANCH  12  14
ATOM     14  O   UNL     1       8.031   6.446   1.249  0.00  0.00    -0.303 OA
ATOM     15  H   UNL     1       7.853   6.941   0.428  0.00  0.00    +0.222 HD
ENDBRANCH  12  14
BRANCH  12  16
ATOM     16  O   UNL     1       8.149   4.233   2.406  0.00  0.00    -0.303 OA
ATOM     17  H   UNL     1       9.057   3.999   2.673  0.00  0.00    +0.222 HD
ENDBRANCH  12  16
ENDBRANCH  11  12
ENDBRANCH  10  11
ENDBRANCH   7  10
ENDBRANCH   4   7
ENDBRANCH   1   4
BRANCH   1  18
ATOM     18  C   UNL     1       2.203   4.391  -2.510  0.00  0.00    +0.172 C 
BRANCH  18  19
ATOM     19  O   UNL     1       2.658   5.748  -2.496  0.00  0.00    -0.387 OA
ATOM     20  H   UNL     1       2.248   6.209  -1.743  0.00  0.00    +0.210 HD
ENDBRANCH  18  19
BRANCH  18  21
ATOM     21  C   UNL     1       0.671   4.333  -2.383  0.00  0.00    +0.206 C 
BRANCH  21  22
ATOM     22  O   UNL     1      -0.004   5.059  -3.393  0.00  0.00    -0.284 OA
BRANCH  22  23
ATOM     23  P   UNL     1      -1.590   4.831  -3.456  0.00  0.00    +0.472 P 
ATOM     24  O   UNL     1      -2.362   5.694  -4.391  0.00  0.00    -0.228 OA
BRANCH  23  25
ATOM     25  O   UNL     1      -1.760   3.273  -3.748  0.00  0.00    -0.303 OA
ATOM     26  H   UNL     1      -1.802   3.101  -4.707  0.00  0.00    +0.222 HD
ENDBRANCH  23  25
BRANCH  23  27
ATOM     27  O   UNL     1      -2.076   4.961  -1.938  0.00  0.00    -0.303 OA
ATOM     28  H   UNL     1      -2.331   5.877  -1.726  0.00  0.00    +0.222 HD
ENDBRANCH  23  27
ENDBRANCH  22  23
ENDBRANCH  21  22
ENDBRANCH  18  21
ENDBRANCH   1  18
TORSDOF 17
