REMARK  Name = 
REMARK  13 active torsions:
REMARK  status: ('A' for Active; 'I' for Inactive)
REMARK    1  A    between atoms: C_1  and  O_2
REMARK    2  A    between atoms: O_2  and  C_3
REMARK    3  A    between atoms: C_6  and  C_8
REMARK    4  A    between atoms: C_8  and  O_9
REMARK    5  A    between atoms: C_10  and  O_12
REMARK    6  A    between atoms: O_12  and  C_13
REMARK    7  A    between atoms: C_16  and  C_18
REMARK    8  A    between atoms: C_18  and  O_19
REMARK    9  A    between atoms: C_20  and  O_22
REMARK   10  A    between atoms: C_23  and  O_25
REMARK   11  A    between atoms: C_26  and  O_28
REMARK   12  A    between atoms: C_29  and  O_31
REMARK   13  A    between atoms: C_32  and  O_34
REMARK                            x       y       z     vdW  Elec       q    Type
REMARK                         _______ _______ _______ _____ _____    ______ ____
ROOT
ATOM      1  O   UNL     1       7.572   3.508  -0.481  0.00  0.00    -0.340 OA
ENDROOT
BRANCH   1   5
ATOM      2  C   UNL     1       3.923   2.127  -2.314  0.00  0.00    +0.281 C 
ATOM      3  C   UNL     1       4.348   3.609  -2.542  0.00  0.00    +0.201 C 
ATOM      4  C   UNL     1       5.850   3.794  -2.307  0.00  0.00    +0.179 C 
ATOM      5  C   UNL     1       6.266   3.163  -0.959  0.00  0.00    +0.183 C 
ATOM      6  C   UNL     1       5.925   1.671  -1.036  0.00  0.00    +0.178 C 
ATOM      7  O   UNL     1       4.500   1.519  -1.159  0.00  0.00    -0.341 OA
BRANCH   2   9
ATOM      8  C   UNL     1       1.899   2.526  -1.106  0.00  0.00    +0.197 C 
ATOM      9  O   UNL     1       2.502   1.974  -2.270  0.00  0.00    -0.352 OA
ENDBRANCH   2   9
BRANCH   3  10
ATOM     10  O   UNL     1       3.972   4.043  -3.863  0.00  0.00    -0.384 OA
ATOM     11  H   UNL     1       4.633   3.716  -4.499  0.00  0.00    +0.210 HD
ENDBRANCH   3  10
BRANCH   4  12
ATOM     12  O   UNL     1       6.180   5.190  -2.341  0.00  0.00    -0.386 OA
ATOM     13  H   UNL     1       7.063   5.254  -1.925  0.00  0.00    +0.210 HD
ENDBRANCH   4  12
BRANCH   6  14
ATOM     14  C   UNL     1       6.317   0.876   0.210  0.00  0.00    +0.190 C 
BRANCH  14  15
ATOM     15  O   UNL     1       6.107  -0.518  -0.048  0.00  0.00    -0.392 OA
ATOM     16  H   UNL     1       5.186  -0.593  -0.360  0.00  0.00    +0.210 HD
ENDBRANCH  14  15
ENDBRANCH   6  14
ENDBRANCH   1   5
BRANCH   1  17
ATOM     17  C   UNL     1       8.746   3.334  -1.279  0.00  0.00    +0.282 C 
ATOM     18  C   UNL     1       9.291   1.895  -1.295  0.00  0.00    +0.201 C 
ATOM     19  C   UNL     1      10.433   1.759  -2.303  0.00  0.00    +0.179 C 
ATOM     20  C   UNL     1      10.020   2.326  -3.671  0.00  0.00    +0.177 C 
ATOM     21  C   UNL     1       9.620   3.799  -3.471  0.00  0.00    +0.178 C 
ATOM     22  O   UNL     1       8.523   3.894  -2.561  0.00  0.00    -0.341 OA
BRANCH  18  23
ATOM     23  O   UNL     1       9.786   1.532   0.007  0.00  0.00    -0.384 OA
ATOM     24  H   UNL     1      10.197   0.650  -0.114  0.00  0.00    +0.210 HD
ENDBRANCH  18  23
BRANCH  19  25
ATOM     25  O   UNL     1      10.810   0.373  -2.356  0.00  0.00    -0.386 OA
ATOM     26  H   UNL     1      10.994   0.137  -3.281  0.00  0.00    +0.210 HD
ENDBRANCH  19  25
BRANCH  20  27
ATOM     27  O   UNL     1       8.924   1.548  -4.170  0.00  0.00    -0.386 OA
ATOM     28  H   UNL     1       8.750   1.801  -5.095  0.00  0.00    +0.210 HD
ENDBRANCH  20  27
BRANCH  21  29
ATOM     29  C   UNL     1       9.147   4.469  -4.764  0.00  0.00    +0.190 C 
BRANCH  29  30
ATOM     30  O   UNL     1       8.759   5.817  -4.499  0.00  0.00    -0.392 OA
ATOM     31  H   UNL     1       7.986   5.770  -3.898  0.00  0.00    +0.210 HD
ENDBRANCH  29  30
ENDBRANCH  21  29
ENDBRANCH   1  17
TORSDOF 12
