REMARK  Name = 
REMARK  2 active torsions:
REMARK  status: ('A' for Active; 'I' for Inactive)
REMARK    1  A    between atoms: S_1  and  C_2
REMARK    2  A    between atoms: C_2  and  C_3
REMARK                            x       y       z     vdW  Elec       q    Type
REMARK                         _______ _______ _______ _____ _____    ______ ____
ROOT
ATOM      1  C   UNL     1       3.260   1.082   0.891  0.00  0.00    -0.020 A 
ATOM      2  C   UNL     1       4.205   0.924   1.900  0.00  0.00    +0.115 A 
ATOM      3  N   UNL     1       4.674   1.933   2.669  0.00  0.00    -0.263 NA
ATOM      4  C   UNL     1       4.192   3.167   2.409  0.00  0.00    +0.111 A 
ATOM      5  C   UNL     1       3.260   3.436   1.421  0.00  0.00    +0.020 A 
ATOM      6  C   UNL     1       2.790   2.377   0.650  0.00  0.00    +0.007 A 
ENDROOT
BRANCH   1   7
ATOM      7  C   UNL     1       2.788  -0.091   0.085  0.00  0.00    +0.102 C 
BRANCH   7   8
ATOM      8  S   UNL     1       3.841  -0.398  -1.358  0.00  0.00    -0.174 S 
ATOM      9  H   UNL     1       3.225  -1.520  -1.756  0.00  0.00    +0.102 HD
ENDBRANCH   7   8
ENDBRANCH   1   7
TORSDOF 2
