REMARK  Name = 
REMARK  4 active torsions:
REMARK  status: ('A' for Active; 'I' for Inactive)
REMARK    1  A    between atoms: O_1  and  C_2
REMARK    2  A    between atoms: C_2  and  C_3
REMARK    3  A    between atoms: C_8  and  O_10
REMARK    4  A    between atoms: C_11  and  O_13
REMARK                            x       y       z     vdW  Elec       q    Type
REMARK                         _______ _______ _______ _____ _____    ______ ____
ROOT
ATOM      1  C   UNL     1       2.902   1.200  -0.882  0.00  0.00    +0.059 C 
ATOM      2  C   UNL     1       3.530   2.157   0.152  0.00  0.00    +0.151 C 
ATOM      3  C   UNL     1       2.501   3.042   0.881  0.00  0.00    +0.157 C 
ATOM      4  C   UNL     1       1.479   3.652  -0.097  0.00  0.00    +0.114 C 
ATOM      5  N   UNL     1       0.857   2.655  -0.982  0.00  0.00    -0.313 NA
ATOM      6  H   UNL     1       0.372   1.963  -0.403  0.00  0.00    +0.122 HD
ATOM      7  C   UNL     1       1.887   1.955  -1.756  0.00  0.00    +0.089 C 
ENDROOT
BRANCH   2   8
ATOM      8  O   UNL     1       4.472   2.987  -0.548  0.00  0.00    -0.389 OA
ATOM      9  H   UNL     1       4.907   3.556   0.111  0.00  0.00    +0.210 HD
ENDBRANCH   2   8
BRANCH   3  10
ATOM     10  O   UNL     1       1.833   2.314   1.912  0.00  0.00    -0.388 OA
ATOM     11  H   UNL     1       1.363   1.571   1.473  0.00  0.00    +0.210 HD
ENDBRANCH   3  10
BRANCH   1  12
ATOM     12  C   UNL     1       2.305  -0.067  -0.249  0.00  0.00    +0.163 C 
BRANCH  12  13
ATOM     13  O   UNL     1       1.154   0.202   0.546  0.00  0.00    -0.395 OA
ATOM     14  H   UNL     1       0.816  -0.665   0.844  0.00  0.00    +0.209 HD
ENDBRANCH  12  13
ENDBRANCH   1  12
TORSDOF 4
