REMARK  Name = 
REMARK  1 active torsions:
REMARK  status: ('A' for Active; 'I' for Inactive)
REMARK    1  A    between atoms: O_1  and  B_2
REMARK                            x       y       z     vdW  Elec       q    Type
REMARK                         _______ _______ _______ _____ _____    ______ ____
ROOT
ATOM      1  B   UNL     1       2.701   0.056  -0.076  0.00  0.00    +0.000 B 
ATOM      2  O   UNL     1       3.406  -1.145  -0.535  0.00  0.00    +0.000 OA
ATOM      3  C   UNL     1       4.700  -0.641  -0.700  0.00  0.00    +0.000 C 
ATOM      4  C   UNL     1       4.534   0.846  -0.975  0.00  0.00    +0.000 C 
ATOM      5  O   UNL     1       3.522   1.274  -0.122  0.00  0.00    +0.000 OA
ENDROOT
BRANCH   1   6
ATOM      6  O   UNL     1       1.266   0.167  -0.326  0.00  0.00    +0.000 OA
ATOM      7  H   UNL     1       0.941   0.811   0.352  0.00  0.00    +0.000 HD
ENDBRANCH   1   6
TORSDOF 1
