REMARK  Name = 
REMARK  7 active torsions:
REMARK  status: ('A' for Active; 'I' for Inactive)
REMARK    1  A    between atoms: O_1  and  C_2
REMARK    2  A    between atoms: C_2  and  C_3
REMARK    3  A    between atoms: C_6  and  N_8
REMARK    4  A    between atoms: C_12  and  C_14
REMARK    5  A    between atoms: C_20  and  O_22
REMARK    6  A    between atoms: C_23  and  O_25
REMARK    7  A    between atoms: C_26  and  O_28
REMARK                            x       y       z     vdW  Elec       q    Type
REMARK                         _______ _______ _______ _____ _____    ______ ____
ROOT
ATOM      1  C   UNL     1       3.041  -1.045  -0.916  0.00  0.00    +0.177 C 
ATOM      2  C   UNL     1       1.925  -1.934  -1.490  0.00  0.00    +0.177 C 
ATOM      3  C   UNL     1       1.356  -2.825  -0.376  0.00  0.00    +0.178 C 
ATOM      4  C   UNL     1       2.466  -3.583   0.362  0.00  0.00    +0.192 C 
ATOM      5  C   UNL     1       3.534  -2.565   0.824  0.00  0.00    +0.238 C 
ATOM      6  O   UNL     1       4.054  -1.860  -0.298  0.00  0.00    -0.348 OA
ENDROOT
BRANCH   5   7
ATOM      7  N   UNL     1       4.650  -3.196   1.469  0.00  0.00    -0.271 N 
ATOM      8  H   UNL     1       5.473  -3.409   0.910  0.00  0.00    +0.153 HD
ATOM      9  C   UNL     1       4.629  -3.587   2.768  0.00  0.00    +0.308 C 
ATOM     10  N   UNL     1       5.754  -4.190   3.260  0.00  0.00    -0.236 N 
ATOM     11  H   UNL     1       5.696  -4.390   4.245  0.00  0.00    +0.159 HD
ATOM     12  C   UNL     1       6.858  -4.603   2.535  0.00  0.00    +0.251 C 
ATOM     13  O   UNL     1       6.993  -4.393   1.327  0.00  0.00    -0.270 OA
ATOM     14  O   UNL     1       3.636  -3.443   3.478  0.00  0.00    -0.252 OA
BRANCH  12  15
ATOM     15  C   UNL     1       7.946  -5.301   3.271  0.00  0.00    +0.037 A 
ATOM     16  C   UNL     1       9.232  -5.236   2.712  0.00  0.00    +0.013 A 
ATOM     17  C   UNL     1      10.307  -5.883   3.318  0.00  0.00    +0.001 A 
ATOM     18  C   UNL     1      10.103  -6.609   4.491  0.00  0.00    +0.000 A 
ATOM     19  C   UNL     1       8.828  -6.688   5.049  0.00  0.00    +0.001 A 
ATOM     20  C   UNL     1       7.746  -6.037   4.445  0.00  0.00    +0.013 A 
ENDBRANCH  12  15
ENDBRANCH   5   7
BRANCH   2  21
ATOM     21  O   UNL     1       0.908  -1.117  -2.081  0.00  0.00    -0.386 OA
ATOM     22  H   UNL     1       0.297  -0.827  -1.382  0.00  0.00    +0.210 HD
ENDBRANCH   2  21
BRANCH   3  23
ATOM     23  O   UNL     1       0.409  -3.761  -0.908  0.00  0.00    -0.386 OA
ATOM     24  H   UNL     1       0.284  -4.430  -0.204  0.00  0.00    +0.210 HD
ENDBRANCH   3  23
BRANCH   4  25
ATOM     25  O   UNL     1       1.837  -4.314   1.429  0.00  0.00    -0.385 OA
ATOM     26  H   UNL     1       2.301  -4.094   2.264  0.00  0.00    +0.210 HD
ENDBRANCH   4  25
BRANCH   1  27
ATOM     27  C   UNL     1       3.654  -0.166  -2.016  0.00  0.00    +0.190 C 
BRANCH  27  28
ATOM     28  O   UNL     1       4.538   0.795  -1.435  0.00  0.00    -0.392 OA
ATOM     29  H   UNL     1       4.785   1.412  -2.145  0.00  0.00    +0.210 HD
ENDBRANCH  27  28
ENDBRANCH   1  27
TORSDOF 7
