REMARK  Name = 
REMARK  15 active torsions:
REMARK  status: ('A' for Active; 'I' for Inactive)
REMARK    1  A    between atoms: CA_2  and  C_3
REMARK    2  A    between atoms: CA_2  and  N_7
REMARK    3  A    between atoms: CA_2  and  C_28
REMARK    4  A    between atoms: C_3  and  C_4
REMARK    5  A    between atoms: C_4  and  C_5
REMARK    6  A    between atoms: C_5  and  C_6
REMARK    7  A    between atoms: C_8  and  CA_10
REMARK    8  A    between atoms: CA_10  and  CB_12
REMARK    9  A    between atoms: CA_10  and  N_16
REMARK   10  A    between atoms: CB_12  and  CG_13
REMARK   11  A    between atoms: CG_13  and  CD1_14
REMARK   12  A    between atoms: CG_13  and  CD2_15
REMARK   13  A    between atoms: C_17  and  O_19
REMARK   14  A    between atoms: O_19  and  C_20
REMARK   15  A    between atoms: C_20  and  C_21
REMARK                            x       y       z     vdW  Elec       q    Type
REMARK                         _______ _______ _______ _____ _____    ______ ____
ROOT
ATOM      1  CA  LEU A   1       2.677  -1.823  -3.590  0.00  0.00    +0.162 C 
ENDROOT
BRANCH   1   4
ATOM      2  N   LEU A   1       1.209   0.124  -3.883  0.00  0.00    -0.304 N 
ATOM      3  H   LEU A   1       1.212   0.152  -2.870  0.00  0.00    +0.149 HD
ATOM      4  C   LEU A   1       2.122  -0.708  -4.497  0.00  0.00    +0.234 C 
ATOM      5  O   LEU A   1       2.404  -0.616  -5.690  0.00  0.00    -0.274 OA
BRANCH   2   6
ATOM      6  CA  LEU A   1       0.690   1.307  -4.562  0.00  0.00    +0.136 C 
BRANCH   6   7
ATOM      7  C   LEU A   1       1.678   2.446  -4.342  0.00  0.00    +0.245 C 
ATOM      8  O   LEU A   1       2.341   2.590  -3.318  0.00  0.00    -0.299 OA
ENDBRANCH   6   7
BRANCH   6   9
ATOM      9  C   LEU A   1      -0.681   1.663  -3.985  0.00  0.00    +0.030 C 
BRANCH   9  10
ATOM     10  C   LEU A   1      -1.355   2.838  -4.695  0.00  0.00    +0.002 C 
BRANCH  10  11
ATOM     11  C   LEU A   1      -2.737   3.108  -4.097  0.00  0.00    -0.003 C 
ATOM     12  C   LEU A   1      -3.422   4.279  -4.780  0.00  0.00    +0.004 C 
ENDBRANCH  10  11
ENDBRANCH   9  10
ENDBRANCH   6   9
ENDBRANCH   2   6
ENDBRANCH   1   4
BRANCH   1  13
ATOM     13  N   LEU A   1       2.217  -3.082  -4.164  0.00  0.00    -0.270 N 
ATOM     14  H   LEU A   1       1.847  -3.091  -5.107  0.00  0.00    +0.153 HD
ATOM     15  C   UNK A   0       2.434  -4.293  -3.585  0.00  0.00    +0.401 C 
ATOM     16  O   UNK A   0       2.952  -4.463  -2.493  0.00  0.00    -0.226 OA
BRANCH  15  17
ATOM     17  O   UNK A   0       2.056  -5.275  -4.437  0.00  0.00    -0.446 OA
BRANCH  17  18
ATOM     18  C   UNK A   0       2.641  -6.558  -4.179  0.00  0.00    +0.269 C 
BRANCH  18  19
ATOM     19  C   UNK A   0       1.656  -7.543  -3.601  0.00  0.00    -0.010 A 
ATOM     20  C   UNK A   0       1.507  -7.666  -2.212  0.00  0.00    +0.008 A 
ATOM     21  C   UNK A   0       0.634  -8.615  -1.672  0.00  0.00    +0.015 A 
ATOM     22  C   UNK A   0      -0.102  -9.439  -2.521  0.00  0.00    +0.018 A 
ATOM     23 BR   UNK A   0      -1.289 -10.718  -1.793  0.00  0.00    -0.050 Br
ATOM     24  C   UNK A   0       0.029  -9.326  -3.903  0.00  0.00    +0.015 A 
ATOM     25  C   UNK A   0       0.903  -8.377  -4.441  0.00  0.00    +0.008 A 
ENDBRANCH  18  19
ENDBRANCH  17  18
ENDBRANCH  15  17
ENDBRANCH   1  13
BRANCH   1  26
ATOM     26  CB  LEU A   1       4.214  -1.739  -3.519  0.00  0.00    +0.035 C 
BRANCH  26  27
ATOM     27  CG  LEU A   1       4.767  -0.417  -2.942  0.00  0.00    -0.015 C 
ATOM     28  CD2 LEU A   1       6.299  -0.453  -2.932  0.00  0.00    +0.007 C 
ATOM     29  CD1 LEU A   1       4.256  -0.130  -1.530  0.00  0.00    +0.007 C 
ENDBRANCH  26  27
ENDBRANCH   1  26
TORSDOF 12
