REMARK  Name = 
REMARK  14 active torsions:
REMARK  status: ('A' for Active; 'I' for Inactive)
REMARK    1  A    between atoms: N_8  and  C_9
REMARK    2  A    between atoms: C_12  and  C_14
REMARK    3  A    between atoms: C_14  and  O_15
REMARK    4  A    between atoms: O_15  and  P_16
REMARK    5  A    between atoms: P_16  and  O_17
REMARK    6  A    between atoms: P_16  and  O_19
REMARK    7  A    between atoms: O_19  and  P_20
REMARK    8  A    between atoms: P_20  and  O_21
REMARK    9  A    between atoms: P_20  and  O_23
REMARK   10  A    between atoms: O_23  and  P_24
REMARK   11  A    between atoms: P_24  and  O_25
REMARK   12  A    between atoms: P_24  and  O_26
REMARK   13  A    between atoms: C_28  and  O_30
REMARK   14  A    between atoms: C_31  and  O_33
REMARK                            x       y       z     vdW  Elec       q    Type
REMARK                         _______ _______ _______ _____ _____    ______ ____
ROOT
ATOM      1  C   UNL     1       4.608 -11.126  -3.926  0.00  0.00    +0.253 C 
ATOM      2  C   UNL     1       3.992 -11.335  -2.531  0.00  0.00    +0.195 C 
ATOM      3  C   UNL     1       5.187 -11.260  -1.565  0.00  0.00    +0.178 C 
ATOM      4  C   UNL     1       6.382 -10.982  -2.486  0.00  0.00    +0.178 C 
ATOM      5  O   UNL     1       5.828 -10.379  -3.665  0.00  0.00    -0.346 OA
ENDROOT
BRANCH   1  17
ATOM      6  N   UNL     1       4.680 -16.146  -2.077  0.00  0.00    -0.329 N 
ATOM      7  H   UNL     1       5.320 -16.874  -1.799  0.00  0.00    +0.145 HD
ATOM      8  H   UNL     1       4.426 -15.531  -1.306  0.00  0.00    +0.145 HD
ATOM      9  C   UNL     1       4.988 -15.446  -3.194  0.00  0.00    +0.195 A 
ATOM     10  N   UNL     1       5.601 -16.144  -4.211  0.00  0.00    -0.293 N 
ATOM     11  H   UNL     1       5.761 -17.134  -4.122  0.00  0.00    +0.172 HD
ATOM     12  C   UNL     1       5.974 -15.591  -5.432  0.00  0.00    +0.280 A 
ATOM     13  O   UNL     1       6.518 -16.265  -6.304  0.00  0.00    -0.265 OA
ATOM     14  C   UNL     1       5.666 -14.183  -5.512  0.00  0.00    +0.172 A 
ATOM     15  N   UNL     1       5.901 -13.283  -6.514  0.00  0.00    -0.229 NA
ATOM     16  C   UNL     1       5.478 -12.136  -6.022  0.00  0.00    +0.203 A 
ATOM     17  N   UNL     1       4.976 -12.263  -4.742  0.00  0.00    -0.285 N 
ATOM     18  C   UNL     1       5.070 -13.587  -4.421  0.00  0.00    +0.171 A 
ATOM     19  N   UNL     1       4.710 -14.170  -3.259  0.00  0.00    -0.196 NA
ENDBRANCH   1  17
BRANCH   2  20
ATOM     20  O   UNL     1       3.086 -10.243  -2.238  0.00  0.00    -0.385 OA
ATOM     21  H   UNL     1       3.585  -9.408  -2.285  0.00  0.00    +0.210 HD
ENDBRANCH   2  20
BRANCH   3  22
ATOM     22  O   UNL     1       5.331 -12.469  -0.822  0.00  0.00    -0.386 OA
ATOM     23  H   UNL     1       6.263 -12.533  -0.540  0.00  0.00    +0.210 HD
ENDBRANCH   3  22
BRANCH   4  24
ATOM     24  C   UNL     1       7.456 -10.075  -1.889  0.00  0.00    +0.206 C 
BRANCH  24  25
ATOM     25  O   UNL     1       7.919 -10.638  -0.681  0.00  0.00    -0.284 OA
BRANCH  25  26
ATOM     26  P   UNL     1       9.193  -9.902   0.062  0.00  0.00    +0.483 P 
ATOM     27  O   UNL     1       9.405 -10.780   1.307  0.00  0.00    -0.227 OA
BRANCH  26  28
ATOM     28  O   UNL     1      10.268 -10.962  -0.782  0.00  0.00    -0.302 OA
ATOM     29  H   UNL     1      10.170 -11.803  -0.291  0.00  0.00    +0.222 HD
ENDBRANCH  26  28
BRANCH  26  30
ATOM     30  O   UNL     1       8.117  -8.842   0.906  0.00  0.00    -0.186 OA
BRANCH  30  31
ATOM     31  P   UNL     1       8.989  -7.452   1.453  0.00  0.00    +0.492 P 
ATOM     32  O   UNL     1       9.583  -7.275   0.053  0.00  0.00    -0.226 OA
BRANCH  31  33
ATOM     33  O   UNL     1       9.953  -8.472   2.275  0.00  0.00    -0.302 OA
ATOM     34  H   UNL     1       9.499  -8.932   3.020  0.00  0.00    +0.222 HD
ENDBRANCH  31  33
BRANCH  31  35
ATOM     35  O   UNL     1       9.862  -6.062   2.001  0.00  0.00    -0.186 OA
BRANCH  35  36
ATOM     36  P   UNL     1      10.986  -6.533   3.228  0.00  0.00    +0.481 P 
ATOM     37  O   UNL     1      11.993  -6.955   4.326  0.00  0.00    -0.227 OA
BRANCH  36  38
ATOM     38  O   UNL     1       9.735  -6.294   4.267  0.00  0.00    -0.302 OA
ATOM     39  H   UNL     1       9.951  -5.454   4.722  0.00  0.00    +0.222 HD
ENDBRANCH  36  38
BRANCH  36  40
ATOM     40  O   UNL     1      11.424  -4.950   3.248  0.00  0.00    -0.302 OA
ATOM     41  H   UNL     1      12.166  -4.787   2.638  0.00  0.00    +0.222 HD
ENDBRANCH  36  40
ENDBRANCH  35  36
ENDBRANCH  31  35
ENDBRANCH  30  31
ENDBRANCH  26  30
ENDBRANCH  25  26
ENDBRANCH  24  25
ENDBRANCH   4  24
TORSDOF 14
