REMARK  Name = 
REMARK  8 active torsions:
REMARK  status: ('A' for Active; 'I' for Inactive)
REMARK    1  A    between atoms: N_1  and  S_2
REMARK    2  A    between atoms: S_2  and  C_5
REMARK    3  A    between atoms: C_8  and  C_9
REMARK    4  A    between atoms: C_9  and  N_10
REMARK    5  A    between atoms: C_11  and  C_13
REMARK    6  A    between atoms: C_14  and  C_18
REMARK    7  A    between atoms: C_22  and  O_23
REMARK    8  A    between atoms: C_25  and  O_26
REMARK                            x       y       z     vdW  Elec       q    Type
REMARK                         _______ _______ _______ _____ _____    ______ ____
ROOT
ATOM      1  N   UNL     1       3.554  -6.286  -2.250  0.00  0.00    -0.307 N 
ATOM      2  H   UNL     1       4.055  -6.369  -1.376  0.00  0.00    +0.149 HD
ATOM      3  C   UNL     1       3.101  -7.424  -2.875  0.00  0.00    +0.248 C 
ATOM      4  O   UNL     1       2.686  -7.428  -4.028  0.00  0.00    -0.270 OA
ENDROOT
BRANCH   3   5
ATOM      5  C   UNL     1       3.167  -8.621  -2.055  0.00  0.00    +0.082 A 
ATOM      6  C   UNL     1       2.916  -8.732  -0.666  0.00  0.00    +0.147 A 
ATOM      7  N   UNL     1       2.981  -9.986  -0.223  0.00  0.00    -0.181 NA
ATOM      8  N   UNL     1       3.229 -10.692  -1.340  0.00  0.00    -0.276 N 
ATOM      9  H   UNL     1       3.242 -11.706  -1.290  0.00  0.00    +0.189 HD
ATOM     10  C   UNL     1       3.411  -9.929  -2.469  0.00  0.00    +0.081 A 
BRANCH  10  11
ATOM     11  C   UNL     1       3.710 -10.521  -3.782  0.00  0.00    +0.044 A 
ATOM     12  C   UNL     1       3.279 -11.815  -4.139  0.00  0.00    +0.130 A 
ATOM     13  C   UNL     1       3.425 -12.293  -5.443  0.00  0.00    +0.093 A 
ATOM     14  C   UNL     1       4.020 -11.482  -6.402  0.00  0.00    +0.139 A 
ATOM     15  C   UNL     1       4.531 -10.233  -6.054  0.00  0.00    +0.083 A 
ATOM     16 CL   UNL     1       5.297  -9.238  -7.236  0.00  0.00    -0.080 Cl
ATOM     17  C   UNL     1       4.399  -9.768  -4.747  0.00  0.00    +0.037 A 
BRANCH  12  18
ATOM     18  O   UNL     1       2.690 -12.620  -3.196  0.00  0.00    -0.506 OA
ATOM     19  H   UNL     1       2.389 -13.437  -3.632  0.00  0.00    +0.292 HD
ENDBRANCH  12  18
BRANCH  14  20
ATOM     20  O   UNL     1       4.068 -11.952  -7.685  0.00  0.00    -0.505 OA
ATOM     21  H   UNL     1       4.407 -11.225  -8.242  0.00  0.00    +0.292 HD
ENDBRANCH  14  20
ENDBRANCH  10  11
ENDBRANCH   3   5
BRANCH   1  22
ATOM     22  C   UNL     1       3.590  -5.024  -2.942  0.00  0.00    +0.139 C 
BRANCH  22  26
ATOM     23  C   UNL     1       7.372  -4.014  -4.711  0.00  0.00    +0.105 A 
ATOM     24  C   UNL     1       7.103  -3.634  -3.394  0.00  0.00    +0.029 A 
ATOM     25  C   UNL     1       5.892  -3.999  -2.808  0.00  0.00    +0.007 A 
ATOM     26  C   UNL     1       4.945  -4.738  -3.533  0.00  0.00    -0.030 A 
ATOM     27  C   UNL     1       5.265  -5.178  -4.832  0.00  0.00    +0.007 A 
ATOM     28  C   UNL     1       6.477  -4.814  -5.423  0.00  0.00    +0.029 A 
BRANCH  23  29
ATOM     29  S   UNL     1       8.818  -3.389  -5.517  0.00  0.00    +0.056 S 
ATOM     30  O   UNL     1       9.502  -2.469  -4.631  0.00  0.00    -0.153 OA
ATOM     31  O   UNL     1       9.490  -4.474  -6.188  0.00  0.00    -0.153 OA
BRANCH  29  32
ATOM     32  N   UNL     1       8.142  -2.424  -6.714  0.00  0.00    -0.204 NA
ATOM     33  H   UNL     1       8.258  -1.436  -6.482  0.00  0.00    +0.144 HD
ATOM     34  H   UNL     1       8.522  -2.687  -7.625  0.00  0.00    +0.144 HD
ENDBRANCH  29  32
ENDBRANCH  23  29
ENDBRANCH  22  26
ENDBRANCH   1  22
TORSDOF 8
