REMARK  Name = 
REMARK  8 active torsions:
REMARK  status: ('A' for Active; 'I' for Inactive)
REMARK    1  A    between atoms: C_1  and  C_2
REMARK    2  A    between atoms: N_4  and  C_5
REMARK    3  A    between atoms: C_5  and  C_20
REMARK    4  A    between atoms: C_7  and  C_9
REMARK    5  A    between atoms: C_9  and  O_10
REMARK    6  A    between atoms: C_11  and  O_13
REMARK    7  A    between atoms: C_14  and  O_16
REMARK    8  A    between atoms: C_17  and  O_19
REMARK                            x       y       z     vdW  Elec       q    Type
REMARK                         _______ _______ _______ _____ _____    ______ ____
ROOT
ATOM      1  C   UNL     1       4.529   0.723  -1.103  0.00  0.00    +0.242 C 
ATOM      2  C   UNL     1       5.154   1.345  -2.393  0.00  0.00    +0.205 C 
ATOM      3  C   UNL     1       4.881   0.466  -3.632  0.00  0.00    +0.179 C 
ATOM      4  C   UNL     1       5.293  -0.987  -3.364  0.00  0.00    +0.177 C 
ATOM      5  C   UNL     1       4.608  -1.526  -2.092  0.00  0.00    +0.178 C 
ATOM      6  O   UNL     1       4.811  -0.680  -0.944  0.00  0.00    -0.338 OA
ENDROOT
BRANCH   1   9
ATOM      7  C   UNL     1       5.824   3.058   1.613  0.00  0.00    +0.109 C 
ATOM      8  C   UNL     1       5.116   2.658   0.346  0.00  0.00    +0.212 C 
ATOM      9  N   UNL     1       5.064   1.301   0.133  0.00  0.00    -0.278 N 
ATOM     10  H   UNL     1       5.645   0.689   0.684  0.00  0.00    +0.152 HD
ATOM     11  O   UNL     1       4.608   3.487  -0.401  0.00  0.00    -0.276 OA
ENDBRANCH   1   9
BRANCH   1  12
ATOM     12  C   UNL     1       2.979   0.960  -1.033  0.00  0.00    +0.264 C 
ATOM     13  O   UNL     1       2.333   1.605  -1.855  0.00  0.00    -0.271 OA
ATOM     14  N   UNL     1       2.339   0.300  -0.007  0.00  0.00    -0.325 N 
ATOM     15  H   UNL     1       2.800  -0.489   0.427  0.00  0.00    +0.145 HD
ATOM     16  H   UNL     1       1.328   0.346   0.010  0.00  0.00    +0.145 HD
ENDBRANCH   1  12
BRANCH   2  17
ATOM     17  O   UNL     1       6.577   1.556  -2.222  0.00  0.00    -0.384 OA
ATOM     18  H   UNL     1       7.044   1.114  -2.956  0.00  0.00    +0.210 HD
ENDBRANCH   2  17
BRANCH   3  19
ATOM     19  O   UNL     1       3.523   0.505  -4.066  0.00  0.00    -0.386 OA
ATOM     20  H   UNL     1       3.064   1.282  -3.682  0.00  0.00    +0.210 HD
ENDBRANCH   3  19
BRANCH   4  21
ATOM     21  O   UNL     1       6.725  -1.034  -3.214  0.00  0.00    -0.386 OA
ATOM     22  H   UNL     1       6.967  -1.970  -3.057  0.00  0.00    +0.210 HD
ENDBRANCH   4  21
BRANCH   5  23
ATOM     23  C   UNL     1       3.133  -1.920  -2.306  0.00  0.00    +0.190 C 
BRANCH  23  24
ATOM     24  O   UNL     1       3.004  -2.863  -3.361  0.00  0.00    -0.392 OA
ATOM     25  H   UNL     1       3.035  -3.751  -2.974  0.00  0.00    +0.210 HD
ENDBRANCH  23  24
ENDBRANCH   5  23
TORSDOF 7
