REMARK  Name = 
REMARK  9 active torsions:
REMARK  status: ('A' for Active; 'I' for Inactive)
REMARK    1  A    between atoms: C_1  and  C_2
REMARK    2  A    between atoms: C_2  and  C_3
REMARK    3  A    between atoms: C_3  and  C_4
REMARK    4  A    between atoms: C_4  and  C_5
REMARK    5  A    between atoms: C_5  and  O_7
REMARK    6  A    between atoms: C_5  and  C_8
REMARK    7  A    between atoms: C_8  and  O_10
REMARK    8  A    between atoms: C_8  and  C_11
REMARK    9  A    between atoms: C_11  and  O_12
REMARK                            x       y       z     vdW  Elec       q    Type
REMARK                         _______ _______ _______ _____ _____    ______ ____
ROOT
ATOM      1  C   UNL     1       5.019   0.750   2.835  0.00  0.00    +0.145 C 
ENDROOT
BRANCH   1   2
ATOM      2  O   UNL     1       4.555  -0.210   3.790  0.00  0.00    -0.389 OA
ATOM      3  H   UNL     1       4.780  -1.094   3.446  0.00  0.00    +0.210 HD
ENDBRANCH   1   2
BRANCH   1   4
ATOM      4  C   UNL     1       4.360   2.107   3.129  0.00  0.00    +0.034 C 
BRANCH   4   5
ATOM      5  C   UNL     1       2.830   2.038   3.032  0.00  0.00    +0.002 C 
BRANCH   5   7
ATOM      6  C   UNL     1       0.680   3.339   3.223  0.00  0.00    +0.004 C 
ATOM      7  C   UNL     1       2.197   3.403   3.301  0.00  0.00    -0.003 C 
ENDBRANCH   5   7
ENDBRANCH   4   5
ENDBRANCH   1   4
BRANCH   1   8
ATOM      8  C   UNL     1       6.567   0.807   2.836  0.00  0.00    +0.168 C 
BRANCH   8   9
ATOM      9  O   UNL     1       7.042   1.752   1.877  0.00  0.00    -0.387 OA
ATOM     10  H   UNL     1       6.767   1.446   0.997  0.00  0.00    +0.210 HD
ENDBRANCH   8   9
BRANCH   8  11
ATOM     11  C   UNL     1       7.171   1.126   4.213  0.00  0.00    +0.189 C 
BRANCH  11  12
ATOM     12  O   UNL     1       6.846   0.134   5.181  0.00  0.00    -0.392 OA
ATOM     13  H   UNL     1       5.870   0.046   5.172  0.00  0.00    +0.210 HD
ENDBRANCH  11  12
ENDBRANCH   8  11
ENDBRANCH   1   8
TORSDOF 8
