REMARK  Name = 
REMARK  4 active torsions:
REMARK  status: ('A' for Active; 'I' for Inactive)
REMARK    1  A    between atoms: C_2  and  C_5
REMARK    2  A    between atoms: C_5  and  C_7
REMARK    3  A    between atoms: C_7  and  C_8
REMARK    4  A    between atoms: C_8  and  C_10
REMARK                            x       y       z     vdW  Elec       q    Type
REMARK                         _______ _______ _______ _____ _____    ______ ____
ROOT
ATOM      1  C   UNL     1       4.217  -0.713   1.572  0.00  0.00    +0.164 C 
ENDROOT
BRANCH   1   2
ATOM      2  C   UNL     1       4.000  -1.686   0.447  0.00  0.00    +0.243 C 
ATOM      3  O   UNL     1       4.070  -2.905   0.616  0.00  0.00    -0.288 OA
BRANCH   2   5
ATOM      4  F   UNL     1       3.656   0.311  -0.829  0.00  0.00    -0.163 F 
ATOM      5  C   UNL     1       3.694  -1.050  -0.898  0.00  0.00    +0.451 C 
ATOM      6  F   UNL     1       4.628  -1.352  -1.838  0.00  0.00    -0.163 F 
ATOM      7  F   UNL     1       2.490  -1.435  -1.397  0.00  0.00    -0.163 F 
ENDBRANCH   2   5
ENDBRANCH   1   2
BRANCH   1   8
ATOM      8  C   UNL     1       4.597  -1.342   2.887  0.00  0.00    +0.177 C 
ATOM      9  O   UNL     1       3.724  -1.495   3.744  0.00  0.00    -0.291 OA
BRANCH   8  10
ATOM     10  C   UNL     1       5.998  -1.669   3.147  0.00  0.00    +0.055 A 
ATOM     11  S   UNL     1       7.161  -1.821   1.899  0.00  0.00    -0.094 S 
ATOM     12  C   UNL     1       8.407  -2.200   3.005  0.00  0.00    +0.046 A 
ATOM     13  C   UNL     1       7.961  -2.191   4.306  0.00  0.00    +0.008 A 
ATOM     14  C   UNL     1       6.569  -1.898   4.387  0.00  0.00    +0.019 A 
ENDBRANCH   8  10
ENDBRANCH   1   8
TORSDOF 4
