REMARK  Name = 
REMARK  21 active torsions:
REMARK  status: ('A' for Active; 'I' for Inactive)
REMARK    1  A    between atoms: C_1  and  C_2
REMARK    2  A    between atoms: C_2  and  O_3
REMARK    3  A    between atoms: O_3  and  C_4
REMARK    4  A    between atoms: C_4  and  C_6
REMARK    5  A    between atoms: C_7  and  C_8
REMARK    6  A    between atoms: C_8  and  C_10
REMARK    7  A    between atoms: C_8  and  N_18
REMARK    8  A    between atoms: C_10  and  C_11
REMARK    9  A    between atoms: C_19  and  C_21
REMARK   10  A    between atoms: C_21  and  N_23
REMARK   11  A    between atoms: C_21  and  C_39
REMARK   12  A    between atoms: C_24  and  C_26
REMARK   13  A    between atoms: C_26  and  C_28
REMARK   14  A    between atoms: C_26  and  N_31
REMARK   15  A    between atoms: C_28  and  C_29
REMARK   16  A    between atoms: C_28  and  C_30
REMARK   17  A    between atoms: C_32  and  O_34
REMARK   18  A    between atoms: O_34  and  C_35
REMARK   19  A    between atoms: C_35  and  C_36
REMARK   20  A    between atoms: C_35  and  C_37
REMARK   21  A    between atoms: C_35  and  C_38
REMARK                            x       y       z     vdW  Elec       q    Type
REMARK                         _______ _______ _______ _____ _____    ______ ____
ROOT
ATOM      1  C   UNL     1       3.814   5.479   9.864  0.00  0.00    +0.190 C 
ENDROOT
BRANCH   1   2
ATOM      2  C   UNL     1       3.167   4.767  11.041  0.00  0.00    -0.018 A 
ATOM      3  C   UNL     1       2.929   3.381  11.016  0.00  0.00    +0.006 A 
ATOM      4  C   UNL     1       2.345   2.736  12.110  0.00  0.00    +0.000 A 
ATOM      5  C   UNL     1       2.004   3.464  13.246  0.00  0.00    +0.000 A 
ATOM      6  C   UNL     1       2.213   4.841  13.277  0.00  0.00    +0.000 A 
ATOM      7  C   UNL     1       2.780   5.492  12.178  0.00  0.00    +0.006 A 
ENDBRANCH   1   2
BRANCH   1  10
ATOM      8  N   UNL     1       6.289   5.615  10.274  0.00  0.00    -0.307 N 
ATOM      9  H   UNL     1       6.042   6.368  10.906  0.00  0.00    +0.149 HD
ATOM     10  C   UNL     1       5.268   4.973   9.585  0.00  0.00    +0.238 C 
ATOM     11  O   UNL     1       5.486   4.041   8.804  0.00  0.00    -0.273 OA
BRANCH   8  12
ATOM     12  C   UNL     1       7.686   5.212  10.182  0.00  0.00    +0.097 C 
BRANCH  12  14
ATOM     13  C   UNL     1       8.710   7.507  10.611  0.00  0.00    +0.089 C 
ATOM     14  C   UNL     1       8.565   6.204  10.906  0.00  0.00    +0.002 C 
BRANCH  13  15
ATOM     15  C   UNL     1       9.632   8.346  11.418  0.00  0.00    +0.332 C 
ATOM     16  O   UNL     1      10.391   7.923  12.275  0.00  0.00    -0.246 OA
BRANCH  15  17
ATOM     17  O   UNL     1       9.417   9.642  11.087  0.00  0.00    -0.462 OA
BRANCH  17  19
ATOM     18  C   UNL     1      11.074  11.406  11.361  0.00  0.00    +0.048 C 
ATOM     19  C   UNL     1       9.944  10.622  11.997  0.00  0.00    +0.229 C 
ENDBRANCH  17  19
ENDBRANCH  15  17
ENDBRANCH  13  15
ENDBRANCH  12  14
BRANCH  12  20
ATOM     20  C   UNL     1       7.966   3.767  10.666  0.00  0.00    +0.039 C 
BRANCH  20  21
ATOM     21  C   UNL     1       7.696   3.450  12.147  0.00  0.00    +0.078 C 
ATOM     22  C   UNL     1       6.235   3.527  12.511  0.00  0.00    +0.216 C 
ATOM     23  O   UNL     1       5.666   4.506  12.962  0.00  0.00    -0.276 OA
ATOM     24  N   UNL     1       5.679   2.287  12.268  0.00  0.00    -0.315 N 
ATOM     25  H   UNL     1       4.710   2.105  12.494  0.00  0.00    +0.149 HD
ATOM     26  C   UNL     1       6.663   1.293  11.966  0.00  0.00    +0.105 C 
ATOM     27  C   UNL     1       7.940   1.958  12.451  0.00  0.00    +0.031 C 
ENDBRANCH  20  21
ENDBRANCH  12  20
ENDBRANCH   8  12
ENDBRANCH   1  10
BRANCH   1  28
ATOM     28  N   UNL     1       3.010   5.237   8.670  0.00  0.00    -0.299 N 
ATOM     29  H   UNL     1       3.233   4.408   8.134  0.00  0.00    +0.150 HD
ATOM     30  C   UNL     1       1.911   5.988   8.324  0.00  0.00    +0.235 C 
ATOM     31  O   UNL     1       1.515   6.934   9.001  0.00  0.00    -0.274 OA
BRANCH  30  32
ATOM     32  C   UNL     1       1.197   5.552   7.011  0.00  0.00    +0.165 C 
BRANCH  32  33
ATOM     33  N   UNL     1       1.933   4.500   6.306  0.00  0.00    -0.270 N 
ATOM     34  H   UNL     1       1.770   3.525   6.472  0.00  0.00    +0.153 HD
ATOM     35  C   UNL     1       3.028   4.854   5.559  0.00  0.00    +0.401 C 
ATOM     36  O   UNL     1       3.389   6.007   5.404  0.00  0.00    -0.226 OA
BRANCH  35  37
ATOM     37  O   UNL     1       3.650   3.755   5.076  0.00  0.00    -0.445 OA
BRANCH  37  38
ATOM     38  C   UNL     1       4.872   3.941   4.304  0.00  0.00    +0.107 C 
ATOM     39  C   UNL     1       4.624   4.801   3.062  0.00  0.00    +0.055 C 
ATOM     40  C   UNL     1       5.294   2.541   3.828  0.00  0.00    +0.055 C 
ATOM     41  C   UNL     1       6.001   4.506   5.180  0.00  0.00    +0.055 C 
ENDBRANCH  37  38
ENDBRANCH  35  37
ENDBRANCH  32  33
BRANCH  32  42
ATOM     42  C   UNL     1      -0.299   5.226   7.231  0.00  0.00    +0.012 C 
ATOM     43  C   UNL     1      -0.544   4.008   8.123  0.00  0.00    +0.009 C 
ATOM     44  C   UNL     1      -1.035   5.050   5.896  0.00  0.00    +0.009 C 
ENDBRANCH  32  42
ENDBRANCH  30  32
ENDBRANCH   1  28
TORSDOF 15
