REMARK  Name = 
REMARK  17 active torsions:
REMARK  status: ('A' for Active; 'I' for Inactive)
REMARK    1  A    between atoms: O_1  and  C_2
REMARK    2  A    between atoms: C_2  and  C_3
REMARK    3  A    between atoms: C_6  and  O_8
REMARK    4  A    between atoms: O_8  and  P_9
REMARK    5  A    between atoms: P_9  and  O_10
REMARK    6  A    between atoms: P_9  and  O_12
REMARK    7  A    between atoms: O_12  and  P_13
REMARK    8  A    between atoms: P_13  and  O_14
REMARK    9  A    between atoms: P_13  and  O_16
REMARK   10  A    between atoms: O_16  and  C_17
REMARK   11  A    between atoms: C_17  and  C_18
REMARK   12  A    between atoms: C_21  and  N_29
REMARK   13  A    between atoms: C_23  and  O_25
REMARK   14  A    between atoms: C_26  and  O_28
REMARK   15  A    between atoms: C_37  and  O_39
REMARK   16  A    between atoms: C_40  and  O_42
REMARK   17  A    between atoms: C_43  and  O_45
REMARK                            x       y       z     vdW  Elec       q    Type
REMARK                         _______ _______ _______ _____ _____    ______ ____
ROOT
ATOM      1  P   UNL     1      -7.745   0.410  -7.400  0.00  0.00    +0.483 P 
ATOM      2  O   UNL     1      -9.114   1.090  -7.368  0.00  0.00    -0.227 OA
ENDROOT
BRANCH   1   3
ATOM      3  O   UNL     1      -6.617   1.595  -7.499  0.00  0.00    -0.302 OA
ATOM      4  H   UNL     1      -5.721   1.285  -7.728  0.00  0.00    +0.222 HD
ENDBRANCH   1   3
BRANCH   1   5
ATOM      5  O   UNL     1      -7.823   0.379  -9.128  0.00  0.00    -0.186 OA
BRANCH   5   6
ATOM      6  P   UNL     1      -6.806  -0.798  -9.556  0.00  0.00    +0.486 P 
ATOM      7  O   UNL     1      -6.638  -1.869  -8.527  0.00  0.00    -0.227 OA
BRANCH   6   8
ATOM      8  O   UNL     1      -5.426  -0.024  -9.798  0.00  0.00    -0.302 OA
ATOM      9  H   UNL     1      -4.719  -0.632 -10.094  0.00  0.00    +0.222 HD
ENDBRANCH   6   8
BRANCH   6  10
ATOM     10  O   UNL     1      -7.232  -1.294 -10.999  0.00  0.00    -0.254 OA
BRANCH  10  15
ATOM     11  C   UNL     1      -7.987   1.326 -13.350  0.00  0.00    +0.178 C 
ATOM     12  C   UNL     1      -8.838   0.546 -14.369  0.00  0.00    +0.177 C 
ATOM     13  C   UNL     1      -9.705  -0.500 -13.641  0.00  0.00    +0.179 C 
ATOM     14  C   UNL     1      -8.853  -1.363 -12.713  0.00  0.00    +0.202 C 
ATOM     15  C   UNL     1      -8.028  -0.454 -11.798  0.00  0.00    +0.293 C 
ATOM     16  O   UNL     1      -7.206   0.413 -12.560  0.00  0.00    -0.340 OA
BRANCH  12  17
ATOM     17  O   UNL     1      -9.644   1.450 -15.128  0.00  0.00    -0.386 OA
ATOM     18  H   UNL     1     -10.330   1.823 -14.548  0.00  0.00    +0.210 HD
ENDBRANCH  12  17
BRANCH  13  19
ATOM     19  O   UNL     1     -10.381  -1.354 -14.570  0.00  0.00    -0.386 OA
ATOM     20  H   UNL     1     -10.659  -2.142 -14.061  0.00  0.00    +0.210 HD
ENDBRANCH  13  19
BRANCH  14  21
ATOM     21  O   UNL     1      -9.721  -2.255 -11.989  0.00  0.00    -0.384 OA
ATOM     22  H   UNL     1     -10.053  -1.803 -11.193  0.00  0.00    +0.210 HD
ENDBRANCH  14  21
BRANCH  11  23
ATOM     23  C   UNL     1      -7.041   2.313 -14.047  0.00  0.00    +0.190 C 
BRANCH  23  24
ATOM     24  O   UNL     1      -6.475   3.197 -13.076  0.00  0.00    -0.392 OA
ATOM     25  H   UNL     1      -5.930   3.840 -13.562  0.00  0.00    +0.210 HD
ENDBRANCH  23  24
ENDBRANCH  11  23
ENDBRANCH  10  15
ENDBRANCH   6  10
ENDBRANCH   5   6
ENDBRANCH   1   5
BRANCH   1  26
ATOM     26  O   UNL     1      -7.667   0.441  -5.672  0.00  0.00    -0.284 OA
BRANCH  26  27
ATOM     27  C   UNL     1      -6.429  -0.112  -5.199  0.00  0.00    +0.206 C 
BRANCH  27  28
ATOM     28  C   UNL     1      -6.315  -0.079  -3.671  0.00  0.00    +0.178 C 
ATOM     29  C   UNL     1      -4.939  -0.569  -3.201  0.00  0.00    +0.178 C 
ATOM     30  C   UNL     1      -4.138   0.700  -2.892  0.00  0.00    +0.195 C 
ATOM     31  C   UNL     1      -5.109   1.846  -3.227  0.00  0.00    +0.255 C 
ATOM     32  O   UNL     1      -6.421   1.271  -3.192  0.00  0.00    -0.346 OA
BRANCH  31  33
ATOM     33  N   UNL     1      -5.024   2.991  -2.328  0.00  0.00    -0.271 N 
ATOM     34  C   UNL     1      -3.831   3.718  -2.334  0.00  0.00    +0.331 A 
ATOM     35  O   UNL     1      -2.833   3.373  -2.969  0.00  0.00    -0.246 OA
ATOM     36  N   UNL     1      -3.821   4.856  -1.571  0.00  0.00    -0.275 N 
ATOM     37  H   UNL     1      -2.979   5.411  -1.581  0.00  0.00    +0.173 HD
ATOM     38  C   UNL     1      -4.870   5.354  -0.855  0.00  0.00    +0.254 A 
ATOM     39  O   UNL     1      -4.819   6.411  -0.245  0.00  0.00    -0.268 OA
ATOM     40  C   UNL     1      -6.092   4.535  -0.864  0.00  0.00    +0.088 A 
ATOM     41  C   UNL     1      -6.112   3.415  -1.590  0.00  0.00    +0.098 A 
ENDBRANCH  31  33
BRANCH  30  42
ATOM     42  O   UNL     1      -2.953   0.753  -3.692  0.00  0.00    -0.385 OA
ATOM     43  H   UNL     1      -2.507   1.602  -3.469  0.00  0.00    +0.210 HD
ENDBRANCH  30  42
BRANCH  29  44
ATOM     44  O   UNL     1      -5.079  -1.359  -2.011  0.00  0.00    -0.386 OA
ATOM     45  H   UNL     1      -5.561  -0.833  -1.349  0.00  0.00    +0.210 HD
ENDBRANCH  29  44
ENDBRANCH  27  28
ENDBRANCH  26  27
ENDBRANCH   1  26
TORSDOF 17
