REMARK  Name = 
REMARK  14 active torsions:
REMARK  status: ('A' for Active; 'I' for Inactive)
REMARK    1  A    between atoms: N_1  and  C_2
REMARK    2  A    between atoms: C_2  and  C_3
REMARK    3  A    between atoms: C_3  and  C_4
REMARK    4  A    between atoms: C_4  and  C_5
REMARK    5  A    between atoms: C_5  and  C_6
REMARK    6  A    between atoms: C_6  and  N_7
REMARK    7  A    between atoms: C_6  and  C_41
REMARK    8  A    between atoms: C_8  and  C_10
REMARK    9  A    between atoms: C_10  and  C_11
REMARK   10  A    between atoms: C_10  and  N_21
REMARK   11  A    between atoms: C_11  and  C_12
REMARK   12  A    between atoms: C_16  and  O_17
REMARK   13  A    between atoms: C_27  and  N_30
REMARK   14  A    between atoms: N_46  and  C_49
REMARK                            x       y       z     vdW  Elec       q    Type
REMARK                         _______ _______ _______ _____ _____    ______ ____
ROOT
ATOM      1  C   UNL     1       7.244   2.731   0.224  0.00  0.00    +0.165 C 
ENDROOT
BRANCH   1   2
ATOM      2  N   UNL     1       6.863   2.759  -1.187  0.00  0.00    -0.288 N 
ATOM      3  H   UNL     1       7.276   2.045  -1.772  0.00  0.00    +0.151 HD
ATOM      4  C   UNL     1       5.619   3.182  -1.563  0.00  0.00    +0.303 C 
ATOM      5  N   UNL     1       5.424   3.357  -2.921  0.00  0.00    -0.286 N 
ATOM      6  C   UNL     1       6.358   2.994  -3.997  0.00  0.00    +0.111 C 
ATOM      7  C   UNL     1       6.415   4.072  -5.083  0.00  0.00    +0.041 C 
ATOM      8  C   UNL     1       5.008   4.396  -5.645  0.00  0.00    +0.081 C 
ATOM      9  C   UNL     1       4.214   4.907  -4.423  0.00  0.00    +0.041 C 
ATOM     10  C   UNL     1       4.102   3.805  -3.366  0.00  0.00    +0.111 C 
ATOM     11  O   UNL     1       4.766   3.438  -0.715  0.00  0.00    -0.253 OA
BRANCH   8  12
ATOM     12  N   UNL     1       4.328   3.252  -6.307  0.00  0.00    -0.278 N 
ATOM     13  C   UNL     1       5.042   2.252  -6.957  0.00  0.00    +0.307 C 
ATOM     14  O   UNL     1       6.220   2.317  -7.294  0.00  0.00    -0.252 OA
ATOM     15  N   UNL     1       4.382   1.055  -7.063  0.00  0.00    -0.269 N 
ATOM     16  H   UNL     1       4.961   0.269  -7.322  0.00  0.00    +0.156 HD
ATOM     17  C   UNL     1       3.047   0.868  -6.712  0.00  0.00    +0.039 A 
ATOM     18  C   UNL     1       2.252   1.994  -6.506  0.00  0.00    -0.009 A 
ATOM     19  C   UNL     1       0.889   1.833  -6.246  0.00  0.00    +0.007 A 
ATOM     20  C   UNL     1       0.351   0.550  -6.128  0.00  0.00    +0.000 A 
ATOM     21  C   UNL     1       1.169  -0.570  -6.288  0.00  0.00    +0.002 A 
ATOM     22  C   UNL     1       2.519  -0.412  -6.599  0.00  0.00    +0.023 A 
ATOM     23  C   UNL     1       2.906   3.335  -6.653  0.00  0.00    +0.146 C 
ENDBRANCH   8  12
ENDBRANCH   1   2
BRANCH   1  26
ATOM     24  N   UNL     1       5.683   1.073   1.253  0.00  0.00    -0.302 N 
ATOM     25  H   UNL     1       4.972   1.797   1.169  0.00  0.00    +0.150 HD
ATOM     26  C   UNL     1       6.956   1.321   0.782  0.00  0.00    +0.234 C 
ATOM     27  O   UNL     1       7.802   0.425   0.706  0.00  0.00    -0.274 OA
BRANCH  24  28
ATOM     28  C   UNL     1       5.282  -0.284   1.636  0.00  0.00    +0.159 C 
BRANCH  28  29
ATOM     29  C   UNL     1       5.023  -0.507   3.143  0.00  0.00    +0.236 C 
ATOM     30  N   UNL     1       5.754  -1.517   3.772  0.00  0.00    -0.297 N 
ATOM     31  C   UNL     1       5.026  -2.389   4.703  0.00  0.00    +0.126 C 
ATOM     32  C   UNL     1       5.936  -2.984   5.783  0.00  0.00    +0.124 C 
ATOM     33  N   UNL     1       7.072  -3.666   5.125  0.00  0.00    -0.327 N 
ATOM     34  C   UNL     1       7.901  -2.734   4.343  0.00  0.00    +0.124 C 
ATOM     35  C   UNL     1       7.021  -2.070   3.252  0.00  0.00    +0.126 C 
ATOM     36  O   UNL     1       4.129   0.110   3.729  0.00  0.00    -0.274 OA
BRANCH  33  37
ATOM     37  C   UNL     1       7.613  -4.742   5.816  0.00  0.00    +0.033 A 
ATOM     38  C   UNL     1       6.791  -5.840   6.105  0.00  0.00    +0.043 A 
ATOM     39  C   UNL     1       7.301  -6.926   6.798  0.00  0.00    +0.112 A 
ATOM     40  N   UNL     1       8.573  -7.001   7.227  0.00  0.00    -0.263 NA
ATOM     41  C   UNL     1       9.363  -5.948   6.930  0.00  0.00    +0.112 A 
ATOM     42  C   UNL     1       8.941  -4.822   6.230  0.00  0.00    +0.043 A 
ENDBRANCH  33  37
ENDBRANCH  28  29
BRANCH  28  43
ATOM     43  C   UNL     1       4.030  -0.741   0.865  0.00  0.00    +0.032 C 
BRANCH  43  44
ATOM     44  C   UNL     1       4.393  -0.917  -0.604  0.00  0.00    +0.003 C 
BRANCH  44  45
ATOM     45  C   UNL     1       3.259  -1.475  -1.448  0.00  0.00    +0.015 C 
BRANCH  45  46
ATOM     46  C   UNL     1       3.763  -1.625  -2.879  0.00  0.00    +0.077 C 
BRANCH  46  47
ATOM     47  N   UNL     1       2.721  -2.190  -3.718  0.00  0.00    -0.330 NA
ATOM     48  H   UNL     1       1.956  -1.517  -3.781  0.00  0.00    +0.118 HD
ATOM     49  H   UNL     1       3.088  -2.285  -4.663  0.00  0.00    +0.118 HD
ENDBRANCH  46  47
ENDBRANCH  45  46
ENDBRANCH  44  45
ENDBRANCH  43  44
ENDBRANCH  28  43
ENDBRANCH  24  28
ENDBRANCH   1  26
BRANCH   1  50
ATOM     50  C   UNL     1       8.752   3.005   0.389  0.00  0.00    +0.067 C 
BRANCH  50  51
ATOM     51  C   UNL     1       9.237   4.368  -0.059  0.00  0.00    -0.043 A 
ATOM     52  C   UNL     1       9.688   4.575  -1.372  0.00  0.00    +0.022 A 
ATOM     53  C   UNL     1      10.225   5.809  -1.752  0.00  0.00    +0.061 A 
ATOM     54 BR   UNL     1      10.803   6.041  -3.543  0.00  0.00    -0.046 Br
ATOM     55  C   UNL     1      10.324   6.852  -0.828  0.00  0.00    +0.145 A 
ATOM     56  C   UNL     1       9.836   6.667   0.467  0.00  0.00    +0.061 A 
ATOM     57 BR   UNL     1       9.874   8.068   1.746  0.00  0.00    -0.046 Br
ATOM     58  C   UNL     1       9.290   5.435   0.848  0.00  0.00    +0.022 A 
BRANCH  55  59
ATOM     59  O   UNL     1      10.887   8.053  -1.172  0.00  0.00    -0.505 OA
ATOM     60  H   UNL     1      11.085   8.034  -2.125  0.00  0.00    +0.292 HD
ENDBRANCH  55  59
ENDBRANCH  50  51
ENDBRANCH   1  50
TORSDOF 14
