REMARK  Name = 
REMARK  5 active torsions:
REMARK  status: ('A' for Active; 'I' for Inactive)
REMARK    1  A    between atoms: N_1  and  S_2
REMARK    2  A    between atoms: S_2  and  C_5
REMARK    3  A    between atoms: C_8  and  C_11
REMARK    4  A    between atoms: N_13  and  C_14
REMARK    5  A    between atoms: C_14  and  C_15
REMARK                            x       y       z     vdW  Elec       q    Type
REMARK                         _______ _______ _______ _____ _____    ______ ____
ROOT
ATOM      1  C   UNL     1       4.677   5.631   1.308  0.00  0.00    +0.244 C 
ATOM      2  N   UNL     1       5.854   5.833   2.003  0.00  0.00    -0.307 N 
ATOM      3  H   UNL     1       6.092   6.811   2.122  0.00  0.00    +0.149 HD
ATOM      4  O   UNL     1       3.957   6.586   1.030  0.00  0.00    -0.270 OA
ENDROOT
BRANCH   1   8
ATOM      5  C   UNL     1       3.407   1.586   0.780  0.00  0.00    +0.105 A 
ATOM      6  C   UNL     1       2.466   2.587   1.056  0.00  0.00    +0.029 A 
ATOM      7  C   UNL     1       2.883   3.917   1.167  0.00  0.00    +0.015 A 
ATOM      8  C   UNL     1       4.230   4.246   0.974  0.00  0.00    +0.037 A 
ATOM      9  C   UNL     1       5.119   3.256   0.535  0.00  0.00    +0.015 A 
ATOM     10  C   UNL     1       4.730   1.919   0.495  0.00  0.00    +0.029 A 
BRANCH   5  11
ATOM     11  S   UNL     1       2.917  -0.111   0.771  0.00  0.00    +0.056 S 
ATOM     12  O   UNL     1       1.515  -0.189   0.420  0.00  0.00    -0.153 OA
ATOM     13  O   UNL     1       3.929  -0.897   0.109  0.00  0.00    -0.153 OA
BRANCH  11  14
ATOM     14  N   UNL     1       3.015  -0.503   2.396  0.00  0.00    -0.204 NA
ATOM     15  H   UNL     1       2.081  -0.645   2.783  0.00  0.00    +0.144 HD
ATOM     16  H   UNL     1       3.634  -1.303   2.518  0.00  0.00    +0.144 HD
ENDBRANCH  11  14
ENDBRANCH   5  11
ENDBRANCH   1   8
BRANCH   2  17
ATOM     17  C   UNL     1       6.849   4.836   2.329  0.00  0.00    +0.142 C 
BRANCH  17  18
ATOM     18  C   UNL     1       7.823   5.196   3.404  0.00  0.00    +0.005 A 
ATOM     19  C   UNL     1       7.392   5.506   4.701  0.00  0.00    +0.011 A 
ATOM     20  C   UNL     1       8.331   5.658   5.724  0.00  0.00    +0.039 A 
ATOM     21  C   UNL     1       9.686   5.501   5.451  0.00  0.00    +0.126 A 
ATOM     22  F   UNL     1      10.577   5.618   6.445  0.00  0.00    -0.205 F 
ATOM     23  C   UNL     1      10.133   5.200   4.172  0.00  0.00    +0.077 A 
ATOM     24  C   UNL     1       9.194   5.047   3.163  0.00  0.00    +0.131 A 
ATOM     25  F   UNL     1       9.624   4.697   1.941  0.00  0.00    -0.205 F 
ENDBRANCH  17  18
ENDBRANCH   2  17
TORSDOF 5
