REMARK  Name = 
REMARK  12 active torsions:
REMARK  status: ('A' for Active; 'I' for Inactive)
REMARK    1  A    between atoms: C_1  and  O_2
REMARK    2  A    between atoms: O_2  and  C_3
REMARK    3  A    between atoms: C_3  and  C_5
REMARK    4  A    between atoms: C_5  and  C_6
REMARK    5  A    between atoms: C_9  and  C_11
REMARK    6  A    between atoms: C_11  and  O_12
REMARK    7  A    between atoms: O_12  and  C_13
REMARK    8  A    between atoms: C_16  and  C_19
REMARK    9  A    between atoms: C_22  and  C_25
REMARK   10  A    between atoms: N_27  and  C_28
REMARK   11  A    between atoms: C_28  and  O_30
REMARK   12  A    between atoms: O_30  and  C_31
REMARK                            x       y       z     vdW  Elec       q    Type
REMARK                         _______ _______ _______ _____ _____    ______ ____
ROOT
ATOM      1  C   UNL     1       2.478   6.674  -0.534  0.00  0.00    +0.121 A 
ATOM      2  C   UNL     1       2.297   7.881   0.141  0.00  0.00    +0.046 A 
ATOM      3  C   UNL     1       1.821   9.019  -0.539  0.00  0.00    +0.012 A 
ATOM      4  C   UNL     1       1.531   8.983  -1.915  0.00  0.00    -0.018 A 
ATOM      5  C   UNL     1       1.729   7.757  -2.566  0.00  0.00    +0.012 A 
ATOM      6  C   UNL     1       2.179   6.623  -1.892  0.00  0.00    +0.046 A 
ENDROOT
BRANCH   4   7
ATOM      7  C   UNL     1       1.085  10.163  -2.697  0.00  0.00    -0.018 A 
ATOM      8  C   UNL     1       1.526  11.463  -2.400  0.00  0.00    +0.009 A 
ATOM      9  C   UNL     1       1.216  12.545  -3.237  0.00  0.00    +0.016 A 
ATOM     10  C   UNL     1       0.466  12.347  -4.401  0.00  0.00    +0.064 A 
ATOM     11  C   UNL     1      -0.016  11.074  -4.695  0.00  0.00    +0.016 A 
ATOM     12  C   UNL     1       0.274  10.005  -3.842  0.00  0.00    +0.009 A 
BRANCH  10  13
ATOM     13  C   UNL     1       0.199  13.482  -5.348  0.00  0.00    +0.314 C 
ATOM     14  N   UNL     1       0.073  13.187  -6.605  0.00  0.00    +0.065 NA
ATOM     15  N   UNL     1       0.117  14.744  -4.805  0.00  0.00    -0.248 N 
ATOM     16  H   UNL     1      -0.314  15.426  -5.434  0.00  0.00    +0.288 HD
ATOM     17  H   UNL     1      -0.290  14.796  -3.877  0.00  0.00    +0.288 HD
BRANCH  14  18
ATOM     18  C   UNL     1      -0.177  14.178  -7.507  0.00  0.00    +0.541 C 
ATOM     19  O   UNL     1      -0.746  15.242  -7.275  0.00  0.00    -0.198 OA
BRANCH  18  20
ATOM     20  O   UNL     1       0.278  13.809  -8.735  0.00  0.00    -0.433 OA
ATOM     21  C   UNL     1       0.039  14.781  -9.752  0.00  0.00    +0.284 C 
ENDBRANCH  18  20
ENDBRANCH  14  18
ENDBRANCH  10  13
ENDBRANCH   4   7
BRANCH   1  22
ATOM     22  O   UNL     1       2.958   5.613   0.198  0.00  0.00    -0.490 OA
BRANCH  22  23
ATOM     23  C   UNL     1       3.060   4.390  -0.545  0.00  0.00    +0.251 C 
BRANCH  23  29
ATOM     24  C   UNL     1       4.026   0.914   0.537  0.00  0.00    +0.087 C 
ATOM     25  C   UNL     1       3.157   1.473   1.653  0.00  0.00    +0.217 C 
ATOM     26  O   UNL     1       2.798   0.878   2.654  0.00  0.00    -0.275 OA
ATOM     27  N   UNL     1       2.905   2.807   1.386  0.00  0.00    -0.309 N 
ATOM     28  H   UNL     1       2.487   3.402   2.094  0.00  0.00    +0.149 HD
ATOM     29  C   UNL     1       3.691   3.279   0.281  0.00  0.00    +0.111 C 
ATOM     30  C   UNL     1       3.854   2.000  -0.534  0.00  0.00    +0.039 C 
BRANCH  24  31
ATOM     31  C   UNL     1       5.455   0.758   1.058  0.00  0.00    +0.133 C 
BRANCH  31  32
ATOM     32  C   UNL     1       6.435   0.263   0.022  0.00  0.00    +0.308 C 
ATOM     33  O   UNL     1       6.181   0.053  -1.154  0.00  0.00    -0.251 OA
BRANCH  32  35
ATOM     34  C   UNL     1       8.732  -0.299  -0.241  0.00  0.00    +0.280 C 
ATOM     35  O   UNL     1       7.659   0.127   0.605  0.00  0.00    -0.468 OA
ENDBRANCH  32  35
ENDBRANCH  31  32
ENDBRANCH  24  31
ENDBRANCH  23  29
ENDBRANCH  22  23
ENDBRANCH   1  22
TORSDOF 10
