REMARK  Name = 
REMARK  10 active torsions:
REMARK  status: ('A' for Active; 'I' for Inactive)
REMARK    1  A    between atoms: N_1  and  C_2
REMARK    2  A    between atoms: C_2  and  C_3
REMARK    3  A    between atoms: C_3  and  C_4
REMARK    4  A    between atoms: C_4  and  C_5
REMARK    5  A    between atoms: C_5  and  C_6
REMARK    6  A    between atoms: C_6  and  C_7
REMARK    7  A    between atoms: C_7  and  CA_8
REMARK    8  A    between atoms: CA_8  and  N_10
REMARK    9  A    between atoms: CA_8  and  C_11
REMARK   10  A    between atoms: C_11  and  O_12
REMARK                            x       y       z     vdW  Elec       q    Type
REMARK                         _______ _______ _______ _____ _____    ______ ____
ROOT
ATOM      1  C   UNL     1       9.012   3.787   1.167  0.00  0.00    +0.030 C 
ENDROOT
BRANCH   1   2
ATOM      2  C   UNL     1       9.555   4.738   2.242  0.00  0.00    +0.002 C 
BRANCH   2   3
ATOM      3  C   UNL     1       9.911   4.002   3.536  0.00  0.00    +0.000 C 
BRANCH   3   4
ATOM      4  C   UNL     1      10.445   4.986   4.580  0.00  0.00    +0.001 C 
BRANCH   4   5
ATOM      5  C   UNL     1      10.815   4.287   5.889  0.00  0.00    +0.015 C 
BRANCH   5   6
ATOM      6  C   UNL     1      11.341   5.294   6.912  0.00  0.00    +0.077 C 
BRANCH   6   7
ATOM      7  N   UNL     1      11.690   4.623   8.158  0.00  0.00    -0.330 NA
ATOM      8  H   UNL     1      12.425   3.936   7.985  0.00  0.00    +0.118 HD
ATOM      9  H   UNL     1      12.081   5.303   8.808  0.00  0.00    +0.118 HD
ENDBRANCH   6   7
ENDBRANCH   5   6
ENDBRANCH   4   5
ENDBRANCH   3   4
ENDBRANCH   2   3
ENDBRANCH   1   2
BRANCH   1  10
ATOM     10  CA  UNL     1       8.659   4.477  -0.159  0.00  0.00    +0.161 C 
BRANCH  10  11
ATOM     11  N   UNL     1       9.821   5.228  -0.716  0.00  0.00    -0.318 NA
ATOM     12  H1  UNL     1      10.606   4.575  -0.794  0.00  0.00    +0.119 HD
ATOM     13  H2  UNL     1       9.599   5.473  -1.688  0.00  0.00    +0.119 HD
ENDBRANCH  10  11
BRANCH  10  14
ATOM     14  C   UNL     1       7.486   5.455   0.032  0.00  0.00    +0.322 C 
ATOM     15  OXT UNL     1       6.313   5.136   0.120  0.00  0.00    -0.249 OA
BRANCH  14  16
ATOM     16  O   UNL     1       7.930   6.737   0.119  0.00  0.00    -0.480 OA
ATOM     17  H   UNL     1       8.913   6.695   0.012  0.00  0.00    +0.295 HD
ENDBRANCH  14  16
ENDBRANCH  10  14
ENDBRANCH   1  10
TORSDOF 10
