REMARK  Name = 
REMARK  3 active torsions:
REMARK  status: ('A' for Active; 'I' for Inactive)
REMARK    1  A    between atoms: O_1  and  C_2
REMARK    2  A    between atoms: C_2  and  C_4
REMARK    3  A    between atoms: C_7  and  O_8
REMARK                            x       y       z     vdW  Elec       q    Type
REMARK                         _______ _______ _______ _____ _____    ______ ____
ROOT
ATOM      1  C   UNL     1       3.171  -0.718   0.996  0.00  0.00    +0.059 A 
ATOM      2  C   UNL     1       2.903  -2.091   1.080  0.00  0.00    +0.018 A 
ATOM      3  C   UNL     1       3.597  -2.876   2.003  0.00  0.00    +0.046 A 
ATOM      4  C   UNL     1       4.562  -2.294   2.820  0.00  0.00    +0.117 A 
ATOM      5  C   UNL     1       4.846  -0.935   2.738  0.00  0.00    +0.046 A 
ATOM      6  C   UNL     1       4.149  -0.145   1.820  0.00  0.00    +0.018 A 
ENDROOT
BRANCH   1   7
ATOM      7  C   UNL     1       2.479   0.157   0.019  0.00  0.00    +0.337 C 
ATOM      8  O   UNL     1       3.021   1.105  -0.521  0.00  0.00    -0.245 OA
BRANCH   7   9
ATOM      9  O   UNL     1       1.183  -0.167  -0.176  0.00  0.00    -0.477 OA
ATOM     10  H   UNL     1       0.827  -0.828   0.445  0.00  0.00    +0.295 HD
ENDBRANCH   7   9
ENDBRANCH   1   7
BRANCH   4  11
ATOM     11  O   UNL     1       5.226  -3.107   3.689  0.00  0.00    -0.507 OA
ATOM     12  H   UNL     1       5.928  -2.594   4.124  0.00  0.00    +0.292 HD
ENDBRANCH   4  11
TORSDOF 3
