REMARK  Name = 
REMARK  3 active torsions:
REMARK  status: ('A' for Active; 'I' for Inactive)
REMARK    1  A    between atoms: C_1  and  C_2
REMARK    2  A    between atoms: C_13  and  N_14
REMARK    3  A    between atoms: C_16  and  C_17
REMARK                            x       y       z     vdW  Elec       q    Type
REMARK                         _______ _______ _______ _____ _____    ______ ____
ROOT
ATOM      1  C   UNL     1       1.168  -0.850   0.071  0.00  0.00    +0.035 C 
ATOM      2  C   UNL     1       2.511  -0.205   0.178  0.00  0.00    -0.028 C 
ATOM      3  C   UNL     1       2.833   0.687   1.130  0.00  0.00    -0.042 C 
ATOM      4  C   UNL     1       3.859   1.767   1.041  0.00  0.00    +0.069 C 
ATOM      5  C   UNL     1       2.634   2.912   0.535  0.00  0.00    +0.061 C 
ATOM      6  C   UNL     1       1.073   2.671   0.898  0.00  0.00    -0.074 C 
ATOM      7  C   UNL     1       0.782   1.804   1.894  0.00  0.00    -0.020 C 
ATOM      8  C   UNL     1      -0.023   3.129  -0.015  0.00  0.00    +0.039 C 
ATOM      9  C   UNL     1       4.694   1.441   2.428  0.00  0.00    -0.004 A 
ATOM     10  C   UNL     1       6.154   1.161   2.379  0.00  0.00    +0.013 A 
ATOM     11  C   UNL     1       6.841   0.645   3.415  0.00  0.00    +0.070 A 
ATOM     12  C   UNL     1       6.171   0.375   4.700  0.00  0.00    +0.249 A 
ATOM     13  N   UNL     1       4.806   0.532   4.661  0.00  0.00    -0.326 N 
ATOM     14  H   UNL     1       4.328   0.221   5.501  0.00  0.00    +0.169 HD
ATOM     15  O   UNL     1       6.775  -0.011   5.681  0.00  0.00    -0.268 OA
ATOM     16  C   UNL     1       4.093   0.939   3.567  0.00  0.00    +0.025 A 
ATOM     17  C   UNL     1       2.572   0.681   3.679  0.00  0.00    +0.065 C 
ATOM     18  C   UNL     1       2.024   1.188   2.374  0.00  0.00    +0.045 C 
ENDROOT
BRANCH   4  19
ATOM     19  N   UNL     1       4.775   1.974  -0.088  0.00  0.00    -0.317 NA
ATOM     20  H   UNL     1       5.114   2.933   0.002  0.00  0.00    +0.119 HD
ATOM     21  H   UNL     1       5.592   1.381  -0.047  0.00  0.00    +0.119 HD
ENDBRANCH   4  19
TORSDOF 1
