REMARK  Name = 
REMARK  5 active torsions:
REMARK  status: ('A' for Active; 'I' for Inactive)
REMARK    1  A    between atoms: N_1  and  CA_2
REMARK    2  A    between atoms: CA_2  and  C_4
REMARK    3  A    between atoms: CA_2  and  CB_6
REMARK    4  A    between atoms: C_4  and  O_5
REMARK    5  A    between atoms: CB_6  and  CG_7
REMARK                            x       y       z     vdW  Elec       q    Type
REMARK                         _______ _______ _______ _____ _____    ______ ____
ROOT
ATOM      1  CA  PHE A   1       2.581   0.074  -0.118  0.00  0.00    +0.081 C 
ENDROOT
BRANCH   1   2
ATOM      2  N   PHE A   1       1.112   0.250  -0.150  0.00  0.00    -0.325 NA
ATOM      3  H1  PHE A   1       0.775   0.028  -1.086  0.00  0.00    +0.119 HD
ATOM      4  H2  PHE A   1       0.665  -0.398   0.496  0.00  0.00    +0.119 HD
ENDBRANCH   1   2
BRANCH   1   5
ATOM      5  CB  PHE A   1       3.141   0.713   1.169  0.00  0.00    +0.055 C 
BRANCH   5   6
ATOM      6  CG  PHE A   1       4.651   0.724   1.260  0.00  0.00    -0.046 A 
ATOM      7  CD2 PHE A   1       5.303   0.056   2.306  0.00  0.00    +0.004 A 
ATOM      8  CE2 PHE A   1       6.696   0.078   2.402  0.00  0.00    +0.000 A 
ATOM      9  CZ  PHE A   1       7.451   0.767   1.455  0.00  0.00    +0.000 A 
ATOM     10  CE1 PHE A   1       6.814   1.439   0.414  0.00  0.00    +0.000 A 
ATOM     11  CD1 PHE A   1       5.421   1.421   0.318  0.00  0.00    +0.004 A 
ENDBRANCH   5   6
ENDBRANCH   1   5
BRANCH   1  12
ATOM     12  C   PHE A   1       2.961  -1.417  -0.236  0.00  0.00    +0.174 C 
BRANCH  12  13
ATOM     13  O   PHE A   1       2.348  -2.004  -1.384  0.00  0.00    -0.393 OA
ATOM     14  H   PHE A   1       1.391  -2.015  -1.216  0.00  0.00    +0.209 HD
ENDBRANCH  12  13
ENDBRANCH   1  12
TORSDOF 5
