REMARK  Name = 
REMARK  23 active torsions:
REMARK  status: ('A' for Active; 'I' for Inactive)
REMARK    1  A    between atoms: C_1  and  C_2
REMARK    2  A    between atoms: C_2  and  C_3
REMARK    3  A    between atoms: C_2  and  C_4
REMARK    4  A    between atoms: C_2  and  O_5
REMARK    5  A    between atoms: O_5  and  C_6
REMARK    6  A    between atoms: N_8  and  C_9
REMARK    7  A    between atoms: C_9  and  C_11
REMARK    8  A    between atoms: C_9  and  C_18
REMARK    9  A    between atoms: C_11  and  C_12
REMARK   10  A    between atoms: C_18  and  C_20
REMARK   11  A    between atoms: C_20  and  C_21
REMARK   12  A    between atoms: C_21  and  C_23
REMARK   13  A    between atoms: C_21  and  C_30
REMARK   14  A    between atoms: C_23  and  C_24
REMARK   15  A    between atoms: N_32  and  C_33
REMARK   16  A    between atoms: C_33  and  C_35
REMARK   17  A    between atoms: C_33  and  C_40
REMARK   18  A    between atoms: C_35  and  C_36
REMARK   19  A    between atoms: C_36  and  C_37
REMARK   20  A    between atoms: N_42  and  C_43
REMARK   21  A    between atoms: C_43  and  C_45
REMARK   22  A    between atoms: C_43  and  C_52
REMARK   23  A    between atoms: C_45  and  C_46
REMARK                            x       y       z     vdW  Elec       q    Type
REMARK                         _______ _______ _______ _____ _____    ______ ____
ROOT
ATOM      1  C   UNL     1      10.156  -5.051   7.978  0.00  0.00    +0.217 C 
ATOM      2  N   UNL     1      10.029  -6.131   8.826  0.00  0.00    -0.304 N 
ATOM      3  H   UNL     1       9.456  -6.048   9.657  0.00  0.00    +0.149 HD
ATOM      4  O   UNL     1      10.795  -5.100   6.932  0.00  0.00    -0.275 OA
ENDROOT
BRANCH   2   5
ATOM      5  C   UNL     1      10.433  -7.529   8.471  0.00  0.00    +0.159 C 
BRANCH   5   6
ATOM      6  C   UNL     1      11.352  -8.175   9.543  0.00  0.00    +0.234 C 
ATOM      7  N   UNL     1      11.595  -7.424  10.668  0.00  0.00    -0.302 N 
ATOM      8  H   UNL     1      11.397  -6.432  10.605  0.00  0.00    +0.150 HD
ATOM      9  O   UNL     1      11.791  -9.317   9.429  0.00  0.00    -0.274 OA
BRANCH   7  10
ATOM     10  C   UNL     1      12.531  -7.868  11.722  0.00  0.00    +0.163 C 
BRANCH  10  11
ATOM     11  C   UNL     1      12.639  -6.667  12.675  0.00  0.00    +0.231 C 
ATOM     12  O   UNL     1      11.797  -6.379  13.522  0.00  0.00    -0.274 OA
ATOM     13  N   UNL     1      13.631  -5.772  12.380  0.00  0.00    -0.328 N 
ATOM     14  H   UNL     1      13.753  -5.000  13.024  0.00  0.00    +0.145 HD
ATOM     15  H   UNL     1      14.405  -6.002  11.769  0.00  0.00    +0.145 HD
ENDBRANCH  10  11
BRANCH  10  16
ATOM     16  C   UNL     1      12.049  -9.126  12.469  0.00  0.00    +0.067 C 
BRANCH  16  17
ATOM     17  C   UNL     1      12.977  -9.615  13.565  0.00  0.00    -0.045 A 
ATOM     18  C   UNL     1      14.001 -10.533  13.292  0.00  0.00    +0.004 A 
ATOM     19  C   UNL     1      14.800 -11.032  14.326  0.00  0.00    +0.000 A 
ATOM     20  C   UNL     1      14.596 -10.610  15.639  0.00  0.00    +0.000 A 
ATOM     21  C   UNL     1      13.597  -9.681  15.918  0.00  0.00    +0.000 A 
ATOM     22  C   UNL     1      12.793  -9.189  14.889  0.00  0.00    +0.004 A 
ENDBRANCH  16  17
ENDBRANCH  10  16
ENDBRANCH   7  10
ENDBRANCH   5   6
BRANCH   5  23
ATOM     23  C   UNL     1      11.054  -7.642   7.070  0.00  0.00    +0.041 C 
BRANCH  23  24
ATOM     24  C   UNL     1      11.459  -9.001   6.534  0.00  0.00    +0.098 C 
BRANCH  24  25
ATOM     25  C   UNL     1      11.944  -8.938   5.096  0.00  0.00    +0.211 C 
ATOM     26  O   UNL     1      11.880  -9.905   4.347  0.00  0.00    -0.276 OA
ATOM     27  N   UNL     1      12.554  -7.794   4.664  0.00  0.00    -0.329 N 
ATOM     28  H   UNL     1      12.837  -7.776   3.692  0.00  0.00    +0.145 HD
ATOM     29  H   UNL     1      12.405  -6.889   5.094  0.00  0.00    +0.145 HD
ENDBRANCH  24  25
ENDBRANCH  23  24
ENDBRANCH   5  23
ENDBRANCH   2   5
BRANCH   1  30
ATOM     30  C   UNL     1       9.541  -3.720   8.394  0.00  0.00    +0.086 C 
BRANCH  30  31
ATOM     31  C   UNL     1       8.056  -3.908   8.800  0.00  0.00    +0.048 C 
BRANCH  31  32
ATOM     32  C   UNL     1       7.356  -2.656   9.275  0.00  0.00    -0.047 A 
ATOM     33  C   UNL     1       7.847  -1.917  10.360  0.00  0.00    +0.003 A 
ATOM     34  C   UNL     1       7.234  -0.720  10.739  0.00  0.00    +0.000 A 
ATOM     35  C   UNL     1       6.104  -0.268  10.062  0.00  0.00    +0.000 A 
ATOM     36  C   UNL     1       5.562  -1.032   9.032  0.00  0.00    +0.000 A 
ATOM     37  C   UNL     1       6.180  -2.223   8.644  0.00  0.00    +0.003 A 
ENDBRANCH  31  32
ENDBRANCH  30  31
BRANCH  30  38
ATOM     38  C   UNL     1       9.689  -2.755   7.179  0.00  0.00    +0.089 C 
BRANCH  38  39
ATOM     39  C   UNL     1      11.139  -2.416   6.724  0.00  0.00    +0.155 C 
ATOM     40  O   UNL     1      11.437  -2.462   5.525  0.00  0.00    -0.295 OA
BRANCH  39  41
ATOM     41  C   UNL     1      12.130  -1.855   7.775  0.00  0.00    +0.147 C 
BRANCH  41  43
ATOM     42  C   UNL     1      14.542  -2.290   7.201  0.00  0.00    +0.401 C 
ATOM     43  N   UNL     1      13.441  -1.484   7.203  0.00  0.00    -0.271 N 
ATOM     44  H   UNL     1      13.516  -0.661   6.621  0.00  0.00    +0.153 HD
ATOM     45  O   UNL     1      14.589  -3.394   7.733  0.00  0.00    -0.226 OA
BRANCH  42  46
ATOM     46  O   UNL     1      15.575  -1.682   6.553  0.00  0.00    -0.445 OA
BRANCH  46  48
ATOM     47  C   UNL     1      16.726  -3.595   5.496  0.00  0.00    +0.055 C 
ATOM     48  C   UNL     1      16.871  -2.338   6.362  0.00  0.00    +0.107 C 
ATOM     49  C   UNL     1      17.765  -1.342   5.594  0.00  0.00    +0.055 C 
ATOM     50  C   UNL     1      17.572  -2.653   7.692  0.00  0.00    +0.055 C 
ENDBRANCH  46  48
ENDBRANCH  42  46
ENDBRANCH  41  43
BRANCH  41  51
ATOM     51  C   UNL     1      11.415  -0.627   8.360  0.00  0.00    +0.065 C 
BRANCH  51  52
ATOM     52  C   UNL     1      12.111   0.131   9.448  0.00  0.00    -0.045 A 
ATOM     53  C   UNL     1      12.480  -0.496  10.643  0.00  0.00    +0.004 A 
ATOM     54  C   UNL     1      12.997   0.258  11.693  0.00  0.00    +0.000 A 
ATOM     55  C   UNL     1      13.147   1.638  11.557  0.00  0.00    +0.000 A 
ATOM     56  C   UNL     1      12.788   2.266  10.367  0.00  0.00    +0.000 A 
ATOM     57  C   UNL     1      12.271   1.517   9.316  0.00  0.00    +0.004 A 
ENDBRANCH  51  52
ENDBRANCH  41  51
ENDBRANCH  39  41
ENDBRANCH  38  39
ENDBRANCH  30  38
ENDBRANCH   1  30
TORSDOF 20
