REMARK  Name = 
REMARK  7 active torsions:
REMARK  status: ('A' for Active; 'I' for Inactive)
REMARK    1  A    between atoms: C_2  and  C_3
REMARK    2  A    between atoms: C_3  and  C_4
REMARK    3  A    between atoms: C_4  and  N_5
REMARK    4  A    between atoms: N_5  and  N_6
REMARK    5  A    between atoms: C_7  and  C_9
REMARK    6  A    between atoms: N_15  and  C_16
REMARK    7  A    between atoms: C_16  and  C_17
REMARK                            x       y       z     vdW  Elec       q    Type
REMARK                         _______ _______ _______ _____ _____    ______ ____
ROOT
ATOM      1  C   UNL     1       2.114   0.653   2.399  0.00  0.00    +0.111 C 
ENDROOT
BRANCH   1   2
ATOM      2  N   UNL     1       2.838   0.969   3.642  0.00  0.00    -0.240 NA
ATOM      3  H   UNL     1       3.363   1.842   3.496  0.00  0.00    +0.144 HD
BRANCH   2   4
ATOM      4  N   UNL     1       1.930   1.212   4.695  0.00  0.00    -0.247 N 
ATOM      5  H   UNL     1       1.555   0.415   5.200  0.00  0.00    +0.169 HD
ATOM      6  C   UNL     1       1.520   2.513   4.957  0.00  0.00    +0.258 C 
ATOM      7  O   UNL     1       1.888   3.482   4.297  0.00  0.00    -0.269 OA
BRANCH   6   8
ATOM      8  C   UNL     1       0.559   2.689   6.076  0.00  0.00    +0.041 A 
ATOM      9  C   UNL     1      -0.337   3.756   6.015  0.00  0.00    +0.033 A 
ATOM     10  C   UNL     1      -1.235   3.911   7.053  0.00  0.00    +0.111 A 
ATOM     11  N   UNL     1      -1.287   3.091   8.125  0.00  0.00    -0.263 NA
ATOM     12  C   UNL     1      -0.393   2.081   8.171  0.00  0.00    +0.111 A 
ATOM     13  C   UNL     1       0.545   1.838   7.182  0.00  0.00    +0.033 A 
ENDBRANCH   6   8
ENDBRANCH   2   4
ENDBRANCH   1   2
BRANCH   1  14
ATOM     14  C   UNL     1       3.107   0.375   1.279  0.00  0.00    +0.112 C 
BRANCH  14  16
ATOM     15  O   UNL     1       2.009  -1.087  -0.275  0.00  0.00    -0.276 OA
ATOM     16  C   UNL     1       2.368   0.054   0.000  0.00  0.00    +0.215 C 
ATOM     17  N   UNL     1       2.118   1.147  -0.793  0.00  0.00    -0.311 N 
ATOM     18  H   UNL     1       2.363   2.072  -0.466  0.00  0.00    +0.149 HD
BRANCH  17  19
ATOM     19  C   UNL     1       1.410   1.051  -2.050  0.00  0.00    +0.139 C 
BRANCH  19  20
ATOM     20  C   UNL     1       0.158   1.886  -2.010  0.00  0.00    -0.030 A 
ATOM     21  C   UNL     1      -1.045   1.331  -1.552  0.00  0.00    +0.005 A 
ATOM     22  C   UNL     1      -2.197   2.113  -1.467  0.00  0.00    +0.000 A 
ATOM     23  C   UNL     1      -2.157   3.457  -1.831  0.00  0.00    +0.000 A 
ATOM     24  C   UNL     1      -0.966   4.021  -2.286  0.00  0.00    +0.000 A 
ATOM     25  C   UNL     1       0.188   3.240  -2.374  0.00  0.00    +0.005 A 
ENDBRANCH  19  20
ENDBRANCH  17  19
ENDBRANCH  14  16
ENDBRANCH   1  14
TORSDOF 7
