REMARK  Name = 
REMARK  4 active torsions:
REMARK  status: ('A' for Active; 'I' for Inactive)
REMARK    1  A    between atoms: C_6  and  C_8
REMARK    2  A    between atoms: C_15  and  N_16
REMARK    3  A    between atoms: N_16  and  C_17
REMARK    4  A    between atoms: C_17  and  C_18
REMARK                            x       y       z     vdW  Elec       q    Type
REMARK                         _______ _______ _______ _____ _____    ______ ____
ROOT
ATOM      1  C   UNL     1       5.691  -2.562  -0.344  0.00  0.00    +0.087 A 
ATOM      2  C   UNL     1       7.012  -2.581  -0.821  0.00  0.00    +0.127 A 
ATOM      3  C   UNL     1       7.675  -3.774  -1.091  0.00  0.00    +0.306 A 
ATOM      4  N   UNL     1       6.872  -4.976  -0.834  0.00  0.00    -0.018 N 
ATOM      5  N   UNL     1       7.154  -6.246  -0.975  0.00  0.00    -0.142 N 
ATOM      6  H   UNL     1       8.027  -6.638  -1.318  0.00  0.00    +0.238 HD
ATOM      7  C   UNL     1       6.014  -6.934  -0.558  0.00  0.00    +0.266 A 
ATOM      8  N   UNL     1       4.995  -6.103  -0.150  0.00  0.00    -0.151 NA
ATOM      9  C   UNL     1       5.572  -4.868  -0.339  0.00  0.00    +0.441 A 
ATOM     10  N   UNL     1       4.966  -3.674  -0.094  0.00  0.00    -0.165 NA
ENDROOT
BRANCH   1  14
ATOM     11 BR   UNL     1       1.052   0.103  -0.616  0.00  0.00    -0.050 Br
ATOM     12  C   UNL     1       2.908   0.026  -0.267  0.00  0.00    +0.019 A 
ATOM     13  C   UNL     1       3.583  -1.193  -0.378  0.00  0.00    +0.025 A 
ATOM     14  C   UNL     1       4.970  -1.280  -0.148  0.00  0.00    +0.002 A 
ATOM     15  C   UNL     1       5.634  -0.098   0.238  0.00  0.00    +0.010 A 
ATOM     16  C   UNL     1       4.956   1.121   0.345  0.00  0.00    +0.002 A 
ATOM     17  C   UNL     1       3.591   1.185   0.085  0.00  0.00    +0.015 A 
ENDBRANCH   1  14
BRANCH   3  18
ATOM     18  N   UNL     1       8.937  -3.889  -1.610  0.00  0.00    -0.285 N 
ATOM     19  H   UNL     1       9.302  -4.804  -1.827  0.00  0.00    +0.152 HD
BRANCH  18  20
ATOM     20  C   UNL     1       9.981  -2.911  -1.319  0.00  0.00    +0.142 C 
BRANCH  20  21
ATOM     21  C   UNL     1      10.492  -2.298  -2.595  0.00  0.00    -0.027 A 
ATOM     22  C   UNL     1      11.842  -2.401  -2.947  0.00  0.00    +0.025 A 
ATOM     23  C   UNL     1      12.278  -1.785  -4.111  0.00  0.00    +0.111 A 
ATOM     24  N   UNL     1      11.469  -1.084  -4.933  0.00  0.00    -0.263 NA
ATOM     25  C   UNL     1      10.175  -0.984  -4.578  0.00  0.00    +0.111 A 
ATOM     26  C   UNL     1       9.647  -1.564  -3.435  0.00  0.00    +0.025 A 
ENDBRANCH  20  21
ENDBRANCH  18  20
ENDBRANCH   3  18
TORSDOF 4
