REMARK  Name = 
REMARK  23 active torsions:
REMARK  status: ('A' for Active; 'I' for Inactive)
REMARK    1  A    between atoms: C_1  and  C_2
REMARK    2  A    between atoms: C_1  and  C_3
REMARK    3  A    between atoms: C_1  and  C_4
REMARK    4  A    between atoms: C_4  and  N_5
REMARK    5  A    between atoms: N_5  and  C_6
REMARK    6  A    between atoms: N_5  and  S_40
REMARK    7  A    between atoms: C_6  and  C_7
REMARK    8  A    between atoms: C_7  and  O_9
REMARK    9  A    between atoms: C_7  and  C_10
REMARK   10  A    between atoms: C_10  and  N_12
REMARK   11  A    between atoms: C_10  and  C_33
REMARK   12  A    between atoms: C_13  and  C_15
REMARK   13  A    between atoms: C_15  and  C_17
REMARK   14  A    between atoms: C_15  and  N_20
REMARK   15  A    between atoms: C_17  and  C_18
REMARK   16  A    between atoms: C_17  and  C_19
REMARK   17  A    between atoms: N_23  and  C_24
REMARK   18  A    between atoms: C_24  and  C_25
REMARK   19  A    between atoms: C_28  and  C_29
REMARK   20  A    between atoms: C_33  and  C_34
REMARK   21  A    between atoms: S_40  and  C_43
REMARK   22  A    between atoms: C_46  and  C_49
REMARK   23  A    between atoms: N_50  and  O_51
REMARK                            x       y       z     vdW  Elec       q    Type
REMARK                         _______ _______ _______ _____ _____    ______ ____
ROOT
ATOM      1  C   UNL     1       1.145   1.989   5.867  0.00  0.00    +0.107 C 
ENDROOT
BRANCH   1   2
ATOM      2  N   UNL     1       2.176   1.010   5.526  0.00  0.00    -0.308 N 
ATOM      3  H   UNL     1       2.179   0.568   4.616  0.00  0.00    +0.149 HD
ATOM      4  C   UNL     1       3.339   0.921   6.267  0.00  0.00    +0.234 C 
ATOM      5  O   UNL     1       3.489   1.511   7.334  0.00  0.00    -0.274 OA
BRANCH   4   6
ATOM      6  C   UNL     1       4.338  -0.124   5.717  0.00  0.00    +0.166 C 
BRANCH   6   7
ATOM      7  N   UNL     1       4.588   0.019   4.273  0.00  0.00    -0.272 N 
ATOM      8  C   UNL     1       4.771   1.224   3.588  0.00  0.00    +0.306 C 
ATOM      9  O   UNL     1       4.574   2.343   4.019  0.00  0.00    -0.252 OA
ATOM     10  N   UNL     1       5.182   0.908   2.296  0.00  0.00    -0.278 N 
ATOM     11  C   UNL     1       5.651  -0.455   2.242  0.00  0.00    +0.129 C 
ATOM     12  C   UNL     1       4.952  -1.104   3.430  0.00  0.00    +0.129 C 
BRANCH  10  13
ATOM     13  C   UNL     1       5.520   1.892   1.287  0.00  0.00    +0.165 C 
BRANCH  13  14
ATOM     14  C   UNL     1       4.560   1.800   0.139  0.00  0.00    +0.066 A 
ATOM     15  N   UNL     1       4.810   0.910  -0.905  0.00  0.00    -0.248 NA
ATOM     16  C   UNL     1       3.867   1.007  -1.822  0.00  0.00    +0.076 A 
ATOM     17  C   UNL     1       3.804   0.175  -3.057  0.00  0.00    +0.073 C 
ATOM     18  S   UNL     1       2.638   2.163  -1.497  0.00  0.00    -0.080 S 
ATOM     19  C   UNL     1       3.408   2.552  -0.020  0.00  0.00    +0.071 A 
ENDBRANCH  13  14
ENDBRANCH  10  13
ENDBRANCH   6   7
BRANCH   6  20
ATOM     20  C   UNL     1       5.610  -0.298   6.577  0.00  0.00    +0.012 C 
ATOM     21  C   UNL     1       5.246  -0.751   8.004  0.00  0.00    +0.009 C 
ATOM     22  C   UNL     1       6.512   0.937   6.609  0.00  0.00    +0.009 C 
ENDBRANCH   6  20
ENDBRANCH   4   6
ENDBRANCH   1   2
BRANCH   1  23
ATOM     23  C   UNL     1       1.127   3.092   4.790  0.00  0.00    +0.060 C 
BRANCH  23  24
ATOM     24  C   UNL     1       0.255   4.266   5.145  0.00  0.00    -0.046 A 
ATOM     25  C   UNL     1      -0.875   4.568   4.378  0.00  0.00    +0.004 A 
ATOM     26  C   UNL     1      -1.699   5.635   4.730  0.00  0.00    +0.000 A 
ATOM     27  C   UNL     1      -1.400   6.411   5.849  0.00  0.00    +0.000 A 
ATOM     28  C   UNL     1      -0.268   6.129   6.610  0.00  0.00    +0.000 A 
ATOM     29  C   UNL     1       0.561   5.066   6.255  0.00  0.00    +0.004 A 
ENDBRANCH  23  24
ENDBRANCH   1  23
BRANCH   1  30
ATOM     30  C   UNL     1      -0.224   1.315   6.190  0.00  0.00    +0.151 C 
BRANCH  30  31
ATOM     31  O   UNL     1      -0.023   0.340   7.233  0.00  0.00    -0.389 OA
ATOM     32  H   UNL     1       0.035   0.836   8.069  0.00  0.00    +0.210 HD
ENDBRANCH  30  31
BRANCH  30  33
ATOM     33  C   UNL     1      -0.875   0.600   4.993  0.00  0.00    +0.142 C 
BRANCH  33  34
ATOM     34  N   UNL     1      -2.199  -0.133   5.283  0.00  0.00    -0.174 NA
BRANCH  34  35
ATOM     35  S   UNL     1      -3.382   0.946   5.955  0.00  0.00    +0.061 S 
ATOM     36  O   UNL     1      -3.555   1.999   4.971  0.00  0.00    -0.153 OA
ATOM     37  O   UNL     1      -3.013   1.270   7.315  0.00  0.00    -0.153 OA
BRANCH  35  38
ATOM     38  C   UNL     1      -4.936   0.060   6.057  0.00  0.00    +0.106 A 
ATOM     39  C   UNL     1      -6.006   0.487   5.251  0.00  0.00    +0.029 A 
ATOM     40  C   UNL     1      -7.284  -0.044   5.446  0.00  0.00    +0.011 A 
ATOM     41  C   UNL     1      -7.497  -0.993   6.450  0.00  0.00    -0.004 A 
ATOM     42  C   UNL     1      -6.424  -1.435   7.235  0.00  0.00    +0.011 A 
ATOM     43  C   UNL     1      -5.137  -0.900   7.043  0.00  0.00    +0.029 A 
BRANCH  41  44
ATOM     44  C   UNL     1      -8.881  -1.457   6.687  0.00  0.00    +0.160 C 
ATOM     45  N   UNL     1      -9.188  -2.282   7.637  0.00  0.00    -0.095 NA
BRANCH  45  46
ATOM     46  O   UNL     1     -10.572  -2.497   7.618  0.00  0.00    -0.409 OA
ATOM     47  H   UNL     1     -10.705  -3.078   8.390  0.00  0.00    +0.328 HD
ENDBRANCH  45  46
ENDBRANCH  41  44
ENDBRANCH  35  38
ENDBRANCH  34  35
BRANCH  34  48
ATOM     48  C   UNL     1      -2.689  -0.866   4.063  0.00  0.00    +0.112 C 
BRANCH  48  49
ATOM     49  C   UNL     1      -1.685  -1.876   3.466  0.00  0.00    -0.001 C 
ATOM     50  C   UNL     1      -2.229  -2.428   2.145  0.00  0.00    +0.008 C 
ATOM     51  C   UNL     1      -1.375  -3.033   4.419  0.00  0.00    +0.008 C 
ENDBRANCH  48  49
ENDBRANCH  34  48
ENDBRANCH  33  34
ENDBRANCH  30  33
ENDBRANCH   1  30
TORSDOF 18
