REMARK  Name = 
REMARK  11 active torsions:
REMARK  status: ('A' for Active; 'I' for Inactive)
REMARK    1  A    between atoms: C_1  and  C_2
REMARK    2  A    between atoms: C_2  and  N_4
REMARK    3  A    between atoms: C_2  and  C_36
REMARK    4  A    between atoms: C_5  and  C_7
REMARK    5  A    between atoms: C_13  and  C_15
REMARK    6  A    between atoms: C_21  and  C_23
REMARK    7  A    between atoms: C_23  and  O_25
REMARK    8  A    between atoms: C_23  and  C_26
REMARK    9  A    between atoms: C_26  and  N_28
REMARK   10  A    between atoms: C_26  and  C_29
REMARK   11  A    between atoms: C_29  and  C_30
REMARK                            x       y       z     vdW  Elec       q    Type
REMARK                         _______ _______ _______ _____ _____    ______ ____
ROOT
ATOM      1  C   UNL     1       7.669  -1.588  -4.749  0.00  0.00    +0.162 C 
ATOM      2  N   UNL     1       7.992  -3.003  -4.458  0.00  0.00    -0.288 N 
ATOM      3  C   UNL     1       7.227  -3.793  -3.613  0.00  0.00    +0.246 C 
ATOM      4  O   UNL     1       6.370  -3.300  -2.874  0.00  0.00    -0.273 OA
ATOM      5  C   UNL     1       9.117  -3.459  -5.269  0.00  0.00    +0.109 C 
ATOM      6  C   UNL     1       9.505  -2.251  -6.108  0.00  0.00    +0.021 C 
ATOM      7  C   UNL     1       9.018  -1.088  -5.254  0.00  0.00    +0.033 C 
ENDROOT
BRANCH   1  10
ATOM      8  C   UNL     1       6.641   0.827  -6.617  0.00  0.00    +0.162 C 
ATOM      9  N   UNL     1       6.004  -0.480  -6.407  0.00  0.00    -0.288 N 
ATOM     10  C   UNL     1       6.470  -1.606  -5.760  0.00  0.00    +0.237 C 
ATOM     11  O   UNL     1       5.820  -2.646  -5.923  0.00  0.00    -0.274 OA
ATOM     12  C   UNL     1       4.795  -0.596  -7.218  0.00  0.00    +0.109 C 
ATOM     13  C   UNL     1       4.582   0.770  -7.846  0.00  0.00    +0.021 C 
ATOM     14  C   UNL     1       5.983   1.357  -7.891  0.00  0.00    +0.033 C 
BRANCH   8  17
ATOM     15  N   UNL     1       5.652   1.247  -4.423  0.00  0.00    -0.303 N 
ATOM     16  H   UNL     1       5.154   0.401  -4.643  0.00  0.00    +0.149 HD
ATOM     17  C   UNL     1       6.446   1.772  -5.416  0.00  0.00    +0.234 C 
ATOM     18  O   UNL     1       6.963   2.883  -5.362  0.00  0.00    -0.274 OA
BRANCH  15  20
ATOM     19  C   UNL     1       4.150   2.679  -3.120  0.00  0.00    +0.038 C 
ATOM     20  C   UNL     1       5.447   1.887  -3.127  0.00  0.00    +0.156 C 
BRANCH  20  21
ATOM     21  C   UNL     1       5.440   0.834  -2.005  0.00  0.00    +0.231 C 
ATOM     22  O   UNL     1       5.820   1.080  -0.865  0.00  0.00    -0.274 OA
ATOM     23  N   UNL     1       4.840  -0.369  -2.271  0.00  0.00    -0.328 N 
ATOM     24  H   UNL     1       4.886  -1.075  -1.548  0.00  0.00    +0.145 HD
ATOM     25  H   UNL     1       4.502  -0.678  -3.167  0.00  0.00    +0.145 HD
ENDBRANCH  20  21
ENDBRANCH  15  20
ENDBRANCH   8  17
ENDBRANCH   1  10
BRANCH   3  26
ATOM     26  C   UNL     1       7.557  -5.316  -3.628  0.00  0.00    +0.217 C 
BRANCH  26  27
ATOM     27  O   UNL     1       8.912  -5.523  -3.171  0.00  0.00    -0.381 OA
ATOM     28  H   UNL     1       9.128  -4.785  -2.577  0.00  0.00    +0.210 HD
ENDBRANCH  26  27
BRANCH  26  29
ATOM     29  C   UNL     1       6.606  -6.208  -2.779  0.00  0.00    +0.093 C 
BRANCH  29  30
ATOM     30  N   UNL     1       7.082  -7.616  -2.816  0.00  0.00    -0.324 NA
ATOM     31  H   UNL     1       8.069  -7.628  -2.552  0.00  0.00    +0.119 HD
ATOM     32  H   UNL     1       6.565  -8.187  -2.155  0.00  0.00    +0.119 HD
ENDBRANCH  29  30
BRANCH  29  33
ATOM     33  C   UNL     1       5.106  -6.150  -3.169  0.00  0.00    +0.056 C 
BRANCH  33  34
ATOM     34  C   UNL     1       4.771  -6.646  -4.557  0.00  0.00    -0.046 A 
ATOM     35  C   UNL     1       4.791  -5.767  -5.645  0.00  0.00    +0.004 A 
ATOM     36  C   UNL     1       4.569  -6.223  -6.942  0.00  0.00    +0.000 A 
ATOM     37  C   UNL     1       4.296  -7.568  -7.168  0.00  0.00    +0.000 A 
ATOM     38  C   UNL     1       4.232  -8.451  -6.091  0.00  0.00    +0.000 A 
ATOM     39  C   UNL     1       4.468  -7.992  -4.792  0.00  0.00    +0.004 A 
ENDBRANCH  33  34
ENDBRANCH  29  33
ENDBRANCH  26  29
ENDBRANCH   3  26
TORSDOF 10
