REMARK  Name = 
REMARK  8 active torsions:
REMARK  status: ('A' for Active; 'I' for Inactive)
REMARK    1  A    between atoms: O_1  and  O_2
REMARK    2  A    between atoms: O_2  and  C_3
REMARK    3  A    between atoms: C_3  and  C_4
REMARK    4  A    between atoms: C_4  and  C_5
REMARK    5  A    between atoms: C_14  and  C_16
REMARK    6  A    between atoms: C_16  and  C_17
REMARK    7  A    between atoms: C_24  and  C_29
REMARK    8  A    between atoms: C_32  and  O_33
REMARK                            x       y       z     vdW  Elec       q    Type
REMARK                         _______ _______ _______ _____ _____    ______ ____
ROOT
ATOM      1  C   UNL     1       2.964   1.059  -0.644  0.00  0.00    +0.381 C 
ATOM      2  C   UNL     1       4.317   1.690  -0.270  0.00  0.00    +0.391 C 
ATOM      3  O   UNL     1       5.407   1.131  -0.219  0.00  0.00    -0.239 OA
ATOM      4  N   UNL     1       4.056   3.019  -0.120  0.00  0.00    -0.123 N 
ATOM      5  C   UNL     1       2.728   3.231  -0.287  0.00  0.00    +0.320 C 
ATOM      6  C   UNL     1       2.237   4.672  -0.130  0.00  0.00    +0.192 C 
ATOM      7  N   UNL     1       3.329   5.612  -0.484  0.00  0.00    -0.327 N 
ATOM      8  H   UNL     1       3.086   6.560  -0.751  0.00  0.00    +0.147 HD
ATOM      9  C   UNL     1       4.667   5.290  -0.275  0.00  0.00    +0.073 C 
ATOM     10  C   UNL     1       5.001   4.005  -0.030  0.00  0.00    +0.223 C 
ATOM     11  N   UNL     1       1.984   2.195  -0.532  0.00  0.00    -0.033 NA
ENDROOT
BRANCH   9  12
ATOM     12  C   UNL     1       5.720   6.327  -0.443  0.00  0.00    -0.001 A 
ATOM     13  C   UNL     1       5.469   7.686  -0.199  0.00  0.00    +0.013 A 
ATOM     14  C   UNL     1       6.467   8.649  -0.407  0.00  0.00    +0.046 A 
ATOM     15  C   UNL     1       7.727   8.264  -0.845  0.00  0.00    +0.117 A 
ATOM     16  C   UNL     1       8.009   6.931  -1.094  0.00  0.00    +0.046 A 
ATOM     17  C   UNL     1       7.007   5.975  -0.904  0.00  0.00    +0.013 A 
BRANCH  15  18
ATOM     18  O   UNL     1       8.671   9.231  -1.024  0.00  0.00    -0.507 OA
ATOM     19  H   UNL     1       9.503   8.810  -1.294  0.00  0.00    +0.292 HD
ENDBRANCH  15  18
ENDBRANCH   9  12
BRANCH   1  20
ATOM     20  O   UNL     1       2.728  -0.098   0.161  0.00  0.00    -0.169 OA
BRANCH  20  21
ATOM     21  O   UNL     1       2.692   0.350   1.552  0.00  0.00    -0.245 OA
ATOM     22  H   UNL     1       2.786  -0.536   1.948  0.00  0.00    +0.253 HD
ENDBRANCH  20  21
ENDBRANCH   1  20
BRANCH   6  23
ATOM     23  C   UNL     1       0.917   4.958  -0.865  0.00  0.00    +0.069 C 
BRANCH  23  24
ATOM     24  C   UNL     1       0.876   4.946  -2.381  0.00  0.00    -0.045 A 
ATOM     25  C   UNL     1      -0.319   5.328  -3.017  0.00  0.00    +0.004 A 
ATOM     26  C   UNL     1      -0.381   5.460  -4.406  0.00  0.00    +0.000 A 
ATOM     27  C   UNL     1       0.745   5.194  -5.180  0.00  0.00    +0.000 A 
ATOM     28  C   UNL     1       1.914   4.751  -4.571  0.00  0.00    +0.000 A 
ATOM     29  C   UNL     1       1.975   4.621  -3.183  0.00  0.00    +0.004 A 
ENDBRANCH  23  24
ENDBRANCH   6  23
BRANCH   1  30
ATOM     30  C   UNL     1       3.094   0.649  -2.134  0.00  0.00    +0.138 C 
BRANCH  30  31
ATOM     31  C   UNL     1       1.894  -0.048  -2.737  0.00  0.00    -0.040 A 
ATOM     32  C   UNL     1       1.784  -1.444  -2.663  0.00  0.00    +0.005 A 
ATOM     33  C   UNL     1       0.691  -2.102  -3.228  0.00  0.00    +0.014 A 
ATOM     34  C   UNL     1      -0.301  -1.366  -3.874  0.00  0.00    +0.013 A 
ATOM     35  I   UNL     1      -1.941  -2.345  -4.695  0.00  0.00    -0.044 I 
ATOM     36  C   UNL     1      -0.203   0.021  -3.964  0.00  0.00    +0.014 A 
ATOM     37  C   UNL     1       0.891   0.678  -3.394  0.00  0.00    +0.005 A 
ENDBRANCH  30  31
ENDBRANCH   1  30
TORSDOF 8
