REMARK  Name = 
REMARK  13 active torsions:
REMARK  status: ('A' for Active; 'I' for Inactive)
REMARK    1  A    between atoms: C_2  and  C_3
REMARK    2  A    between atoms: C_3  and  O_4
REMARK    3  A    between atoms: C_6  and  S_8
REMARK    4  A    between atoms: S_8  and  C_9
REMARK    5  A    between atoms: C_9  and  C_10
REMARK    6  A    between atoms: C_10  and  C_11
REMARK    7  A    between atoms: C_11  and  C_12
REMARK    8  A    between atoms: C_12  and  C_13
REMARK    9  A    between atoms: C_13  and  C_14
REMARK   10  A    between atoms: C_14  and  C_15
REMARK   11  A    between atoms: C_16  and  O_18
REMARK   12  A    between atoms: C_19  and  O_21
REMARK   13  A    between atoms: C_22  and  O_24
REMARK                            x       y       z     vdW  Elec       q    Type
REMARK                         _______ _______ _______ _____ _____    ______ ____
ROOT
ATOM      1  C   UNL     1       3.186  -3.563  -2.713  0.00  0.00    +0.176 C 
ATOM      2  C   UNL     1       3.920  -3.740  -1.372  0.00  0.00    +0.176 C 
ATOM      3  C   UNL     1       3.109  -3.192  -0.189  0.00  0.00    +0.177 C 
ATOM      4  C   UNL     1       2.660  -1.749  -0.471  0.00  0.00    +0.184 C 
ATOM      5  C   UNL     1       1.958  -1.613  -1.841  0.00  0.00    +0.207 C 
ATOM      6  O   UNL     1       2.669  -2.234  -2.912  0.00  0.00    -0.355 OA
ENDROOT
BRANCH   2   7
ATOM      7  O   UNL     1       5.195  -3.075  -1.451  0.00  0.00    -0.386 OA
ATOM      8  H   UNL     1       5.037  -2.123  -1.263  0.00  0.00    +0.210 HD
ENDBRANCH   2   7
BRANCH   3   9
ATOM      9  O   UNL     1       2.031  -4.066   0.139  0.00  0.00    -0.386 OA
ATOM     10  H   UNL     1       1.205  -3.736  -0.262  0.00  0.00    +0.210 HD
ENDBRANCH   3   9
BRANCH   4  11
ATOM     11  O   UNL     1       3.838  -0.911  -0.458  0.00  0.00    -0.386 OA
ATOM     12  H   UNL     1       3.539   0.016  -0.511  0.00  0.00    +0.210 HD
ENDBRANCH   4  11
BRANCH   1  13
ATOM     13  C   UNL     1       2.134  -4.663  -2.962  0.00  0.00    +0.190 C 
BRANCH  13  14
ATOM     14  O   UNL     1       1.624  -4.601  -4.295  0.00  0.00    -0.392 OA
ATOM     15  H   UNL     1       2.374  -4.734  -4.900  0.00  0.00    +0.210 HD
ENDBRANCH  13  14
ENDBRANCH   1  13
BRANCH   5  16
ATOM     16  S   UNL     1       0.192  -2.062  -1.771  0.00  0.00    -0.127 S 
BRANCH  16  17
ATOM     17  C   UNL     1      -0.320  -1.466  -3.423  0.00  0.00    +0.072 C 
BRANCH  17  18
ATOM     18  C   UNL     1      -1.802  -1.772  -3.652  0.00  0.00    +0.011 C 
BRANCH  18  19
ATOM     19  C   UNL     1      -2.294  -1.237  -5.003  0.00  0.00    +0.001 C 
BRANCH  19  20
ATOM     20  C   UNL     1      -3.776  -1.560  -5.220  0.00  0.00    +0.000 C 
BRANCH  20  21
ATOM     21  C   UNL     1      -4.286  -1.025  -6.560  0.00  0.00    -0.000 C 
BRANCH  21  22
ATOM     22  C   UNL     1      -5.765  -1.352  -6.767  0.00  0.00    -0.003 C 
ATOM     23  C   UNL     1      -6.278  -0.818  -8.097  0.00  0.00    +0.004 C 
ENDBRANCH  21  22
ENDBRANCH  20  21
ENDBRANCH  19  20
ENDBRANCH  18  19
ENDBRANCH  17  18
ENDBRANCH  16  17
ENDBRANCH   5  16
TORSDOF 12
