REMARK  Name = 
REMARK  4 active torsions:
REMARK  status: ('A' for Active; 'I' for Inactive)
REMARK    1  A    between atoms: O_1  and  C_2
REMARK    2  A    between atoms: C_8  and  O_9
REMARK    3  A    between atoms: C_11  and  O_13
REMARK    4  A    between atoms: C_14  and  O_16
REMARK                            x       y       z     vdW  Elec       q    Type
REMARK                         _______ _______ _______ _____ _____    ______ ____
ROOT
ATOM      1  C   UNL     1      -0.000  -0.000  -0.000  0.00  0.00    +0.162 C 
ATOM      2  C   UNL     1      -0.000  -0.000   0.000  0.00  0.00    +0.177 C 
ATOM      3  C   UNL     1      -0.000  -0.000   0.000  0.00  0.00    +0.192 C 
ATOM      4  C   UNL     1      -0.000  -0.000   0.000  0.00  0.00    +0.146 C 
ATOM      5  N   UNL     1      -0.000  -0.000  -0.000  0.00  0.00    -0.282 NA
ATOM      6  H   UNL     1       0.000   0.000   0.000  0.00  0.00    +0.125 HD
ATOM      7  C   UNL     1      -0.000  -0.000   0.000  0.00  0.00    +0.055 C 
ATOM      8  C   UNL     1      -0.000  -0.000  -0.000  0.00  0.00    +0.025 C 
ATOM      9  C   UNL     1      -0.000  -0.000   0.000  0.00  0.00    +0.088 C 
ENDROOT
BRANCH   1  10
ATOM     10  O   UNL     1       0.000   0.000  -0.000  0.00  0.00    -0.388 OA
ATOM     11  H   UNL     1       0.000   0.000   0.000  0.00  0.00    +0.210 HD
ENDBRANCH   1  10
BRANCH   2  12
ATOM     12  O   UNL     1      -0.000  -0.000  -0.000  0.00  0.00    -0.386 OA
ATOM     13  H   UNL     1       0.000   0.000   0.000  0.00  0.00    +0.210 HD
ENDBRANCH   2  12
BRANCH   3  14
ATOM     14  O   UNL     1      -0.000  -0.000  -0.000  0.00  0.00    -0.385 OA
ATOM     15  H   UNL     1       0.000   0.000   0.000  0.00  0.00    +0.210 HD
ENDBRANCH   3  14
BRANCH   4  16
ATOM     16  O   UNL     1      -0.000  -0.000  -0.000  0.00  0.00    -0.372 OA
ATOM     17  H   UNL     1       0.000   0.000   0.000  0.00  0.00    +0.212 HD
ENDBRANCH   4  16
TORSDOF 4
