REMARK  Name = 
REMARK  5 active torsions:
REMARK  status: ('A' for Active; 'I' for Inactive)
REMARK    1  A    between atoms: N_1  and  CA_2
REMARK    2  A    between atoms: CA_2  and  C_4
REMARK    3  A    between atoms: CA_2  and  CB_6
REMARK    4  A    between atoms: C_4  and  O_5
REMARK    5  A    between atoms: CB_6  and  CG_7
REMARK                            x       y       z     vdW  Elec       q    Type
REMARK                         _______ _______ _______ _____ _____    ______ ____
ROOT
ATOM      1  CA  PHE A   1       2.389   1.051  -0.347  0.00  0.00    +0.077 C 
ENDROOT
BRANCH   1   2
ATOM      2  N   PHE A   1       0.916   0.984  -0.278  0.00  0.00    -0.325 NA
ATOM      3  H1  PHE A   1       0.521   1.393  -1.122  0.00  0.00    +0.119 HD
ATOM      4  H2  PHE A   1       0.606   0.016  -0.227  0.00  0.00    +0.119 HD
ENDBRANCH   1   2
BRANCH   1   5
ATOM      5  CB  PHE A   1       2.957   0.688   1.038  0.00  0.00    +0.024 C 
BRANCH   5   6
ATOM      6  CG  PHE A   1       4.494   0.816   1.179  0.00  0.00    -0.009 C 
ATOM      7  CD2 PHE A   1       4.963   0.347   2.570  0.00  0.00    +0.003 C 
ATOM      8  CE2 PHE A   1       4.607   1.328   3.687  0.00  0.00    +0.000 C 
ATOM      9  CZ  PHE A   1       5.102   2.738   3.382  0.00  0.00    +0.000 C 
ATOM     10  CE1 PHE A   1       4.640   3.225   2.011  0.00  0.00    +0.000 C 
ATOM     11  CD1 PHE A   1       5.021   2.236   0.911  0.00  0.00    +0.003 C 
ENDBRANCH   5   6
ENDBRANCH   1   5
BRANCH   1  12
ATOM     12  C   PHE A   1       2.935   0.141  -1.465  0.00  0.00    +0.174 C 
BRANCH  12  13
ATOM     13  O   PHE A   1       2.352   0.477  -2.723  0.00  0.00    -0.393 OA
ATOM     14  H   PHE A   1       1.410   0.249  -2.665  0.00  0.00    +0.209 HD
ENDBRANCH  12  13
ENDBRANCH   1  12
TORSDOF 5
