REMARK  Name = 
REMARK  8 active torsions:
REMARK  status: ('A' for Active; 'I' for Inactive)
REMARK    1  A    between atoms: C_1  and  O_2
REMARK    2  A    between atoms: O_2  and  C_3
REMARK    3  A    between atoms: C_4  and  O_5
REMARK    4  A    between atoms: O_5  and  C_6
REMARK    5  A    between atoms: C_13  and  C_14
REMARK    6  A    between atoms: C_14  and  C_15
REMARK    7  A    between atoms: C_15  and  C_16
REMARK    8  A    between atoms: C_15  and  C_17
REMARK                            x       y       z     vdW  Elec       q    Type
REMARK                         _______ _______ _______ _____ _____    ______ ____
ROOT
ATOM      1  C   UNL     1       3.018  -1.314   0.542  0.00  0.00    +0.162 A 
ATOM      2  C   UNL     1       4.113  -1.166   1.423  0.00  0.00    +0.053 A 
ATOM      3  C   UNL     1       4.693  -2.267   2.076  0.00  0.00    -0.038 A 
ATOM      4  C   UNL     1       4.199  -3.543   1.820  0.00  0.00    -0.023 A 
ATOM      5  C   UNL     1       4.673  -4.771   2.577  0.00  0.00    +0.094 C 
ATOM      6  N   UNL     1       5.896  -4.587   3.387  0.00  0.00    -0.294 NA
ATOM      7  C   UNL     1       6.004  -3.265   4.010  0.00  0.00    +0.089 C 
ATOM      8  C   UNL     1       6.223  -5.733   4.272  0.00  0.00    +0.096 C 
ATOM      9  C   UNL     1       5.056  -6.434   5.002  0.00  0.00    +0.070 C 
ATOM     10  C   UNL     1       3.940  -6.571   3.992  0.00  0.00    +0.139 C 
ATOM     11  O   UNL     1       3.434  -7.639   3.653  0.00  0.00    -0.297 OA
ATOM     12  C   UNL     1       3.491  -5.283   3.401  0.00  0.00    +0.098 C 
ATOM     13  C   UNL     1       3.171  -3.695   0.872  0.00  0.00    +0.054 A 
ATOM     14  C   UNL     1       5.888  -2.119   2.980  0.00  0.00    +0.051 C 
ATOM     15  C   UNL     1       2.554  -2.603   0.251  0.00  0.00    +0.162 A 
ENDROOT
BRANCH   1  17
ATOM     16  C   UNL     1       1.262  -0.068  -0.531  0.00  0.00    +0.277 C 
ATOM     17  O   UNL     1       2.552  -0.118   0.064  0.00  0.00    -0.491 OA
ENDBRANCH   1  17
BRANCH  15  18
ATOM     18  O   UNL     1       1.552  -2.790  -0.669  0.00  0.00    -0.491 OA
ATOM     19  C   UNL     1       0.706  -3.920  -0.439  0.00  0.00    +0.277 C 
ENDBRANCH  15  18
BRANCH   9  20
ATOM     20  C   UNL     1       5.372  -7.833   5.570  0.00  0.00    +0.015 C 
BRANCH  20  21
ATOM     21  C   UNL     1       6.373  -7.930   6.731  0.00  0.00    -0.016 C 
ATOM     22  C   UNL     1       6.541  -9.406   7.122  0.00  0.00    +0.007 C 
ATOM     23  C   UNL     1       5.932  -7.141   7.962  0.00  0.00    +0.007 C 
ENDBRANCH  20  21
ENDBRANCH   9  20
TORSDOF 4
