REMARK  Name = 
REMARK  40 active torsions:
REMARK  status: ('A' for Active; 'I' for Inactive)
REMARK    1  A    between atoms: C_1  and  C_2
REMARK    2  A    between atoms: C_2  and  C_3
REMARK    3  A    between atoms: C_3  and  C_4
REMARK    4  A    between atoms: C_4  and  C_5
REMARK    5  A    between atoms: C_5  and  C_6
REMARK    6  A    between atoms: C_6  and  C_7
REMARK    7  A    between atoms: C_7  and  C_8
REMARK    8  A    between atoms: C_8  and  C_9
REMARK    9  A    between atoms: C_10  and  C_11
REMARK   10  A    between atoms: C_11  and  C_12
REMARK   11  A    between atoms: C_12  and  C_13
REMARK   12  A    between atoms: C_13  and  C_14
REMARK   13  A    between atoms: C_14  and  C_15
REMARK   14  A    between atoms: C_15  and  C_16
REMARK   15  A    between atoms: C_16  and  C_17
REMARK   16  A    between atoms: C_17  and  C_18
REMARK   17  A    between atoms: C_18  and  O_20
REMARK   18  A    between atoms: O_20  and  C_21
REMARK   19  A    between atoms: C_21  and  C_22
REMARK   20  A    between atoms: C_22  and  C_24
REMARK   21  A    between atoms: C_22  and  O_30
REMARK   22  A    between atoms: C_24  and  O_25
REMARK   23  A    between atoms: O_25  and  P_26
REMARK   24  A    between atoms: P_26  and  O_27
REMARK   25  A    between atoms: P_26  and  O_28
REMARK   26  A    between atoms: O_30  and  C_31
REMARK   27  A    between atoms: C_31  and  C_33
REMARK   28  A    between atoms: C_33  and  C_34
REMARK   29  A    between atoms: C_34  and  C_35
REMARK   30  A    between atoms: C_35  and  C_36
REMARK   31  A    between atoms: C_36  and  C_37
REMARK   32  A    between atoms: C_37  and  C_38
REMARK   33  A    between atoms: C_38  and  C_39
REMARK   34  A    between atoms: C_39  and  C_40
REMARK   35  A    between atoms: C_41  and  C_42
REMARK   36  A    between atoms: C_42  and  C_43
REMARK   37  A    between atoms: C_43  and  C_44
REMARK   38  A    between atoms: C_44  and  C_45
REMARK   39  A    between atoms: C_45  and  C_46
REMARK   40  A    between atoms: C_46  and  C_47
REMARK                            x       y       z     vdW  Elec       q    Type
REMARK                         _______ _______ _______ _____ _____    ______ ____
ROOT
ATOM      1  C   UNL     1      23.425   1.463  -1.464  0.00  0.00    +0.240 C 
ENDROOT
BRANCH   1   2
ATOM      2  O   UNL     1      24.742   1.882  -1.858  0.00  0.00    -0.456 OA
BRANCH   2   3
ATOM      3  C   UNL     1      25.583   2.236  -0.855  0.00  0.00    +0.308 C 
ATOM      4  O   UNL     1      25.472   1.898   0.317  0.00  0.00    -0.251 OA
BRANCH   3   5
ATOM      5  C   UNL     1      26.641   3.169  -1.383  0.00  0.00    +0.120 C 
BRANCH   5   6
ATOM      6  C   UNL     1      25.976   4.361  -2.063  0.00  0.00    +0.011 C 
BRANCH   6   7
ATOM      7  C   UNL     1      26.987   5.357  -2.626  0.00  0.00    +0.001 C 
BRANCH   7   8
ATOM      8  C   UNL     1      26.239   6.495  -3.300  0.00  0.00    +0.000 C 
BRANCH   8   9
ATOM      9  C   UNL     1      27.182   7.538  -3.896  0.00  0.00    +0.000 C 
BRANCH   9  10
ATOM     10  C   UNL     1      26.418   8.707  -4.525  0.00  0.00    +0.004 C 
BRANCH  10  11
ATOM     11  C   UNL     1      25.464   9.435  -3.573  0.00  0.00    +0.027 C 
BRANCH  11  12
ATOM     12  C   UNL     1      26.173  10.052  -2.400  0.00  0.00    -0.031 C 
ATOM     13  C   UNL     1      26.165  11.359  -2.100  0.00  0.00    -0.031 C 
BRANCH  13  14
ATOM     14  C   UNL     1      25.420  12.375  -2.913  0.00  0.00    +0.027 C 
BRANCH  14  15
ATOM     15  C   UNL     1      25.559  13.789  -2.368  0.00  0.00    +0.004 C 
BRANCH  15  16
ATOM     16  C   UNL     1      24.742  14.747  -3.230  0.00  0.00    +0.000 C 
BRANCH  16  17
ATOM     17  C   UNL     1      24.855  16.178  -2.715  0.00  0.00    -0.000 C 
BRANCH  17  18
ATOM     18  C   UNL     1      24.035  17.129  -3.579  0.00  0.00    -0.003 C 
ATOM     19  C   UNL     1      24.154  18.551  -3.065  0.00  0.00    +0.004 C 
ENDBRANCH  17  18
ENDBRANCH  16  17
ENDBRANCH  15  16
ENDBRANCH  14  15
ENDBRANCH  13  14
ENDBRANCH  11  12
ENDBRANCH  10  11
ENDBRANCH   9  10
ENDBRANCH   8   9
ENDBRANCH   7   8
ENDBRANCH   6   7
ENDBRANCH   5   6
ENDBRANCH   3   5
ENDBRANCH   2   3
ENDBRANCH   1   2
BRANCH   1  20
ATOM     20  C   UNL     1      23.267  -0.041  -1.686  0.00  0.00    +0.220 C 
BRANCH  20  21
ATOM     21  O   UNL     1      23.376  -0.385  -3.069  0.00  0.00    -0.283 OA
BRANCH  21  22
ATOM     22  P   UNL     1      23.112  -2.077  -3.316  0.00  0.00    +0.472 P 
ATOM     23  O   UNL     1      22.875  -3.591  -3.536  0.00  0.00    -0.228 OA
BRANCH  22  24
ATOM     24  O   UNL     1      22.829  -1.648  -4.872  0.00  0.00    -0.303 OA
ATOM     25  H   UNL     1      21.951  -1.239  -4.967  0.00  0.00    +0.222 HD
ENDBRANCH  22  24
BRANCH  22  26
ATOM     26  O   UNL     1      24.738  -2.120  -3.489  0.00  0.00    -0.303 OA
ATOM     27  H   UNL     1      24.927  -1.708  -4.354  0.00  0.00    +0.222 HD
ENDBRANCH  22  26
ENDBRANCH  21  22
ENDBRANCH  20  21
ENDBRANCH   1  20
BRANCH   1  28
ATOM     28  C   UNL     1      22.449   2.300  -2.299  0.00  0.00    +0.279 C 
BRANCH  28  29
ATOM     29  O   UNL     1      21.083   2.019  -1.970  0.00  0.00    -0.461 OA
BRANCH  29  30
ATOM     30  C   UNL     1      20.611   2.669  -0.869  0.00  0.00    +0.307 C 
ATOM     31  O   UNL     1      21.253   3.448  -0.184  0.00  0.00    -0.251 OA
BRANCH  30  32
ATOM     32  C   UNL     1      19.184   2.267  -0.607  0.00  0.00    +0.120 C 
BRANCH  32  33
ATOM     33  C   UNL     1      19.053   0.766  -0.346  0.00  0.00    +0.011 C 
BRANCH  33  34
ATOM     34  C   UNL     1      19.881   0.254   0.842  0.00  0.00    +0.001 C 
BRANCH  34  35
ATOM     35  C   UNL     1      19.460   0.924   2.142  0.00  0.00    +0.000 C 
BRANCH  35  36
ATOM     36  C   UNL     1      20.251   0.427   3.348  0.00  0.00    +0.000 C 
BRANCH  36  37
ATOM     37  C   UNL     1      19.771   1.096   4.640  0.00  0.00    +0.004 C 
BRANCH  37  38
ATOM     38  C   UNL     1      18.281   0.905   4.938  0.00  0.00    +0.027 C 
BRANCH  38  40
ATOM     39  C   UNL     1      17.377  -1.067   6.223  0.00  0.00    -0.031 C 
ATOM     40  C   UNL     1      17.909  -0.544   5.109  0.00  0.00    -0.031 C 
BRANCH  39  41
ATOM     41  C   UNL     1      17.060  -0.239   7.427  0.00  0.00    +0.027 C 
BRANCH  41  42
ATOM     42  C   UNL     1      16.447  -1.047   8.559  0.00  0.00    +0.004 C 
BRANCH  42  43
ATOM     43  C   UNL     1      16.127  -0.110   9.719  0.00  0.00    +0.000 C 
BRANCH  43  44
ATOM     44  C   UNL     1      15.513  -0.879  10.879  0.00  0.00    +0.000 C 
BRANCH  44  45
ATOM     45  C   UNL     1      15.196   0.059  12.038  0.00  0.00    -0.000 C 
BRANCH  45  46
ATOM     46  C   UNL     1      14.580  -0.722  13.194  0.00  0.00    -0.000 C 
BRANCH  46  48
ATOM     47  C   UNL     1      13.645  -0.593  15.517  0.00  0.00    +0.004 C 
ATOM     48  C   UNL     1      14.256   0.193  14.368  0.00  0.00    -0.003 C 
ENDBRANCH  46  48
ENDBRANCH  45  46
ENDBRANCH  44  45
ENDBRANCH  43  44
ENDBRANCH  42  43
ENDBRANCH  41  42
ENDBRANCH  39  41
ENDBRANCH  38  40
ENDBRANCH  37  38
ENDBRANCH  36  37
ENDBRANCH  35  36
ENDBRANCH  34  35
ENDBRANCH  33  34
ENDBRANCH  32  33
ENDBRANCH  30  32
ENDBRANCH  29  30
ENDBRANCH  28  29
ENDBRANCH   1  28
TORSDOF 38
