REMARK  Name = 
REMARK  10 active torsions:
REMARK  status: ('A' for Active; 'I' for Inactive)
REMARK    1  A    between atoms: C_1  and  O_2
REMARK    2  A    between atoms: O_2  and  C_3
REMARK    3  A    between atoms: C_4  and  O_5
REMARK    4  A    between atoms: O_5  and  C_6
REMARK    5  A    between atoms: C_6  and  C_7
REMARK    6  A    between atoms: C_7  and  C_8
REMARK    7  A    between atoms: C_8  and  N_9
REMARK    8  A    between atoms: C_12  and  C_15
REMARK    9  A    between atoms: C_27  and  C_29
REMARK   10  A    between atoms: C_29  and  C_30
REMARK                            x       y       z     vdW  Elec       q    Type
REMARK                         _______ _______ _______ _____ _____    ______ ____
ROOT
ATOM      1  N   UNL     1       7.209   4.547   2.983  0.00  0.00    -0.302 NA
ATOM      2  C   UNL     1       8.305   4.655   3.948  0.00  0.00    +0.085 C 
ATOM      3  C   UNL     1       7.836   5.120   5.321  0.00  0.00    +0.025 C 
ATOM      4  C   UNL     1       7.204   6.518   5.220  0.00  0.00    +0.044 C 
ATOM      5  C   UNL     1       6.035   6.420   4.216  0.00  0.00    +0.025 C 
ATOM      6  C   UNL     1       6.438   5.788   2.875  0.00  0.00    +0.085 C 
ENDROOT
BRANCH   4   7
ATOM      7  C   UNL     1       8.246   7.570   4.894  0.00  0.00    +0.094 A 
ATOM      8  C   UNL     1       9.507   7.779   5.530  0.00  0.00    +0.045 A 
ATOM      9  C   UNL     1      10.207   7.276   6.644  0.00  0.00    +0.016 A 
ATOM     10  C   UNL     1      11.544   7.659   6.827  0.00  0.00    +0.039 A 
ATOM     11  C   UNL     1      12.154   8.540   5.928  0.00  0.00    +0.127 A 
ATOM     12  C   UNL     1      11.472   9.092   4.850  0.00  0.00    +0.088 A 
ATOM     13  F   UNL     1      13.447   8.843   6.106  0.00  0.00    -0.205 F 
ATOM     14  C   UNL     1      10.151   8.681   4.698  0.00  0.00    +0.170 A 
ATOM     15  O   UNL     1       9.297   9.072   3.716  0.00  0.00    -0.354 OA
ATOM     16  N   UNL     1       8.100   8.394   3.845  0.00  0.00    -0.082 NA
ENDBRANCH   4   7
BRANCH   1  17
ATOM     17  C   UNL     1       6.437   3.318   3.172  0.00  0.00    +0.087 C 
BRANCH  17  18
ATOM     18  C   UNL     1       5.624   2.875   1.949  0.00  0.00    +0.056 C 
BRANCH  18  19
ATOM     19  C   UNL     1       6.393   2.803   0.624  0.00  0.00    +0.230 C 
BRANCH  19  20
ATOM     20  O   UNL     1       7.496   1.894   0.661  0.00  0.00    -0.488 OA
BRANCH  20  26
ATOM     21  C   UNL     1       9.534   1.524   1.812  0.00  0.00    +0.162 A 
ATOM     22  C   UNL     1      10.767   1.984   2.289  0.00  0.00    +0.060 A 
ATOM     23  C   UNL     1      11.193   3.290   2.015  0.00  0.00    +0.021 A 
ATOM     24  C   UNL     1      10.391   4.134   1.247  0.00  0.00    +0.015 A 
ATOM     25  C   UNL     1       9.174   3.668   0.741  0.00  0.00    +0.050 A 
ATOM     26  C   UNL     1       8.721   2.379   1.045  0.00  0.00    +0.162 A 
BRANCH  23  27
ATOM     27  C   UNL     1      12.487   3.742   2.592  0.00  0.00    +0.160 C 
ATOM     28  O   UNL     1      12.892   3.229   3.635  0.00  0.00    -0.292 OA
ATOM     29  C   UNL     1      13.304   4.782   1.869  0.00  0.00    +0.091 C 
ENDBRANCH  23  27
BRANCH  21  31
ATOM     30  C   UNL     1       9.483  -0.368   3.245  0.00  0.00    +0.277 C 
ATOM     31  O   UNL     1       9.059   0.256   2.038  0.00  0.00    -0.491 OA
ENDBRANCH  21  31
ENDBRANCH  20  26
ENDBRANCH  19  20
ENDBRANCH  18  19
ENDBRANCH  17  18
ENDBRANCH   1  17
TORSDOF 8
