REMARK  Name = 
REMARK  12 active torsions:
REMARK  status: ('A' for Active; 'I' for Inactive)
REMARK    1  A    between atoms: C_1  and  C_2
REMARK    2  A    between atoms: N_4  and  C_5
REMARK    3  A    between atoms: C_7  and  O_9
REMARK    4  A    between atoms: C_11  and  O_12
REMARK    5  A    between atoms: C_11  and  C_24
REMARK    6  A    between atoms: C_14  and  C_16
REMARK    7  A    between atoms: C_16  and  O_18
REMARK    8  A    between atoms: C_16  and  C_19
REMARK    9  A    between atoms: C_19  and  O_21
REMARK   10  A    between atoms: C_19  and  C_22
REMARK   11  A    between atoms: C_22  and  O_23
REMARK   12  A    between atoms: C_24  and  O_25
REMARK                            x       y       z     vdW  Elec       q    Type
REMARK                         _______ _______ _______ _____ _____    ______ ____
ROOT
ATOM      1  C   UNL     1       4.701  -0.389   0.903  0.00  0.00    +0.133 C 
ATOM      2  C   UNL     1       5.407   0.809   0.231  0.00  0.00    +0.176 C 
ATOM      3  O   UNL     1       5.195   0.785  -1.200  0.00  0.00    -0.332 OA
ATOM      4  C   UNL     1       5.516  -0.431  -1.880  0.00  0.00    +0.270 C 
ATOM      5  C   UNL     1       4.918  -1.687  -1.235  0.00  0.00    +0.110 C 
ATOM      6  C   UNL     1       5.188  -1.707   0.263  0.00  0.00    +0.143 C 
ENDROOT
BRANCH   1   9
ATOM      7  C   UNL     1       0.927  -0.689   1.340  0.00  0.00    +0.109 C 
ATOM      8  C   UNL     1       2.376  -1.049   1.514  0.00  0.00    +0.210 C 
ATOM      9  N   UNL     1       3.239  -0.245   0.803  0.00  0.00    -0.308 N 
ATOM     10  H   UNL     1       2.858   0.536   0.272  0.00  0.00    +0.149 HD
ATOM     11  O   UNL     1       2.750  -1.972   2.226  0.00  0.00    -0.276 OA
ENDBRANCH   1   9
BRANCH   4  12
ATOM     12  O   UNL     1       6.939  -0.567  -2.029  0.00  0.00    -0.356 OA
ATOM     13  H   UNL     1       7.213  -1.261  -1.390  0.00  0.00    +0.213 HD
ENDBRANCH   4  12
BRANCH   4  14
ATOM     14  C   UNL     1       4.953  -0.324  -3.327  0.00  0.00    +0.365 C 
ATOM     15  O   UNL     1       3.769  -0.263  -3.628  0.00  0.00    -0.245 OA
BRANCH  14  16
ATOM     16  O   UNL     1       5.950  -0.307  -4.256  0.00  0.00    -0.477 OA
ATOM     17  H   UNL     1       6.806  -0.335  -3.761  0.00  0.00    +0.295 HD
ENDBRANCH  14  16
ENDBRANCH   4  14
BRANCH   6  18
ATOM     18  O   UNL     1       6.598  -1.890   0.446  0.00  0.00    -0.390 OA
ATOM     19  H   UNL     1       6.780  -1.736   1.403  0.00  0.00    +0.210 HD
ENDBRANCH   6  18
BRANCH   2  20
ATOM     20  C   UNL     1       6.914   1.054   0.527  0.00  0.00    +0.176 C 
BRANCH  20  21
ATOM     21  O   UNL     1       7.268   2.322  -0.060  0.00  0.00    -0.387 OA
ATOM     22  H   UNL     1       6.936   2.290  -0.980  0.00  0.00    +0.210 HD
ENDBRANCH  20  21
BRANCH  20  23
ATOM     23  C   UNL     1       7.311   1.067   2.010  0.00  0.00    +0.171 C 
BRANCH  23  24
ATOM     24  O   UNL     1       7.019  -0.192   2.634  0.00  0.00    -0.387 OA
ATOM     25  H   UNL     1       7.407  -0.123   3.532  0.00  0.00    +0.210 HD
ENDBRANCH  23  24
BRANCH  23  26
ATOM     26  C   UNL     1       8.820   1.314   2.177  0.00  0.00    +0.189 C 
BRANCH  26  27
ATOM     27  O   UNL     1       9.126   1.302   3.576  0.00  0.00    -0.392 OA
ATOM     28  H   UNL     1       8.941   2.196   3.914  0.00  0.00    +0.210 HD
ENDBRANCH  26  27
ENDBRANCH  23  26
ENDBRANCH  20  23
ENDBRANCH   2  20
TORSDOF 11
