REMARK  Name = 
REMARK  10 active torsions:
REMARK  status: ('A' for Active; 'I' for Inactive)
REMARK    1  A    between atoms: C_1  and  N_2
REMARK    2  A    between atoms: N_2  and  C_3
REMARK    3  A    between atoms: N_12  and  C_13
REMARK    4  A    between atoms: C_16  and  C_18
REMARK    5  A    between atoms: C_18  and  O_19
REMARK    6  A    between atoms: O_19  and  P_20
REMARK    7  A    between atoms: P_20  and  O_21
REMARK    8  A    between atoms: P_20  and  O_22
REMARK    9  A    between atoms: C_24  and  N_26
REMARK   10  A    between atoms: C_27  and  O_29
REMARK                            x       y       z     vdW  Elec       q    Type
REMARK                         _______ _______ _______ _____ _____    ______ ____
ROOT
ATOM      1  C   UNL     1       5.957  -0.135   5.126  0.00  0.00    +0.252 C 
ATOM      2  C   UNL     1       5.552  -1.203   6.147  0.00  0.00    +0.183 C 
ATOM      3  C   UNL     1       5.496  -0.486   7.510  0.00  0.00    +0.115 C 
ATOM      4  C   UNL     1       5.843   0.977   7.192  0.00  0.00    +0.166 C 
ATOM      5  O   UNL     1       5.684   1.133   5.772  0.00  0.00    -0.347 OA
ENDROOT
BRANCH   1  12
ATOM      6  C   UNL     1      12.880  -2.053   3.760  0.00  0.00    +0.130 C 
ATOM      7  N   UNL     1      11.823  -1.064   3.718  0.00  0.00    -0.319 N 
ATOM      8  C   UNL     1      10.531  -1.469   4.022  0.00  0.00    +0.152 A 
ATOM      9  C   UNL     1       9.416  -0.597   4.166  0.00  0.00    +0.148 A 
ATOM     10  N   UNL     1       9.281   0.771   4.046  0.00  0.00    -0.231 NA
ATOM     11  C   UNL     1       8.017   1.019   4.294  0.00  0.00    +0.203 A 
ATOM     12  N   UNL     1       7.338  -0.114   4.671  0.00  0.00    -0.286 N 
ATOM     13  C   UNL     1       8.196  -1.165   4.510  0.00  0.00    +0.167 A 
ATOM     14  N   UNL     1       7.943  -2.470   4.696  0.00  0.00    -0.216 NA
ATOM     15  C   UNL     1       9.042  -3.218   4.507  0.00  0.00    +0.225 A 
ATOM     16  N   UNL     1      10.287  -2.802   4.208  0.00  0.00    -0.218 NA
ATOM     17  C   UNL     1      12.143   0.346   3.603  0.00  0.00    +0.130 C 
ENDBRANCH   1  12
BRANCH   3  18
ATOM     18  N   UNL     1       4.164  -0.660   8.136  0.00  0.00    -0.323 NA
ATOM     19  H   UNL     1       4.207  -0.394   9.121  0.00  0.00    +0.119 HD
ATOM     20  H   UNL     1       3.508   0.004   7.710  0.00  0.00    +0.119 HD
ENDBRANCH   3  18
BRANCH   2  21
ATOM     21  O   UNL     1       4.247  -1.720   5.810  0.00  0.00    -0.386 OA
ATOM     22  H   UNL     1       3.787  -1.803   6.673  0.00  0.00    +0.210 HD
ENDBRANCH   2  21
BRANCH   4  23
ATOM     23  C   UNL     1       7.271   1.330   7.637  0.00  0.00    +0.205 C 
BRANCH  23  24
ATOM     24  O   UNL     1       7.587   2.688   7.324  0.00  0.00    -0.284 OA
BRANCH  24  25
ATOM     25  P   UNL     1       9.216   3.057   7.774  0.00  0.00    +0.472 P 
ATOM     26  O   UNL     1      10.674   3.387   8.176  0.00  0.00    -0.228 OA
BRANCH  25  27
ATOM     27  O   UNL     1       8.555   4.050   8.898  0.00  0.00    -0.303 OA
ATOM     28  H   UNL     1       8.788   3.754   9.795  0.00  0.00    +0.222 HD
ENDBRANCH  25  27
BRANCH  25  29
ATOM     29  O   UNL     1       9.138   4.160   6.572  0.00  0.00    -0.303 OA
ATOM     30  H   UNL     1       8.550   4.872   6.878  0.00  0.00    +0.222 HD
ENDBRANCH  25  29
ENDBRANCH  24  25
ENDBRANCH  23  24
ENDBRANCH   4  23
TORSDOF 8
