REMARK  Name = 
REMARK  9 active torsions:
REMARK  status: ('A' for Active; 'I' for Inactive)
REMARK    1  A    between atoms: C_1  and  C_2
REMARK    2  A    between atoms: N_4  and  C_5
REMARK    3  A    between atoms: C_8  and  C_10
REMARK    4  A    between atoms: C_10  and  O_11
REMARK    5  A    between atoms: O_11  and  P_12
REMARK    6  A    between atoms: P_12  and  O_13
REMARK    7  A    between atoms: P_12  and  O_14
REMARK    8  A    between atoms: C_16  and  O_18
REMARK    9  A    between atoms: C_19  and  O_21
REMARK                            x       y       z     vdW  Elec       q    Type
REMARK                         _______ _______ _______ _____ _____    ______ ____
ROOT
ATOM      1  C   UNL     1       5.523   2.688  -0.501  0.00  0.00    +0.255 C 
ATOM      2  C   UNL     1       6.606   2.515   0.590  0.00  0.00    +0.195 C 
ATOM      3  C   UNL     1       6.911   3.944   1.069  0.00  0.00    +0.178 C 
ATOM      4  C   UNL     1       6.023   4.828   0.194  0.00  0.00    +0.178 C 
ATOM      5  O   UNL     1       4.936   3.980  -0.224  0.00  0.00    -0.346 OA
ENDROOT
BRANCH   1  14
ATOM      6  C   UNL     1       3.866   3.212  -5.137  0.00  0.00    +0.051 C 
ATOM      7  C   UNL     1       4.947   2.917  -4.151  0.00  0.00    +0.030 A 
ATOM      8  C   UNL     1       6.317   2.763  -4.686  0.00  0.00    +0.257 A 
ATOM      9  O   UNL     1       6.576   2.908  -5.873  0.00  0.00    -0.267 OA
ATOM     10  N   UNL     1       7.277   2.469  -3.769  0.00  0.00    -0.275 N 
ATOM     11  H   UNL     1       8.222   2.418  -4.111  0.00  0.00    +0.173 HD
ATOM     12  C   UNL     1       7.139   2.544  -2.411  0.00  0.00    +0.331 A 
ATOM     13  O   UNL     1       8.152   2.535  -1.724  0.00  0.00    -0.246 OA
ATOM     14  N   UNL     1       5.840   2.649  -1.939  0.00  0.00    -0.271 N 
ATOM     15  C   UNL     1       4.779   2.822  -2.825  0.00  0.00    +0.102 A 
ENDBRANCH   1  14
BRANCH   2  16
ATOM     16  O   UNL     1       6.054   1.758   1.700  0.00  0.00    -0.385 OA
ATOM     17  H   UNL     1       5.254   2.210   2.015  0.00  0.00    +0.210 HD
ENDBRANCH   2  16
BRANCH   3  18
ATOM     18  O   UNL     1       8.289   4.267   0.945  0.00  0.00    -0.386 OA
ATOM     19  H   UNL     1       8.388   5.235   0.992  0.00  0.00    +0.210 HD
ENDBRANCH   3  18
BRANCH   4  20
ATOM     20  C   UNL     1       5.425   6.029   0.922  0.00  0.00    +0.206 C 
BRANCH  20  21
ATOM     21  O   UNL     1       6.386   7.016   1.295  0.00  0.00    -0.284 OA
BRANCH  21  22
ATOM     22  P   UNL     1       5.630   8.348   2.099  0.00  0.00    +0.472 P 
ATOM     23  O   UNL     1       4.953   9.541   2.819  0.00  0.00    -0.228 OA
BRANCH  22  24
ATOM     24  O   UNL     1       5.272   8.897   0.597  0.00  0.00    -0.303 OA
ATOM     25  H   UNL     1       4.315   8.997   0.470  0.00  0.00    +0.222 HD
ENDBRANCH  22  24
BRANCH  22  26
ATOM     26  O   UNL     1       7.131   8.993   2.174  0.00  0.00    -0.303 OA
ATOM     27  H   UNL     1       7.609   8.744   2.981  0.00  0.00    +0.222 HD
ENDBRANCH  22  26
ENDBRANCH  21  22
ENDBRANCH  20  21
ENDBRANCH   4  20
TORSDOF 8
