REMARK  Name = 
REMARK  8 active torsions:
REMARK  status: ('A' for Active; 'I' for Inactive)
REMARK    1  A    between atoms: C_2  and  C_27
REMARK    2  A    between atoms: N_6  and  C_7
REMARK    3  A    between atoms: C_7  and  C_8
REMARK    4  A    between atoms: N_15  and  S_16
REMARK    5  A    between atoms: S_16  and  C_19
REMARK    6  A    between atoms: C_22  and  O_23
REMARK    7  A    between atoms: O_23  and  C_24
REMARK    8  A    between atoms: N_29  and  O_30
REMARK                            x       y       z     vdW  Elec       q    Type
REMARK                         _______ _______ _______ _____ _____    ______ ____
ROOT
ATOM      1  C   UNL     1       2.051  -0.023  -0.087  0.00  0.00    +0.178 C 
ATOM      2  N   UNL     1       2.636   0.961  -1.054  0.00  0.00    -0.147 NA
ATOM      3  C   UNL     1       2.339   0.537  -2.423  0.00  0.00    +0.219 C 
ATOM      4  N   UNL     1       2.887  -0.752  -2.692  0.00  0.00    -0.283 N 
ATOM      5  C   UNL     1       2.597  -1.801  -1.847  0.00  0.00    +0.219 C 
ATOM      6  O   UNL     1       2.610  -2.976  -2.209  0.00  0.00    -0.275 OA
ATOM      7  C   UNL     1       2.492  -1.451  -0.376  0.00  0.00    +0.126 C 
ENDROOT
BRANCH   1   8
ATOM      8  C   UNL     1       0.522   0.062  -0.048  0.00  0.00    +0.255 C 
ATOM      9  N   UNL     1       0.014   1.307   0.237  0.00  0.00    -0.196 N 
ATOM     10  H   UNL     1       0.561   2.072   0.622  0.00  0.00    +0.182 HD
ATOM     11  O   UNL     1      -0.231  -0.893  -0.240  0.00  0.00    -0.272 OA
BRANCH   9  12
ATOM     12  O   UNL     1      -1.390   1.365   0.409  0.00  0.00    -0.295 OA
ATOM     13  H   UNL     1      -1.664   0.432   0.261  0.00  0.00    +0.241 HD
ENDBRANCH   9  12
ENDBRANCH   1   8
BRANCH   2  14
ATOM     14  S   UNL     1       4.264   1.377  -0.736  0.00  0.00    +0.063 S 
ATOM     15  O   UNL     1       5.080   0.197  -0.899  0.00  0.00    -0.153 OA
ATOM     16  O   UNL     1       4.268   2.115   0.510  0.00  0.00    -0.153 OA
BRANCH  14  17
ATOM     17  C   UNL     1       4.666   2.506  -2.047  0.00  0.00    +0.106 A 
ATOM     18  C   UNL     1       5.512   2.100  -3.086  0.00  0.00    +0.032 A 
ATOM     19  C   UNL     1       5.672   2.919  -4.209  0.00  0.00    +0.047 A 
ATOM     20  C   UNL     1       5.010   4.146  -4.275  0.00  0.00    +0.120 A 
ATOM     21  C   UNL     1       4.208   4.560  -3.206  0.00  0.00    +0.047 A 
ATOM     22  C   UNL     1       4.039   3.750  -2.084  0.00  0.00    +0.032 A 
BRANCH  20  23
ATOM     23  O   UNL     1       5.012   4.990  -5.350  0.00  0.00    -0.495 OA
ATOM     24  C   UNL     1       6.160   4.944  -6.189  0.00  0.00    +0.277 C 
ENDBRANCH  20  23
ENDBRANCH  14  17
ENDBRANCH   2  14
BRANCH   4  25
ATOM     25  C   UNL     1       3.522  -0.995  -3.977  0.00  0.00    +0.144 C 
BRANCH  25  26
ATOM     26  C   UNL     1       2.562  -1.071  -5.130  0.00  0.00    -0.030 A 
ATOM     27  C   UNL     1       1.991  -2.302  -5.474  0.00  0.00    +0.005 A 
ATOM     28  C   UNL     1       1.054  -2.381  -6.502  0.00  0.00    +0.000 A 
ATOM     29  C   UNL     1       0.676  -1.230  -7.189  0.00  0.00    +0.000 A 
ATOM     30  C   UNL     1       1.260  -0.004  -6.875  0.00  0.00    +0.000 A 
ATOM     31  C   UNL     1       2.208   0.076  -5.855  0.00  0.00    +0.005 A 
ENDBRANCH  25  26
ENDBRANCH   4  25
TORSDOF 7
