REMARK  Name = 
REMARK  10 active torsions:
REMARK  status: ('A' for Active; 'I' for Inactive)
REMARK    1  A    between atoms: N_1  and  C_2
REMARK    2  A    between atoms: C_2  and  C_3
REMARK    3  A    between atoms: C_2  and  C_6
REMARK    4  A    between atoms: C_2  and  C_9
REMARK    5  A    between atoms: C_3  and  C_4
REMARK    6  A    between atoms: C_4  and  O_5
REMARK    7  A    between atoms: C_6  and  C_7
REMARK    8  A    between atoms: C_7  and  O_8
REMARK    9  A    between atoms: C_9  and  C_10
REMARK   10  A    between atoms: C_10  and  O_11
REMARK                            x       y       z     vdW  Elec       q    Type
REMARK                         _______ _______ _______ _____ _____    ______ ____
ROOT
ATOM      1  C   UNL     1       2.563   0.013  -0.040  0.00  0.00    +0.023 C 
ENDROOT
BRANCH   1   2
ATOM      2  N   UNL     1       1.095  -0.081  -0.094  0.00  0.00    -0.324 NA
ATOM      3  H   UNL     1       0.765  -0.890   0.434  0.00  0.00    +0.119 HD
ATOM      4  H   UNL     1       0.652   0.740   0.318  0.00  0.00    +0.119 HD
ENDBRANCH   1   2
BRANCH   1   5
ATOM      5  C   UNL     1       3.134  -1.259  -0.728  0.00  0.00    +0.050 C 
BRANCH   5   6
ATOM      6  C   UNL     1       2.724  -1.463  -2.187  0.00  0.00    +0.157 C 
BRANCH   6   7
ATOM      7  O   UNL     1       3.290  -2.676  -2.675  0.00  0.00    -0.395 OA
ATOM      8  H   UNL     1       4.256  -2.575  -2.666  0.00  0.00    +0.209 HD
ENDBRANCH   6   7
ENDBRANCH   5   6
ENDBRANCH   1   5
BRANCH   1   9
ATOM      9  C   UNL     1       3.029   0.001   1.443  0.00  0.00    +0.050 C 
BRANCH   9  10
ATOM     10  C   UNL     1       2.538   1.158   2.310  0.00  0.00    +0.157 C 
BRANCH  10  11
ATOM     11  O   UNL     1       3.067   1.024   3.625  0.00  0.00    -0.395 OA
ATOM     12  H   UNL     1       2.703   0.210   4.011  0.00  0.00    +0.209 HD
ENDBRANCH  10  11
ENDBRANCH   9  10
ENDBRANCH   1   9
BRANCH   1  13
ATOM     13  C   UNL     1       2.968   1.313  -0.780  0.00  0.00    +0.050 C 
BRANCH  13  14
ATOM     14  C   UNL     1       4.471   1.582  -0.842  0.00  0.00    +0.157 C 
BRANCH  14  15
ATOM     15  O   UNL     1       4.712   2.797  -1.542  0.00  0.00    -0.395 OA
ATOM     16  H   UNL     1       4.381   2.689  -2.450  0.00  0.00    +0.209 HD
ENDBRANCH  14  15
ENDBRANCH  13  14
ENDBRANCH   1  13
TORSDOF 10
