REMARK  Name = 
REMARK  5 active torsions:
REMARK  status: ('A' for Active; 'I' for Inactive)
REMARK    1  A    between atoms: O_1  and  C_2
REMARK    2  A    between atoms: C_2  and  C_3
REMARK    3  A    between atoms: C_3  and  O_4
REMARK    4  A    between atoms: C_3  and  C_5
REMARK    5  A    between atoms: C_5  and  O_6
REMARK                            x       y       z     vdW  Elec       q    Type
REMARK                         _______ _______ _______ _____ _____    ______ ____
ROOT
ATOM      1  C   UNL     1       2.870  -1.215  -0.813  0.00  0.00    +0.165 C 
ENDROOT
BRANCH   1   2
ATOM      2  O   UNL     1       2.370  -1.133  -2.153  0.00  0.00    -0.387 OA
ATOM      3  H   UNL     1       3.023  -0.634  -2.681  0.00  0.00    +0.210 HD
ENDBRANCH   1   2
BRANCH   1   4
ATOM      4  C   UNL     1       2.317  -0.052   0.006  0.00  0.00    +0.189 C 
BRANCH   4   5
ATOM      5  O   UNL     1       2.753  -0.115   1.356  0.00  0.00    -0.392 OA
ATOM      6  H   UNL     1       2.309   0.605   1.830  0.00  0.00    +0.210 HD
ENDBRANCH   4   5
ENDBRANCH   1   4
BRANCH   1   7
ATOM      7  C   UNL     1       4.406  -1.252  -0.808  0.00  0.00    +0.189 C 
BRANCH   7   8
ATOM      8  O   UNL     1       4.897  -2.279  -1.674  0.00  0.00    -0.392 OA
ATOM      9  H   UNL     1       4.281  -3.029  -1.608  0.00  0.00    +0.210 HD
ENDBRANCH   7   8
ENDBRANCH   1   7
TORSDOF 5
