REMARK  Name = 
REMARK  21 active torsions:
REMARK  status: ('A' for Active; 'I' for Inactive)
REMARK    1  A    between atoms: N_6  and  C_9
REMARK    2  A    between atoms: C_12  and  O_14
REMARK    3  A    between atoms: C_15  and  C_16
REMARK    4  A    between atoms: C_16  and  O_17
REMARK    5  A    between atoms: O_17  and  P_18
REMARK    6  A    between atoms: P_18  and  O_19
REMARK    7  A    between atoms: P_18  and  O_21
REMARK    8  A    between atoms: O_21  and  P_22
REMARK    9  A    between atoms: P_22  and  O_23
REMARK   10  A    between atoms: P_22  and  O_25
REMARK   11  A    between atoms: O_25  and  P_26
REMARK   12  A    between atoms: P_26  and  O_27
REMARK   13  A    between atoms: P_26  and  O_29
REMARK   14  A    between atoms: O_29  and  P_30
REMARK   15  A    between atoms: P_30  and  O_31
REMARK   16  A    between atoms: P_30  and  O_33
REMARK   17  A    between atoms: O_33  and  C_34
REMARK   18  A    between atoms: C_34  and  C_35
REMARK   19  A    between atoms: C_38  and  N_46
REMARK   20  A    between atoms: C_40  and  O_42
REMARK   21  A    between atoms: C_43  and  O_45
REMARK                            x       y       z     vdW  Elec       q    Type
REMARK                         _______ _______ _______ _____ _____    ______ ____
ROOT
ATOM      1  O   UNL     1      14.443  -2.345  -0.473  0.00  0.00    -0.186 OA
ENDROOT
BRANCH   1   2
ATOM      2  P   UNL     1      14.487  -0.598  -0.764  0.00  0.00    +0.492 P 
ATOM      3  O   UNL     1      13.486   0.139   0.065  0.00  0.00    -0.226 OA
BRANCH   2   4
ATOM      4  O   UNL     1      13.928  -0.818  -2.277  0.00  0.00    -0.302 OA
ATOM      5  H   UNL     1      14.586  -1.306  -2.814  0.00  0.00    +0.222 HD
ENDBRANCH   2   4
BRANCH   2   6
ATOM      6  O   UNL     1      15.800   0.550  -1.271  0.00  0.00    -0.186 OA
BRANCH   6   7
ATOM      7  P   UNL     1      16.845   1.213  -0.062  0.00  0.00    +0.483 P 
ATOM      8  O   UNL     1      17.193   2.365  -1.006  0.00  0.00    -0.227 OA
BRANCH   7   9
ATOM      9  O   UNL     1      17.891   0.031  -0.496  0.00  0.00    -0.302 OA
ATOM     10  H   UNL     1      18.372   0.388  -1.275  0.00  0.00    +0.222 HD
ENDBRANCH   7   9
BRANCH   7  11
ATOM     11  O   UNL     1      17.889   1.875   1.147  0.00  0.00    -0.284 OA
BRANCH  11  12
ATOM     12  C   UNL     1      19.294   1.592   0.955  0.00  0.00    +0.206 C 
BRANCH  12  13
ATOM     13  C   UNL     1      20.275   2.167   1.973  0.00  0.00    +0.178 C 
ATOM     14  C   UNL     1      19.998   1.760   3.406  0.00  0.00    +0.178 C 
ATOM     15  C   UNL     1      20.724   2.852   4.213  0.00  0.00    +0.195 C 
ATOM     16  C   UNL     1      20.940   4.009   3.183  0.00  0.00    +0.255 C 
ATOM     17  O   UNL     1      20.304   3.586   1.957  0.00  0.00    -0.346 OA
BRANCH  16  18
ATOM     18  N   UNL     1      20.477   5.366   3.518  0.00  0.00    -0.271 N 
ATOM     19  C   UNL     1      21.058   6.025   4.614  0.00  0.00    +0.331 A 
ATOM     20  O   UNL     1      21.866   5.509   5.381  0.00  0.00    -0.246 OA
ATOM     21  N   UNL     1      20.700   7.344   4.781  0.00  0.00    -0.275 N 
ATOM     22  H   UNL     1      21.140   7.839   5.542  0.00  0.00    +0.173 HD
ATOM     23  C   UNL     1      20.114   8.128   3.821  0.00  0.00    +0.254 A 
ATOM     24  O   UNL     1      20.070   9.357   3.906  0.00  0.00    -0.268 OA
ATOM     25  C   UNL     1      19.579   7.421   2.675  0.00  0.00    +0.088 A 
ATOM     26  C   UNL     1      19.768   6.104   2.583  0.00  0.00    +0.098 A 
ENDBRANCH  16  18
BRANCH  15  27
ATOM     27  O   UNL     1      21.986   2.365   4.693  0.00  0.00    -0.385 OA
ATOM     28  H   UNL     1      21.816   1.785   5.455  0.00  0.00    +0.210 HD
ENDBRANCH  15  27
BRANCH  14  29
ATOM     29  O   UNL     1      20.457   0.424   3.618  0.00  0.00    -0.386 OA
ATOM     30  H   UNL     1      20.210   0.139   4.512  0.00  0.00    +0.210 HD
ENDBRANCH  14  29
ENDBRANCH  12  13
ENDBRANCH  11  12
ENDBRANCH   7  11
ENDBRANCH   6   7
ENDBRANCH   2   6
ENDBRANCH   1   2
BRANCH   1  31
ATOM     31  P   UNL     1      13.152  -3.167   0.448  0.00  0.00    +0.492 P 
ATOM     32  O   UNL     1      13.462  -3.112   1.916  0.00  0.00    -0.226 OA
BRANCH  31  33
ATOM     33  O   UNL     1      11.928  -2.224   0.025  0.00  0.00    -0.302 OA
ATOM     34  H   UNL     1      11.775  -2.201  -0.939  0.00  0.00    +0.222 HD
ENDBRANCH  31  33
BRANCH  31  35
ATOM     35  O   UNL     1      12.334  -4.738   0.108  0.00  0.00    -0.186 OA
BRANCH  35  36
ATOM     36  P   UNL     1      12.659  -6.011   1.234  0.00  0.00    +0.483 P 
ATOM     37  O   UNL     1      11.441  -6.787   0.724  0.00  0.00    -0.227 OA
BRANCH  36  38
ATOM     38  O   UNL     1      13.949  -6.488   0.353  0.00  0.00    -0.302 OA
ATOM     39  H   UNL     1      14.799  -6.284   0.780  0.00  0.00    +0.222 HD
ENDBRANCH  36  38
BRANCH  36  40
ATOM     40  O   UNL     1      12.983  -7.283   2.361  0.00  0.00    -0.284 OA
BRANCH  40  41
ATOM     41  C   UNL     1      12.027  -7.373   3.517  0.00  0.00    +0.206 C 
BRANCH  41  44
ATOM     42  C   UNL     1       8.775  -8.342   5.112  0.00  0.00    +0.226 C 
ATOM     43  O   UNL     1       9.880  -7.381   4.910  0.00  0.00    -0.348 OA
ATOM     44  C   UNL     1      10.399  -7.473   3.502  0.00  0.00    +0.175 C 
ATOM     45  C   UNL     1       9.630  -8.680   2.928  0.00  0.00    +0.150 C 
ATOM     46  C   UNL     1       8.296  -8.671   3.706  0.00  0.00    +0.088 C 
BRANCH  42  53
ATOM     47  N   UNL     1       6.273  -7.298   9.871  0.00  0.00    -0.343 N 
ATOM     48  H   UNL     1       5.887  -6.416  10.182  0.00  0.00    +0.144 HD
ATOM     49  H   UNL     1       5.843  -8.112  10.303  0.00  0.00    +0.144 HD
ATOM     50  C   UNL     1       6.604  -7.454   8.547  0.00  0.00    +0.123 A 
ATOM     51  C   UNL     1       7.102  -6.301   7.763  0.00  0.00    +0.061 A 
ATOM     52  C   UNL     1       7.746  -6.608   6.631  0.00  0.00    +0.096 A 
ATOM     53  N   UNL     1       7.781  -7.901   6.140  0.00  0.00    -0.273 N 
ATOM     54  C   UNL     1       6.928  -8.858   6.726  0.00  0.00    +0.352 A 
ATOM     55  O   UNL     1       6.610  -9.883   6.129  0.00  0.00    -0.244 OA
ATOM     56  N   UNL     1       6.488  -8.634   8.020  0.00  0.00    -0.178 NA
ENDBRANCH  42  53
BRANCH  45  57
ATOM     57  O   UNL     1      10.293  -9.912   3.202  0.00  0.00    -0.389 OA
ATOM     58  H   UNL     1      11.011 -10.001   2.549  0.00  0.00    +0.210 HD
ENDBRANCH  45  57
ENDBRANCH  41  44
ENDBRANCH  40  41
ENDBRANCH  36  40
ENDBRANCH  35  36
ENDBRANCH  31  35
ENDBRANCH   1  31
TORSDOF 21
