REMARK  Name = 
REMARK  24 active torsions:
REMARK  status: ('A' for Active; 'I' for Inactive)
REMARK    1  A    between atoms: C_1  and  C_2
REMARK    2  A    between atoms: C_2  and  C_3
REMARK    3  A    between atoms: C_2  and  C_4
REMARK    4  A    between atoms: C_4  and  C_5
REMARK    5  A    between atoms: C_5  and  N_7
REMARK    6  A    between atoms: C_5  and  C_30
REMARK    7  A    between atoms: C_8  and  C_10
REMARK    8  A    between atoms: C_10  and  C_12
REMARK    9  A    between atoms: C_10  and  N_15
REMARK   10  A    between atoms: C_12  and  C_13
REMARK   11  A    between atoms: C_12  and  C_14
REMARK   12  A    between atoms: C_16  and  C_18
REMARK   13  A    between atoms: C_18  and  C_20
REMARK   14  A    between atoms: C_18  and  N_21
REMARK   15  A    between atoms: C_22  and  C_24
REMARK   16  A    between atoms: C_27  and  C_28
REMARK   17  A    between atoms: N_32  and  C_33
REMARK   18  A    between atoms: C_33  and  C_35
REMARK   19  A    between atoms: C_33  and  C_47
REMARK   20  A    between atoms: C_36  and  C_37
REMARK   21  A    between atoms: C_37  and  O_39
REMARK   22  A    between atoms: O_39  and  C_40
REMARK   23  A    between atoms: C_40  and  C_41
REMARK   24  A    between atoms: C_47  and  C_48
REMARK                            x       y       z     vdW  Elec       q    Type
REMARK                         _______ _______ _______ _____ _____    ______ ____
ROOT
ATOM      1  C   UNL     1       4.698  14.619   4.358  0.00  0.00    +0.159 C 
ENDROOT
BRANCH   1   2
ATOM      2  C   UNL     1       5.487  13.460   3.702  0.00  0.00    +0.234 C 
ATOM      3  N   UNL     1       6.598  13.030   4.406  0.00  0.00    -0.307 N 
ATOM      4  H   UNL     1       6.877  13.527   5.240  0.00  0.00    +0.149 HD
ATOM      5  O   UNL     1       5.135  12.961   2.634  0.00  0.00    -0.274 OA
BRANCH   3   6
ATOM      6  C   UNL     1       7.338  11.830   4.043  0.00  0.00    +0.097 C 
BRANCH   6   7
ATOM      7  C   UNL     1       7.857  11.225   5.323  0.00  0.00    +0.002 C 
ATOM      8  C   UNL     1       8.803  11.723   6.142  0.00  0.00    +0.089 C 
BRANCH   8   9
ATOM      9  C   UNL     1       9.171  10.982   7.372  0.00  0.00    +0.332 C 
ATOM     10  O   UNL     1       8.701   9.900   7.691  0.00  0.00    -0.246 OA
BRANCH   9  11
ATOM     11  O   UNL     1      10.068  11.713   8.072  0.00  0.00    -0.457 OA
BRANCH  11  12
ATOM     12  C   UNL     1      10.471  11.161   9.335  0.00  0.00    +0.268 C 
BRANCH  12  13
ATOM     13  C   UNL     1      11.955  10.895   9.323  0.00  0.00    -0.010 A 
ATOM     14  C   UNL     1      12.452   9.690   8.804  0.00  0.00    +0.007 A 
ATOM     15  C   UNL     1      13.826   9.441   8.784  0.00  0.00    +0.000 A 
ATOM     16  C   UNL     1      14.716  10.393   9.277  0.00  0.00    +0.000 A 
ATOM     17  C   UNL     1      14.233  11.594   9.794  0.00  0.00    +0.000 A 
ATOM     18  C   UNL     1      12.860  11.845   9.816  0.00  0.00    +0.007 A 
ENDBRANCH  12  13
ENDBRANCH  11  12
ENDBRANCH   9  11
ENDBRANCH   8   9
ENDBRANCH   6   7
BRANCH   6  19
ATOM     19  C   UNL     1       8.419  12.136   2.991  0.00  0.00    +0.039 C 
BRANCH  19  20
ATOM     20  C   UNL     1       9.205  10.902   2.524  0.00  0.00    +0.078 C 
ATOM     21  C   UNL     1       8.323   9.960   1.743  0.00  0.00    +0.216 C 
ATOM     22  O   UNL     1       7.505   9.179   2.193  0.00  0.00    -0.276 OA
ATOM     23  N   UNL     1       8.550  10.163   0.390  0.00  0.00    -0.315 N 
ATOM     24  H   UNL     1       7.968   9.715  -0.311  0.00  0.00    +0.149 HD
ATOM     25  C   UNL     1       9.510  11.195   0.154  0.00  0.00    +0.105 C 
ATOM     26  C   UNL     1      10.264  11.260   1.469  0.00  0.00    +0.031 C 
ENDBRANCH  19  20
ENDBRANCH   6  19
ENDBRANCH   3   6
ENDBRANCH   1   2
BRANCH   1  27
ATOM     27  N   UNL     1       3.490  14.952   3.579  0.00  0.00    -0.302 N 
ATOM     28  H   UNL     1       3.238  14.306   2.837  0.00  0.00    +0.150 HD
ATOM     29  C   UNL     1       3.030  16.253   3.501  0.00  0.00    +0.234 C 
ATOM     30  O   UNL     1       3.510  17.139   4.213  0.00  0.00    -0.274 OA
BRANCH  29  31
ATOM     31  C   UNL     1       1.737  16.518   2.669  0.00  0.00    +0.161 C 
BRANCH  31  32
ATOM     32  N   UNL     1       1.624  15.760   1.416  0.00  0.00    -0.302 N 
ATOM     33  H   UNL     1       1.241  14.824   1.403  0.00  0.00    +0.150 HD
ATOM     34  C   UNL     1       2.120  16.278   0.236  0.00  0.00    +0.234 C 
ATOM     35  O   UNL     1       2.743  17.341   0.204  0.00  0.00    -0.274 OA
BRANCH  34  36
ATOM     36  C   UNL     1       1.834  15.486  -1.063  0.00  0.00    +0.156 C 
ATOM     37  C   UNL     1       1.171  16.410  -2.086  0.00  0.00    +0.038 C 
BRANCH  36  38
ATOM     38  N   UNL     1       1.040  14.275  -0.877  0.00  0.00    -0.299 N 
ATOM     39  H   UNL     1       0.035  14.290  -1.022  0.00  0.00    +0.150 HD
ATOM     40  C   UNL     1       1.641  13.042  -0.715  0.00  0.00    +0.266 C 
ATOM     41  O   UNL     1       2.850  12.911  -0.577  0.00  0.00    -0.268 OA
BRANCH  40  42
ATOM     42  C   UNL     1       0.727  11.899  -0.734  0.00  0.00    +0.168 A 
ATOM     43  C   UNL     1       1.077  10.530  -0.608  0.00  0.00    +0.080 A 
ATOM     44  C   UNL     1      -0.108   9.854  -0.755  0.00  0.00    +0.135 A 
ATOM     45  C   UNL     1      -0.470   8.425  -0.794  0.00  0.00    +0.089 C 
ATOM     46  O   UNL     1      -1.116  10.753  -0.916  0.00  0.00    -0.359 OA
ATOM     47  N   UNL     1      -0.600  12.040  -0.899  0.00  0.00    -0.073 NA
ENDBRANCH  40  42
ENDBRANCH  36  38
ENDBRANCH  34  36
ENDBRANCH  31  32
BRANCH  31  48
ATOM     48  C   UNL     1       0.483  16.401   3.579  0.00  0.00    +0.012 C 
ATOM     49  C   UNL     1       0.149  14.969   3.992  0.00  0.00    +0.009 C 
ATOM     50  C   UNL     1      -0.755  17.059   2.957  0.00  0.00    +0.009 C 
ENDBRANCH  31  48
ENDBRANCH  29  31
ENDBRANCH   1  27
BRANCH   1  51
ATOM     51  C   UNL     1       4.402  14.389   5.863  0.00  0.00    +0.034 C 
BRANCH  51  53
ATOM     52  C   UNL     1       3.808  11.846   5.796  0.00  0.00    +0.007 C 
ATOM     53  C   UNL     1       3.431  13.253   6.265  0.00  0.00    -0.015 C 
ATOM     54  C   UNL     1       3.299  13.207   7.796  0.00  0.00    +0.007 C 
ENDBRANCH  51  53
ENDBRANCH   1  51
TORSDOF 18
