REMARK  Name = 
REMARK  8 active torsions:
REMARK  status: ('A' for Active; 'I' for Inactive)
REMARK    1  A    between atoms: O_1  and  C_2
REMARK    2  A    between atoms: C_5  and  C_17
REMARK    3  A    between atoms: C_7  and  O_9
REMARK    4  A    between atoms: O_9  and  P_10
REMARK    5  A    between atoms: P_10  and  O_11
REMARK    6  A    between atoms: P_10  and  O_12
REMARK    7  A    between atoms: C_14  and  O_16
REMARK    8  A    between atoms: C_17  and  O_18
REMARK                            x       y       z     vdW  Elec       q    Type
REMARK                         _______ _______ _______ _____ _____    ______ ____
ROOT
ATOM      1  C   UNL     1       2.092  -0.177   0.175  0.00  0.00    +0.150 C 
ATOM      2  C   UNL     1       2.732   1.162  -0.250  0.00  0.00    +0.176 C 
ATOM      3  C   UNL     1       3.636   1.146  -1.516  0.00  0.00    +0.185 C 
ATOM      4  C   UNL     1       4.074  -0.205  -1.987  0.00  0.00    +0.018 C 
ATOM      5  C   UNL     1       3.665  -1.381  -1.491  0.00  0.00    +0.038 C 
ATOM      6  C   UNL     1       2.714  -1.486  -0.342  0.00  0.00    +0.076 C 
ENDROOT
BRANCH   1   7
ATOM      7  O   UNL     1       0.697  -0.160  -0.154  0.00  0.00    -0.389 OA
ATOM      8  H   UNL     1       0.252  -0.801   0.430  0.00  0.00    +0.210 HD
ENDBRANCH   1   7
BRANCH   2   9
ATOM      9  O   UNL     1       3.429   1.684   0.895  0.00  0.00    -0.386 OA
ATOM     10  H   UNL     1       2.770   2.191   1.404  0.00  0.00    +0.210 HD
ENDBRANCH   2   9
BRANCH   5  11
ATOM     11  C   UNL     1       4.121  -2.595  -2.228  0.00  0.00    +0.333 C 
ATOM     12  O   UNL     1       4.579  -2.553  -3.362  0.00  0.00    -0.245 OA
BRANCH  11  13
ATOM     13  O   UNL     1       4.006  -3.746  -1.546  0.00  0.00    -0.477 OA
ATOM     14  H   UNL     1       3.743  -3.675  -0.615  0.00  0.00    +0.295 HD
ENDBRANCH  11  13
ENDBRANCH   5  11
BRANCH   3  15
ATOM     15  O   UNL     1       4.778   2.005  -1.342  0.00  0.00    -0.277 OA
BRANCH  15  16
ATOM     16  P   UNL     1       5.629   2.245  -2.828  0.00  0.00    +0.473 P 
ATOM     17  O   UNL     1       6.392   2.460  -4.159  0.00  0.00    -0.228 OA
BRANCH  16  18
ATOM     18  O   UNL     1       6.709   3.107  -1.946  0.00  0.00    -0.303 OA
ATOM     19  H   UNL     1       7.557   2.630  -1.898  0.00  0.00    +0.222 HD
ENDBRANCH  16  18
BRANCH  16  20
ATOM     20  O   UNL     1       4.625   3.523  -3.032  0.00  0.00    -0.303 OA
ATOM     21  H   UNL     1       5.018   4.244  -2.505  0.00  0.00    +0.222 HD
ENDBRANCH  16  20
ENDBRANCH  15  16
ENDBRANCH   3  15
TORSDOF 8
