REMARK  Name = 
REMARK  6 active torsions:
REMARK  status: ('A' for Active; 'I' for Inactive)
REMARK    1  A    between atoms: C_1  and  O_2
REMARK    2  A    between atoms: O_2  and  C_3
REMARK    3  A    between atoms: C_6  and  C_8
REMARK    4  A    between atoms: C_9  and  O_11
REMARK    5  A    between atoms: C_12  and  O_14
REMARK    6  A    between atoms: C_15  and  O_17
REMARK                            x       y       z     vdW  Elec       q    Type
REMARK                         _______ _______ _______ _____ _____    ______ ____
ROOT
ATOM      1  C   UNL     1       2.767   1.055  -0.600  0.00  0.00    +0.281 C 
ATOM      2  C   UNL     1       3.538   2.140   0.184  0.00  0.00    +0.201 C 
ATOM      3  C   UNL     1       2.584   3.164   0.823  0.00  0.00    +0.179 C 
ATOM      4  C   UNL     1       1.612   3.700  -0.237  0.00  0.00    +0.174 C 
ATOM      5  C   UNL     1       0.908   2.570  -1.012  0.00  0.00    +0.149 C 
ATOM      6  C   UNL     1      -0.254   1.926  -0.260  0.00  0.00    +0.041 C 
ATOM      7  O   UNL     1       1.825   1.597  -1.530  0.00  0.00    -0.343 OA
ENDROOT
BRANCH   1   9
ATOM      8  C   UNL     1       1.754  -1.071  -0.282  0.00  0.00    +0.197 C 
ATOM      9  O   UNL     1       2.162   0.149   0.321  0.00  0.00    -0.352 OA
ENDBRANCH   1   9
BRANCH   2  10
ATOM     10  O   UNL     1       4.478   2.812  -0.672  0.00  0.00    -0.384 OA
ATOM     11  H   UNL     1       3.973   3.505  -1.152  0.00  0.00    +0.210 HD
ENDBRANCH   2  10
BRANCH   3  12
ATOM     12  O   UNL     1       1.862   2.647   1.940  0.00  0.00    -0.386 OA
ATOM     13  H   UNL     1       2.459   2.064   2.443  0.00  0.00    +0.210 HD
ENDBRANCH   3  12
BRANCH   4  14
ATOM     14  O   UNL     1       2.379   4.492  -1.169  0.00  0.00    -0.387 OA
ATOM     15  H   UNL     1       1.751   4.853  -1.822  0.00  0.00    +0.210 HD
ENDBRANCH   4  14
TORSDOF 4
