REMARK  Name = 
REMARK  17 active torsions:
REMARK  status: ('A' for Active; 'I' for Inactive)
REMARK    1  A    between atoms: C_2  and  O_3
REMARK    2  A    between atoms: C_4  and  O_6
REMARK    3  A    between atoms: C_7  and  C_9
REMARK    4  A    between atoms: C_9  and  O_10
REMARK    5  A    between atoms: C_12  and  O_14
REMARK    6  A    between atoms: O_14  and  C_15
REMARK    7  A    between atoms: C_15  and  C_16
REMARK    8  A    between atoms: C_16  and  C_17
REMARK    9  A    between atoms: C_17  and  C_18
REMARK   10  A    between atoms: C_18  and  C_19
REMARK   11  A    between atoms: C_19  and  C_20
REMARK   12  A    between atoms: C_20  and  C_21
REMARK   13  A    between atoms: C_21  and  C_22
REMARK   14  A    between atoms: C_22  and  C_23
REMARK   15  A    between atoms: C_23  and  O_25
REMARK   16  A    between atoms: O_25  and  C_26
REMARK   17  A    between atoms: C_27  and  O_29
REMARK                            x       y       z     vdW  Elec       q    Type
REMARK                         _______ _______ _______ _____ _____    ______ ____
ROOT
ATOM      1  C   UNL     1       2.191  -2.261  -5.220  0.00  0.00    +0.179 C 
ATOM      2  C   UNL     1       2.298  -2.245  -3.695  0.00  0.00    +0.201 C 
ATOM      3  C   UNL     1       1.757  -0.930  -3.109  0.00  0.00    +0.282 C 
ATOM      4  O   UNL     1       2.433   0.200  -3.659  0.00  0.00    -0.341 OA
ATOM      5  C   UNL     1       2.570   0.289  -5.097  0.00  0.00    +0.178 C 
ATOM      6  C   UNL     1       2.896  -1.040  -5.814  0.00  0.00    +0.177 C 
ENDROOT
BRANCH   1   7
ATOM      7  O   UNL     1       0.848  -2.309  -5.705  0.00  0.00    -0.386 OA
ATOM      8  H   UNL     1       0.312  -2.827  -5.074  0.00  0.00    +0.210 HD
ENDBRANCH   1   7
BRANCH   6   9
ATOM      9  O   UNL     1       2.687  -0.960  -7.228  0.00  0.00    -0.386 OA
ATOM     10  H   UNL     1       2.035  -1.655  -7.452  0.00  0.00    +0.210 HD
ENDBRANCH   6   9
BRANCH   2  11
ATOM     11  O   UNL     1       3.674  -2.421  -3.318  0.00  0.00    -0.384 OA
ATOM     12  H   UNL     1       4.101  -1.542  -3.313  0.00  0.00    +0.210 HD
ENDBRANCH   2  11
BRANCH   5  13
ATOM     13  C   UNL     1       1.435   1.113  -5.712  0.00  0.00    +0.190 C 
BRANCH  13  14
ATOM     14  O   UNL     1       1.309   2.355  -5.004  0.00  0.00    -0.392 OA
ATOM     15  H   UNL     1       1.539   2.160  -4.077  0.00  0.00    +0.210 HD
ENDBRANCH  13  14
ENDBRANCH   5  13
BRANCH   3  16
ATOM     16  O   UNL     1       0.329  -0.864  -3.175  0.00  0.00    -0.349 OA
BRANCH  16  17
ATOM     17  C   UNL     1      -0.187   0.157  -2.311  0.00  0.00    +0.163 C 
BRANCH  17  18
ATOM     18  C   UNL     1      -1.692   0.005  -2.084  0.00  0.00    +0.028 C 
BRANCH  18  19
ATOM     19  C   UNL     1      -2.133  -1.282  -1.370  0.00  0.00    +0.002 C 
BRANCH  19  20
ATOM     20  C   UNL     1      -1.474  -1.473  -0.002  0.00  0.00    +0.000 C 
BRANCH  20  21
ATOM     21  C   UNL     1      -1.938  -2.751   0.702  0.00  0.00    +0.000 C 
BRANCH  21  22
ATOM     22  C   UNL     1      -1.186  -2.919   2.023  0.00  0.00    +0.001 C 
BRANCH  22  23
ATOM     23  C   UNL     1      -1.575  -4.202   2.753  0.00  0.00    +0.011 C 
BRANCH  23  24
ATOM     24  C   UNL     1      -0.795  -4.337   4.059  0.00  0.00    +0.120 C 
BRANCH  24  25
ATOM     25  C   UNL     1      -1.142  -5.599   4.802  0.00  0.00    +0.307 C 
ATOM     26  O   UNL     1      -1.961  -6.439   4.442  0.00  0.00    -0.251 OA
BRANCH  25  27
ATOM     27  O   UNL     1      -0.406  -5.669   5.948  0.00  0.00    -0.468 OA
ATOM     28  C   UNL     1      -0.664  -6.831   6.734  0.00  0.00    +0.280 C 
ENDBRANCH  25  27
ENDBRANCH  24  25
ENDBRANCH  23  24
ENDBRANCH  22  23
ENDBRANCH  21  22
ENDBRANCH  20  21
ENDBRANCH  19  20
ENDBRANCH  18  19
ENDBRANCH  17  18
ENDBRANCH  16  17
ENDBRANCH   3  16
TORSDOF 16
