REMARK  Name = 
REMARK  6 active torsions:
REMARK  status: ('A' for Active; 'I' for Inactive)
REMARK    1  A    between atoms: C_2  and  N_3
REMARK    2  A    between atoms: C_2  and  C_4
REMARK    3  A    between atoms: C_2  and  C_21
REMARK    4  A    between atoms: C_4  and  C_5
REMARK    5  A    between atoms: C_16  and  C_18
REMARK    6  A    between atoms: C_21  and  C_22
REMARK                            x       y       z     vdW  Elec       q    Type
REMARK                         _______ _______ _______ _____ _____    ______ ____
ROOT
ATOM      1  C   UNL     1       2.189  -1.765  -2.009  0.00  0.00    +0.218 C 
ATOM      2  N   UNL     1       2.716  -1.952  -3.275  0.00  0.00    -0.285 N 
ATOM      3  C   UNL     1       3.542  -0.961  -3.989  0.00  0.00    +0.166 C 
ATOM      4  C   UNL     1       5.006  -1.346  -3.786  0.00  0.00    +0.067 C 
ATOM      5  C   UNL     1       5.252  -2.777  -4.197  0.00  0.00    -0.040 A 
ATOM      6  C   UNL     1       4.190  -3.704  -4.221  0.00  0.00    -0.027 A 
ATOM      7  C   UNL     1       4.447  -5.011  -4.660  0.00  0.00    +0.005 A 
ATOM      8  C   UNL     1       5.736  -5.389  -5.041  0.00  0.00    +0.000 A 
ATOM      9  C   UNL     1       6.786  -4.475  -4.975  0.00  0.00    +0.000 A 
ATOM     10  C   UNL     1       6.547  -3.174  -4.549  0.00  0.00    +0.004 A 
ATOM     11  C   UNL     1       2.775  -3.307  -3.830  0.00  0.00    +0.144 C 
ATOM     12  O   UNL     1       1.674  -2.681  -1.364  0.00  0.00    -0.276 OA
ENDROOT
BRANCH   3  13
ATOM     13  C   UNL     1       3.039  -0.787  -5.445  0.00  0.00    +0.231 C 
ATOM     14  O   UNL     1       1.860  -0.541  -5.712  0.00  0.00    -0.274 OA
ATOM     15  N   UNL     1       3.941  -0.896  -6.464  0.00  0.00    -0.328 N 
ATOM     16  H   UNL     1       4.761  -1.483  -6.368  0.00  0.00    +0.145 HD
ATOM     17  H   UNL     1       3.536  -0.869  -7.393  0.00  0.00    +0.145 HD
ENDBRANCH   3  13
BRANCH   1  18
ATOM     18  C   UNL     1       2.254  -0.375  -1.400  0.00  0.00    +0.114 C 
BRANCH  18  19
ATOM     19  C   UNL     1       1.283   0.607  -2.068  0.00  0.00    +0.064 C 
BRANCH  19  20
ATOM     20  N   UNL     1       1.619   1.966  -1.602  0.00  0.00    -0.327 NA
ATOM     21  H   UNL     1       1.027   2.637  -2.097  0.00  0.00    +0.118 HD
ATOM     22  H   UNL     1       1.358   2.061  -0.620  0.00  0.00    +0.118 HD
ENDBRANCH  19  20
BRANCH  19  23
ATOM     23  C   UNL     1      -0.186   0.219  -1.781  0.00  0.00    +0.057 C 
BRANCH  23  24
ATOM     24  C   UNL     1      -1.199   1.164  -2.384  0.00  0.00    -0.011 A 
ATOM     25  C   UNL     1      -2.080   1.872  -1.560  0.00  0.00    +0.127 A 
ATOM     26  F   UNL     1      -2.025   1.718  -0.229  0.00  0.00    -0.205 F 
ATOM     27  C   UNL     1      -3.018   2.753  -2.089  0.00  0.00    +0.038 A 
ATOM     28  C   UNL     1      -3.087   2.940  -3.467  0.00  0.00    +0.003 A 
ATOM     29  C   UNL     1      -2.223   2.237  -4.307  0.00  0.00    +0.000 A 
ATOM     30  C   UNL     1      -1.284   1.350  -3.773  0.00  0.00    +0.006 A 
ENDBRANCH  23  24
ENDBRANCH  19  23
ENDBRANCH  18  19
ENDBRANCH   1  18
TORSDOF 6
