REMARK  Name = 
REMARK  8 active torsions:
REMARK  status: ('A' for Active; 'I' for Inactive)
REMARK    1  A    between atoms: C_1  and  C_2
REMARK    2  A    between atoms: C_4  and  C_5
REMARK    3  A    between atoms: C_5  and  N_6
REMARK    4  A    between atoms: C_7  and  C_9
REMARK    5  A    between atoms: C_11  and  C_15
REMARK    6  A    between atoms: N_17  and  C_18
REMARK    7  A    between atoms: C_18  and  C_19
REMARK    8  A    between atoms: C_23  and  C_24
REMARK                            x       y       z     vdW  Elec       q    Type
REMARK                         _______ _______ _______ _____ _____    ______ ____
ROOT
ATOM      1  C   UNL     1       3.709   6.209  -0.441  0.00  0.00    +0.129 A 
ATOM      2  N   UNL     1       4.157   7.487  -0.361  0.00  0.00    -0.231 NA
ATOM      3  C   UNL     1       3.207   8.431  -0.325  0.00  0.00    +0.222 A 
ATOM      4  N   UNL     1       1.885   8.226  -0.369  0.00  0.00    -0.231 NA
ATOM      5  C   UNL     1       1.499   6.929  -0.459  0.00  0.00    +0.129 A 
ATOM      6  C   UNL     1       2.376   5.866  -0.490  0.00  0.00    +0.066 A 
ENDROOT
BRANCH   1   9
ATOM      7  N   UNL     1       6.065   5.589  -0.407  0.00  0.00    -0.306 N 
ATOM      8  H   UNL     1       6.212   6.593  -0.435  0.00  0.00    +0.149 HD
ATOM      9  C   UNL     1       4.764   5.136  -0.482  0.00  0.00    +0.263 C 
ATOM     10  O   UNL     1       4.459   3.954  -0.575  0.00  0.00    -0.269 OA
BRANCH   7  11
ATOM     11  C   UNL     1       7.209   4.706  -0.498  0.00  0.00    +0.140 C 
BRANCH  11  17
ATOM     12  C   UNL     1      12.007   6.356  -0.481  0.00  0.00    +0.044 C 
ATOM     13  C   UNL     1      10.726   6.044   0.238  0.00  0.00    -0.050 A 
ATOM     14  C   UNL     1      10.626   6.300   1.611  0.00  0.00    +0.003 A 
ATOM     15  C   UNL     1       9.440   6.034   2.292  0.00  0.00    +0.001 A 
ATOM     16  C   UNL     1       8.339   5.520   1.606  0.00  0.00    +0.005 A 
ATOM     17  C   UNL     1       8.408   5.268   0.228  0.00  0.00    -0.030 A 
ATOM     18  C   UNL     1       9.615   5.525  -0.445  0.00  0.00    +0.008 A 
ENDBRANCH  11  17
ENDBRANCH   7  11
ENDBRANCH   1   9
BRANCH   5  19
ATOM     19  C   UNL     1       0.021   6.677  -0.551  0.00  0.00    +0.263 C 
ATOM     20  N   UNL     1      -0.781   7.802  -0.582  0.00  0.00    -0.306 N 
ATOM     21  H   UNL     1      -0.337   8.700  -0.421  0.00  0.00    +0.149 HD
ATOM     22  O   UNL     1      -0.416   5.531  -0.602  0.00  0.00    -0.269 OA
BRANCH  20  23
ATOM     23  C   UNL     1      -2.224   7.709  -0.606  0.00  0.00    +0.140 C 
BRANCH  23  24
ATOM     24  C   UNL     1      -2.869   8.900  -1.271  0.00  0.00    -0.030 A 
ATOM     25  C   UNL     1      -3.061   8.918  -2.663  0.00  0.00    +0.008 A 
ATOM     26  C   UNL     1      -3.709   9.993  -3.292  0.00  0.00    -0.050 A 
ATOM     27  C   UNL     1      -3.913   9.986  -4.779  0.00  0.00    +0.044 C 
ATOM     28  C   UNL     1      -4.139  11.076  -2.519  0.00  0.00    +0.003 A 
ATOM     29  C   UNL     1      -3.938  11.078  -1.138  0.00  0.00    +0.001 A 
ATOM     30  C   UNL     1      -3.305   9.998  -0.518  0.00  0.00    +0.005 A 
ENDBRANCH  23  24
ENDBRANCH  20  23
ENDBRANCH   5  19
TORSDOF 6
