REMARK  Name = 
REMARK  12 active torsions:
REMARK  status: ('A' for Active; 'I' for Inactive)
REMARK    1  A    between atoms: C_1  and  C_2
REMARK    2  A    between atoms: C_2  and  C_3
REMARK    3  A    between atoms: C_3  and  O_4
REMARK    4  A    between atoms: C_6  and  O_8
REMARK    5  A    between atoms: O_8  and  C_9
REMARK    6  A    between atoms: C_12  and  N_21
REMARK    7  A    between atoms: C_14  and  O_16
REMARK    8  A    between atoms: C_17  and  C_19
REMARK    9  A    between atoms: N_21  and  C_22
REMARK   10  A    between atoms: N_21  and  C_23
REMARK   11  A    between atoms: C_25  and  O_26
REMARK   12  A    between atoms: C_38  and  O_39
REMARK                            x       y       z     vdW  Elec       q    Type
REMARK                         _______ _______ _______ _____ _____    ______ ____
ROOT
ATOM      1  C   UNL     1       1.066   0.374  -1.640  0.00  0.00    +0.072 C 
ATOM      2  C   UNL     1      -0.130  -0.597  -1.618  0.00  0.00    +0.070 C 
ATOM      3  C   UNL     1      -0.292  -1.326  -2.942  0.00  0.00    -0.035 A 
ATOM      4  C   UNL     1       0.747  -1.397  -3.894  0.00  0.00    +0.027 A 
ATOM      5  C   UNL     1       0.458  -1.948  -5.163  0.00  0.00    +0.134 A 
ATOM      6  C   UNL     1      -0.811  -2.475  -5.476  0.00  0.00    +0.075 A 
ATOM      7  C   UNL     1      -1.172  -2.936  -6.848  0.00  0.00    +0.202 C 
ATOM      8  O   UNL     1      -0.438  -2.685  -7.794  0.00  0.00    -0.286 OA
ATOM      9  C   UNL     1      -2.486  -3.611  -7.074  0.00  0.00    +0.075 A 
ATOM     10  C   UNL     1      -3.433  -3.625  -6.049  0.00  0.00    +0.037 A 
ATOM     11  C   UNL     1      -4.702  -4.194  -6.246  0.00  0.00    +0.012 A 
ATOM     12  C   UNL     1      -5.031  -4.761  -7.474  0.00  0.00    +0.004 A 
ATOM     13  C   UNL     1      -4.091  -4.775  -8.498  0.00  0.00    +0.046 A 
ATOM     14  C   UNL     1      -3.129  -3.032  -4.736  0.00  0.00    +0.195 C 
ATOM     15  O   UNL     1      -3.983  -3.010  -3.856  0.00  0.00    -0.287 OA
ATOM     16  C   UNL     1      -2.830  -4.203  -8.303  0.00  0.00    +0.128 A 
ATOM     17  C   UNL     1      -1.787  -2.480  -4.482  0.00  0.00    +0.037 A 
ATOM     18  C   UNL     1       2.127  -0.800  -3.605  0.00  0.00    +0.158 C 
ATOM     19  C   UNL     1      -1.531  -1.914  -3.225  0.00  0.00    +0.016 A 
ATOM     20  C   UNL     1       2.277  -0.447  -2.120  0.00  0.00    +0.071 C 
ENDROOT
BRANCH   1  22
ATOM     21  C   UNL     1       0.232   1.923   0.225  0.00  0.00    +0.007 C 
ATOM     22  C   UNL     1       1.356   1.018  -0.274  0.00  0.00    +0.032 C 
ENDBRANCH   1  22
BRANCH   1  23
ATOM     23  O   UNL     1       0.797   1.480  -2.515  0.00  0.00    -0.388 OA
ATOM     24  H   UNL     1       0.660   1.145  -3.425  0.00  0.00    +0.210 HD
ENDBRANCH   1  23
BRANCH  16  25
ATOM     25  O   UNL     1      -1.933  -4.259  -9.330  0.00  0.00    -0.506 OA
ATOM     26  H   UNL     1      -2.356  -4.585 -10.140  0.00  0.00    +0.292 HD
ENDBRANCH  16  25
BRANCH   5  27
ATOM     27  O   UNL     1       1.453  -1.939  -6.105  0.00  0.00    -0.506 OA
ATOM     28  H   UNL     1       1.920  -1.082  -6.046  0.00  0.00    +0.292 HD
ENDBRANCH   5  27
BRANCH  18  29
ATOM     29  O   UNL     1       2.199   0.354  -4.457  0.00  0.00    -0.343 OA
BRANCH  29  30
ATOM     30  C   UNL     1       3.392   1.139  -4.348  0.00  0.00    +0.253 C 
ATOM     31  O   UNL     1       4.507   0.385  -4.775  0.00  0.00    -0.346 OA
ATOM     32  C   UNL     1       5.719   1.139  -4.768  0.00  0.00    +0.148 C 
ATOM     33  C   UNL     1       6.836   0.188  -5.191  0.00  0.00    +0.041 C 
ATOM     34  C   UNL     1       5.637   2.369  -5.699  0.00  0.00    +0.160 C 
ATOM     35  C   UNL     1       4.421   3.272  -5.303  0.00  0.00    +0.092 C 
ATOM     36  C   UNL     1       3.175   2.368  -5.222  0.00  0.00    +0.083 C 
BRANCH  35  37
ATOM     37  N   UNL     1       4.148   4.423  -6.221  0.00  0.00    -0.303 NA
ATOM     38  C   UNL     1       5.316   5.271  -6.471  0.00  0.00    +0.105 C 
ATOM     39  C   UNL     1       3.043   5.268  -5.751  0.00  0.00    +0.105 C 
ENDBRANCH  35  37
BRANCH  34  40
ATOM     40  O   UNL     1       6.886   3.067  -5.624  0.00  0.00    -0.388 OA
ATOM     41  H   UNL     1       6.914   3.558  -4.787  0.00  0.00    +0.210 HD
ENDBRANCH  34  40
ENDBRANCH  29  30
ENDBRANCH  18  29
TORSDOF 8
