REMARK  Name = 
REMARK  1 active torsions:
REMARK  status: ('A' for Active; 'I' for Inactive)
REMARK    1  A    between atoms: C_1  and  C_2
REMARK                            x       y       z     vdW  Elec       q    Type
REMARK                         _______ _______ _______ _____ _____    ______ ____
ROOT
ATOM      1  C   UNL     1       0.847  -0.948   0.588  0.00  0.00    +0.019 C 
ATOM      2  C   UNL     1       2.314  -0.599   0.247  0.00  0.00    +0.029 C 
ATOM      3  C   UNL     1       2.657  -1.290  -1.047  0.00  0.00    +0.139 C 
ATOM      4  O   UNL     1       3.255  -2.356  -1.147  0.00  0.00    -0.297 OA
ATOM      5  C   UNL     1       2.169  -0.470  -2.226  0.00  0.00    +0.075 C 
ATOM      6  C   UNL     1       1.814   0.889  -1.570  0.00  0.00    +0.012 C 
ATOM      7  C   UNL     1       2.556   0.853  -0.223  0.00  0.00    +0.006 C 
ATOM      8  C   UNL     1       2.236   1.870   0.896  0.00  0.00    -0.004 C 
ATOM      9  C   UNL     1       2.708   3.302   0.569  0.00  0.00    +0.004 C 
ATOM     10  C   UNL     1       2.357   4.297   1.692  0.00  0.00    +0.004 C 
ATOM     11  C   UNL     1       2.737   3.830   3.118  0.00  0.00    -0.001 C 
ATOM     12  C   UNL     1       2.354   2.356   3.371  0.00  0.00    -0.004 C 
ATOM     13  C   UNL     1       2.815   1.940   4.779  0.00  0.00    +0.011 C 
ATOM     14  C   UNL     1       2.155   2.788   5.856  0.00  0.00    +0.074 C 
ATOM     15  C   UNL     1       2.366   4.259   5.583  0.00  0.00    +0.134 C 
ATOM     16  O   UNL     1       2.589   5.045   6.505  0.00  0.00    -0.297 OA
ATOM     17  C   UNL     1       2.100   4.746   4.172  0.00  0.00    +0.078 C 
ATOM     18  C   UNL     1       2.939   1.474   2.239  0.00  0.00    -0.004 C 
ATOM     19  C   UNL     1       2.914  -0.023   2.591  0.00  0.00    +0.005 C 
ATOM     20  C   UNL     1       3.242  -0.915   1.403  0.00  0.00    +0.015 C 
ENDROOT
TORSDOF 0
