REMARK  Name = 
REMARK  14 active torsions:
REMARK  status: ('A' for Active; 'I' for Inactive)
REMARK    1  A    between atoms: C_1  and  S_2
REMARK    2  A    between atoms: S_2  and  C_3
REMARK    3  A    between atoms: C_3  and  C_4
REMARK    4  A    between atoms: C_4  and  N_6
REMARK    5  A    between atoms: C_4  and  C_17
REMARK    6  A    between atoms: C_7  and  C_9
REMARK    7  A    between atoms: C_9  and  C_10
REMARK    8  A    between atoms: C_10  and  C_11
REMARK    9  A    between atoms: C_11  and  N_13
REMARK   10  A    between atoms: C_11  and  C_14
REMARK   11  A    between atoms: C_14  and  O_15
REMARK   12  A    between atoms: N_19  and  CA_20
REMARK   13  A    between atoms: CA_20  and  C_21
REMARK   14  A    between atoms: C_21  and  O_22
REMARK                            x       y       z     vdW  Elec       q    Type
REMARK                         _______ _______ _______ _____ _____    ______ ____
ROOT
ATOM      1  N   UNK A   1       6.369   4.565   5.705  0.00  0.00    -0.303 N 
ATOM      2  H   UNK A   1       6.856   5.364   5.318  0.00  0.00    +0.149 HD
ATOM      3  C   UNK A   1       6.547   3.343   5.094  0.00  0.00    +0.214 C 
ATOM      4  O   UNK A   1       6.184   2.279   5.585  0.00  0.00    -0.276 OA
ENDROOT
BRANCH   1   5
ATOM      5  C   UNK A   1       5.936   4.660   7.109  0.00  0.00    +0.169 C 
BRANCH   5   6
ATOM      6  C   UNK A   1       7.066   4.098   8.029  0.00  0.00    +0.235 C 
ATOM      7  N   GLY A   2       6.777   4.089   9.376  0.00  0.00    -0.303 N 
ATOM      8  H   GLY A   2       5.917   4.534   9.695  0.00  0.00    +0.149 HD
ATOM      9  O   UNK A   1       8.164   3.733   7.612  0.00  0.00    -0.274 OA
BRANCH   7  10
ATOM     10  CA  GLY A   2       7.721   3.625  10.390  0.00  0.00    +0.224 C 
BRANCH  10  11
ATOM     11  C   GLY A   2       7.476   2.176  10.810  0.00  0.00    +0.322 C 
ATOM     12  OXT GLY A   2       8.113   1.608  11.689  0.00  0.00    -0.249 OA
BRANCH  11  13
ATOM     13  O   GLY A   2       6.459   1.576  10.152  0.00  0.00    -0.480 OA
ATOM     14  H   GLY A   2       6.115   2.173   9.456  0.00  0.00    +0.295 HD
ENDBRANCH  11  13
ENDBRANCH  10  11
ENDBRANCH   7  10
ENDBRANCH   5   6
BRANCH   5  15
ATOM     15  C   UNK A   1       4.544   4.029   7.326  0.00  0.00    +0.100 C 
BRANCH  15  17
ATOM     16  C   UNK A   1       2.323   3.358   8.848  0.00  0.00    +0.084 C 
ATOM     17  S   UNK A   1       3.801   4.401   8.965  0.00  0.00    -0.162 S 
ENDBRANCH  15  17
ENDBRANCH   5  15
ENDBRANCH   1   5
BRANCH   3  18
ATOM     18  C   UNK A   1       7.159   3.420   3.713  0.00  0.00    +0.098 C 
BRANCH  18  19
ATOM     19  C   UNK A   1       6.046   3.396   2.662  0.00  0.00    +0.039 C 
BRANCH  19  20
ATOM     20  C   UNK A   1       6.539   3.489   1.215  0.00  0.00    +0.161 C 
BRANCH  20  21
ATOM     21  N   UNK A   1       7.469   2.380   0.871  0.00  0.00    -0.318 NA
ATOM     22  H   UNK A   1       6.986   1.494   1.059  0.00  0.00    +0.119 HD
ATOM     23  H   UNK A   1       7.595   2.377  -0.148  0.00  0.00    +0.119 HD
ENDBRANCH  20  21
BRANCH  20  24
ATOM     24  C   UNK A   1       7.262   4.823   0.993  0.00  0.00    +0.322 C 
ATOM     25  O   UNK A   1       6.712   5.908   0.880  0.00  0.00    -0.249 OA
BRANCH  24  26
ATOM     26  O   UNK A   1       8.609   4.661   1.003  0.00  0.00    -0.480 OA
ATOM     27  H   UNK A   1       8.772   3.691   1.121  0.00  0.00    +0.295 HD
ENDBRANCH  24  26
ENDBRANCH  20  24
ENDBRANCH  19  20
ENDBRANCH  18  19
ENDBRANCH   3  18
TORSDOF 13
