REMARK  Name = 
REMARK  4 active torsions:
REMARK  status: ('A' for Active; 'I' for Inactive)
REMARK    1  A    between atoms: O_1  and  C_2
REMARK    2  A    between atoms: C_2  and  CA_4
REMARK    3  A    between atoms: CA_8  and  C_10
REMARK    4  A    between atoms: C_10  and  O_11
REMARK                            x       y       z     vdW  Elec       q    Type
REMARK                         _______ _______ _______ _____ _____    ______ ____
ROOT
ATOM      1  CA  UNL     1       3.101  -0.676   1.270  0.00  0.00    +0.148 A 
ATOM      2  N   UNL     1       3.045  -2.034   1.441  0.00  0.00    -0.234 NA
ATOM      3  CA  UNL     1       3.603  -2.484   2.609  0.00  0.00    +0.148 A 
ATOM      4  C   UNL     1       4.176  -1.666   3.579  0.00  0.00    +0.035 A 
ATOM      5  C   UNL     1       4.205  -0.294   3.356  0.00  0.00    +0.005 A 
ATOM      6  C   UNL     1       3.664   0.214   2.179  0.00  0.00    +0.035 A 
ENDROOT
BRANCH   1   7
ATOM      7  C   UNL     1       2.502  -0.138   0.010  0.00  0.00    +0.355 C 
ATOM      8  OXT UNL     1       2.496   1.039  -0.305  0.00  0.00    -0.243 OA
BRANCH   7   9
ATOM      9  O   UNL     1       1.960  -1.126  -0.738  0.00  0.00    -0.476 OA
ATOM     10  H   UNL     1       2.076  -1.988  -0.289  0.00  0.00    +0.295 HD
ENDBRANCH   7   9
ENDBRANCH   1   7
BRANCH   3  11
ATOM     11  C   UNL     1       3.590  -3.962   2.829  0.00  0.00    +0.355 C 
ATOM     12  OXT UNL     1       4.063  -4.519   3.804  0.00  0.00    -0.243 OA
BRANCH  11  13
ATOM     13  O   UNL     1       2.990  -4.609   1.804  0.00  0.00    -0.476 OA
ATOM     14  H   UNL     1       2.694  -3.966   1.128  0.00  0.00    +0.295 HD
ENDBRANCH  11  13
ENDBRANCH   3  11
TORSDOF 4
