REMARK  Name = 
REMARK  6 active torsions:
REMARK  status: ('A' for Active; 'I' for Inactive)
REMARK    1  A    between atoms: C_1  and  C_2
REMARK    2  A    between atoms: C_2  and  C_3
REMARK    3  A    between atoms: C_5  and  C_6
REMARK    4  A    between atoms: C_6  and  C_7
REMARK    5  A    between atoms: C_11  and  C_12
REMARK    6  A    between atoms: C_13  and  O_14
REMARK                            x       y       z     vdW  Elec       q    Type
REMARK                         _______ _______ _______ _____ _____    ______ ____
ROOT
ATOM      1  C   UNL     1       2.508   2.331  -0.584  0.00  0.00    +0.097 C 
ATOM      2  C   UNL     1       2.915   0.853  -0.493  0.00  0.00    +0.036 C 
ATOM      3  C   UNL     1       2.139   2.613  -2.035  0.00  0.00    +0.121 C 
ATOM      4  C   UNL     1       0.847   2.514  -2.388  0.00  0.00    +0.042 C 
ATOM      5  C   UNL     1       0.262   2.541  -3.755  0.00  0.00    +0.052 C 
ATOM      6  C   UNL     1      -0.009   2.252  -1.214  0.00  0.00    +0.220 C 
ATOM      7  O   UNL     1      -1.182   1.928  -1.266  0.00  0.00    -0.280 OA
ATOM      8  S   UNL     1       0.879   2.459   0.279  0.00  0.00    -0.065 S 
ENDROOT
BRANCH   1  11
ATOM      9  C   UNL     1       5.343   2.009   0.896  0.00  0.00    +0.043 C 
ATOM     10  C   UNL     1       4.623   3.307   0.649  0.00  0.00    -0.053 C 
ATOM     11  C   UNL     1       3.427   3.390   0.011  0.00  0.00    +0.001 C 
BRANCH  10  12
ATOM     12  C   UNL     1       5.242   4.550   1.123  0.00  0.00    -0.005 C 
ATOM     13  C   UNL     1       6.393   4.696   1.795  0.00  0.00    +0.009 C 
ENDBRANCH  10  12
ENDBRANCH   1  11
BRANCH   3  14
ATOM     14  O   UNL     1       3.169   2.862  -2.918  0.00  0.00    -0.509 OA
ATOM     15  H   UNL     1       2.804   3.104  -3.788  0.00  0.00    +0.292 HD
ENDBRANCH   3  14
TORSDOF 3
