REMARK  Name = 
REMARK  7 active torsions:
REMARK  status: ('A' for Active; 'I' for Inactive)
REMARK    1  A    between atoms: C_1  and  C_2
REMARK    2  A    between atoms: C_2  and  C_3
REMARK    3  A    between atoms: C_3  and  C_4
REMARK    4  A    between atoms: C_4  and  N_5
REMARK    5  A    between atoms: C_6  and  C_7
REMARK    6  A    between atoms: C_7  and  C_8
REMARK    7  A    between atoms: C_19  and  N_20
REMARK                            x       y       z     vdW  Elec       q    Type
REMARK                         _______ _______ _______ _____ _____    ______ ____
ROOT
ATOM      1  N   UNL     1       4.780  -2.608   1.061  0.00  0.00    -0.312 N 
ATOM      2  C   UNL     1       4.407  -3.817   0.538  0.00  0.00    +0.168 A 
ATOM      3  C   UNL     1       5.007  -4.763   1.341  0.00  0.00    +0.148 A 
ATOM      4  C   UNL     1       4.664  -6.100   1.075  0.00  0.00    +0.150 A 
ATOM      5  N   UNL     1       3.858  -6.370   0.022  0.00  0.00    -0.185 NA
ATOM      6  C   UNL     1       3.384  -5.341  -0.709  0.00  0.00    +0.313 A 
ATOM      7  F   UNL     1       2.612  -5.661  -1.760  0.00  0.00    -0.161 F 
ATOM      8  N   UNL     1       5.851  -4.149   2.252  0.00  0.00    -0.227 NA
ATOM      9  N   UNL     1       3.593  -4.028  -0.509  0.00  0.00    -0.182 NA
ATOM     10  C   UNL     1       5.751  -2.844   2.024  0.00  0.00    +0.116 A 
ENDROOT
BRANCH   4  11
ATOM     11  N   UNL     1       5.102  -7.176   1.832  0.00  0.00    -0.341 N 
ATOM     12  H   UNL     1       4.999  -8.059   1.351  0.00  0.00    +0.144 HD
ATOM     13  H   UNL     1       5.953  -7.004   2.353  0.00  0.00    +0.144 HD
ENDBRANCH   4  11
BRANCH   1  14
ATOM     14  C   UNL     1       4.229  -1.346   0.600  0.00  0.00    +0.125 C 
BRANCH  14  15
ATOM     15  C   UNL     1       2.723  -1.219   0.870  0.00  0.00    +0.021 C 
BRANCH  15  17
ATOM     16  C   UNL     1       0.701   0.272   0.565  0.00  0.00    +0.004 C 
ATOM     17  C   UNL     1       2.198   0.119   0.351  0.00  0.00    -0.002 C 
ENDBRANCH  15  17
ENDBRANCH  14  15
ENDBRANCH   1  14
BRANCH  10  18
ATOM     18  C   UNL     1       6.625  -1.748   2.580  0.00  0.00    +0.109 C 
BRANCH  18  19
ATOM     19  C   UNL     1       7.162  -1.846   3.996  0.00  0.00    -0.036 A 
ATOM     20  C   UNL     1       6.511  -2.565   5.022  0.00  0.00    +0.008 A 
ATOM     21  C   UNL     1       6.899  -2.422   6.362  0.00  0.00    +0.050 A 
ATOM     22  C   UNL     1       7.914  -1.537   6.654  0.00  0.00    +0.166 A 
ATOM     23  O   UNL     1       8.348  -1.198   7.898  0.00  0.00    -0.453 OA
ATOM     24  C   UNL     1       9.255  -0.124   7.577  0.00  0.00    +0.466 C 
ATOM     25  O   UNL     1       9.518  -0.006   6.163  0.00  0.00    -0.453 OA
ATOM     26  C   UNL     1       8.580  -0.858   5.665  0.00  0.00    +0.166 A 
ATOM     27  C   UNL     1       8.247  -1.006   4.337  0.00  0.00    +0.053 A 
ENDBRANCH  18  19
ENDBRANCH  10  18
TORSDOF 6
