REMARK  Name = 
REMARK  2 active torsions:
REMARK  status: ('A' for Active; 'I' for Inactive)
REMARK    1  A    between atoms: C_1  and  N_2
REMARK    2  A    between atoms: C_5  and  N_6
REMARK                            x       y       z     vdW  Elec       q    Type
REMARK                         _______ _______ _______ _____ _____    ______ ____
ROOT
ATOM      1  C   UNL     1       1.065  -0.077  -0.063  0.00  0.00    +0.152 C 
ATOM      2  N   UNL     1       2.512  -0.074  -0.054  0.00  0.00    -0.318 N 
ATOM      3  C   UNL     1       3.195   1.112  -0.043  0.00  0.00    +0.165 A 
ATOM      4  C   UNL     1       4.659   1.082   0.027  0.00  0.00    +0.147 A 
ATOM      5  N   UNL     1       5.115   2.371   0.019  0.00  0.00    -0.229 NA
ATOM      6  C   UNL     1       4.012   3.060  -0.038  0.00  0.00    +0.224 A 
ATOM      7  C   UNL     1       5.266  -0.122   0.091  0.00  0.00    +0.147 A 
ATOM      8  N   UNL     1       4.549  -1.314   0.044  0.00  0.00    -0.221 NA
ATOM      9  N   UNL     1       2.815   2.354  -0.082  0.00  0.00    -0.216 NA
ATOM     10  C   UNL     1       3.252  -1.235  -0.013  0.00  0.00    +0.202 A 
ENDROOT
BRANCH   7  11
ATOM     11  N   UNL     1       6.644  -0.194   0.185  0.00  0.00    -0.341 N 
ATOM     12  H   UNL     1       7.086   0.659  -0.150  0.00  0.00    +0.144 HD
ATOM     13  H   UNL     1       6.979  -1.041  -0.261  0.00  0.00    +0.144 HD
ENDBRANCH   7  11
TORSDOF 1
