REMARK  Name = 
REMARK  4 active torsions:
REMARK  status: ('A' for Active; 'I' for Inactive)
REMARK    1  A    between atoms: C_1  and  C_2
REMARK    2  A    between atoms: C_4  and  C_5
REMARK    3  A    between atoms: C_6  and  C_8
REMARK    4  A    between atoms: N_15  and  O_16
REMARK                            x       y       z     vdW  Elec       q    Type
REMARK                         _______ _______ _______ _____ _____    ______ ____
ROOT
ATOM      1  C   UNL     1       5.878  -2.117   0.024  0.00  0.00    +0.084 A 
ATOM      2  N   UNL     1       5.413  -3.369  -0.167  0.00  0.00    -0.214 NA
ATOM      3  C   UNL     1       6.279  -4.387  -0.044  0.00  0.00    +0.221 A 
ATOM      4  N   UNL     1       5.847  -5.685  -0.226  0.00  0.00    -0.272 N 
ATOM      5  H   UNL     1       6.505  -6.396   0.043  0.00  0.00    +0.156 HD
ATOM      6  C   UNL     1       4.717  -6.068  -0.868  0.00  0.00    +0.230 C 
ATOM      7  N   UNL     1       4.289  -7.276  -1.064  0.00  0.00    -0.080 NA
ATOM      8  N   UNL     1       7.570  -4.224   0.271  0.00  0.00    -0.223 NA
ATOM      9  C   UNL     1       8.010  -2.961   0.418  0.00  0.00    +0.116 A 
ATOM     10  C   UNL     1       7.201  -1.859   0.306  0.00  0.00    +0.049 A 
ENDROOT
BRANCH   1  14
ATOM     11  C   UNL     1       3.215   2.374  -0.855  0.00  0.00    +0.073 C 
ATOM     12  C   UNL     1       3.626   0.995  -0.478  0.00  0.00    +0.076 A 
ATOM     13  S   UNL     1       5.246   0.490  -0.702  0.00  0.00    -0.071 S 
ATOM     14  C   UNL     1       4.857  -1.067  -0.074  0.00  0.00    +0.060 A 
ATOM     15  C   UNL     1       3.505  -1.092   0.258  0.00  0.00    +0.055 A 
ATOM     16  C   UNL     1       2.736  -2.226   0.842  0.00  0.00    +0.067 C 
ATOM     17  N   UNL     1       2.819   0.095   0.032  0.00  0.00    -0.249 NA
ENDBRANCH   1  14
BRANCH   7  18
ATOM     18  O   UNL     1       5.159  -8.201  -0.467  0.00  0.00    -0.408 OA
ATOM     19  H   UNL     1       4.701  -9.046  -0.636  0.00  0.00    +0.328 HD
ENDBRANCH   7  18
TORSDOF 2
