REMARK  Name = 
REMARK  8 active torsions:
REMARK  status: ('A' for Active; 'I' for Inactive)
REMARK    1  A    between atoms: O_1  and  C_2
REMARK    2  A    between atoms: C_2  and  C_4
REMARK    3  A    between atoms: C_4  and  C_5
REMARK    4  A    between atoms: C_5  and  C_6
REMARK    5  A    between atoms: C_6  and  O_7
REMARK    6  A    between atoms: O_7  and  C_8
REMARK    7  A    between atoms: C_11  and  N_12
REMARK    8  A    between atoms: C_16  and  C_18
REMARK                            x       y       z     vdW  Elec       q    Type
REMARK                         _______ _______ _______ _____ _____    ______ ____
ROOT
ATOM      1  N   UNL     1      10.177  -1.695  -6.515  0.00  0.00    -0.268 N 
ATOM      2  H   UNL     1      10.230  -2.671  -6.815  0.00  0.00    +0.156 HD
ATOM      3  C   UNL     1      10.870  -0.809  -7.297  0.00  0.00    +0.310 C 
ATOM      4  N   UNL     1      11.514  -1.377  -8.385  0.00  0.00    -0.236 N 
ATOM      5  H   UNL     1      12.012  -0.697  -8.942  0.00  0.00    +0.159 HD
ATOM      6  C   UNL     1      11.497  -2.704  -8.765  0.00  0.00    +0.253 C 
ATOM      7  O   UNL     1      10.941  -3.575  -8.096  0.00  0.00    -0.270 OA
ATOM      8  O   UNL     1      10.953   0.404  -7.130  0.00  0.00    -0.252 OA
ENDROOT
BRANCH   6   9
ATOM      9  C   UNL     1      12.136  -3.118 -10.038  0.00  0.00    +0.055 A 
ATOM     10  C   UNL     1      13.236  -2.504 -10.649  0.00  0.00    +0.054 A 
ATOM     11 CL   UNL     1      14.008  -1.092 -10.024  0.00  0.00    -0.083 Cl
ATOM     12  C   UNL     1      13.787  -3.059 -11.814  0.00  0.00    +0.040 A 
ATOM     13  C   UNL     1      13.243  -4.218 -12.367  0.00  0.00    +0.042 A 
ATOM     14 CL   UNL     1      13.947  -4.912 -13.773  0.00  0.00    -0.083 Cl
ATOM     15  C   UNL     1      12.141  -4.828 -11.780  0.00  0.00    +0.021 A 
ATOM     16  C   UNL     1      11.593  -4.279 -10.623  0.00  0.00    +0.016 A 
ENDBRANCH   6   9
BRANCH   1  21
ATOM     17  C   UNL     1       7.780  -1.170  -3.075  0.00  0.00    +0.122 A 
ATOM     18  C   UNL     1       7.992  -2.434  -3.620  0.00  0.00    +0.067 A 
ATOM     19  C   UNL     1       8.793  -2.582  -4.752  0.00  0.00    +0.066 A 
ATOM     20 CL   UNL     1       9.004  -4.188  -5.369  0.00  0.00    -0.082 Cl
ATOM     21  C   UNL     1       9.401  -1.472  -5.364  0.00  0.00    +0.053 A 
ATOM     22  C   UNL     1       9.198  -0.210  -4.805  0.00  0.00    +0.028 A 
ATOM     23  C   UNL     1       8.391  -0.064  -3.668  0.00  0.00    +0.047 A 
BRANCH  17  24
ATOM     24  O   UNL     1       7.003  -0.902  -1.978  0.00  0.00    -0.492 OA
BRANCH  24  25
ATOM     25  C   UNL     1       6.334  -2.028  -1.411  0.00  0.00    +0.229 C 
BRANCH  25  26
ATOM     26  C   UNL     1       5.507  -1.586  -0.212  0.00  0.00    +0.052 C 
BRANCH  26  27
ATOM     27  C   UNL     1       4.802  -2.788   0.411  0.00  0.00    +0.124 C 
BRANCH  27  28
ATOM     28  C   UNL     1       3.976  -2.407   1.614  0.00  0.00    +0.305 C 
ATOM     29  O   UNL     1       3.862  -1.279   2.063  0.00  0.00    -0.251 OA
BRANCH  28  30
ATOM     30  O   UNL     1       3.354  -3.473   2.165  0.00  0.00    -0.481 OA
ATOM     31  H   UNL     1       3.530  -4.318   1.709  0.00  0.00    +0.295 HD
ENDBRANCH  28  30
ENDBRANCH  27  28
ENDBRANCH  26  27
ENDBRANCH  25  26
ENDBRANCH  24  25
ENDBRANCH  17  24
ENDBRANCH   1  21
TORSDOF 8
