REMARK  Name = 
REMARK  2 active torsions:
REMARK  status: ('A' for Active; 'I' for Inactive)
REMARK    1  A    between atoms: O_1  and  C_2
REMARK    2  A    between atoms: C_2  and  C_3
REMARK                            x       y       z     vdW  Elec       q    Type
REMARK                         _______ _______ _______ _____ _____    ______ ____
ROOT
ATOM      1  C   UNL     1       2.780  -1.049  -1.021  0.00  0.00    +0.016 A 
ATOM      2  C   UNL     1       2.346  -2.373  -0.917  0.00  0.00    +0.164 A 
ATOM      3  F   UNL     1       1.503  -2.721   0.068  0.00  0.00    -0.202 F 
ATOM      4  C   UNL     1       2.778  -3.338  -1.822  0.00  0.00    +0.159 A 
ATOM      5  F   UNL     1       2.343  -4.602  -1.715  0.00  0.00    -0.202 F 
ATOM      6  C   UNL     1       3.663  -3.008  -2.841  0.00  0.00    +0.041 A 
ATOM      7  C   UNL     1       4.124  -1.696  -2.949  0.00  0.00    +0.003 A 
ATOM      8  C   UNL     1       3.690  -0.725  -2.040  0.00  0.00    +0.009 A 
ENDROOT
BRANCH   1   9
ATOM      9  C   UNL     1       2.314  -0.035  -0.016  0.00  0.00    +0.194 C 
BRANCH   9  10
ATOM     10  O   UNL     1       2.271   1.263  -0.599  0.00  0.00    -0.390 OA
ATOM     11  H   UNL     1       1.823   1.839   0.043  0.00  0.00    +0.210 HD
ENDBRANCH   9  10
ENDBRANCH   1   9
TORSDOF 2
