REMARK  Name = 
REMARK  6 active torsions:
REMARK  status: ('A' for Active; 'I' for Inactive)
REMARK    1  A    between atoms: C_1  and  C_2
REMARK    2  A    between atoms: C_2  and  C_3
REMARK    3  A    between atoms: C_3  and  O_4
REMARK    4  A    between atoms: O_4  and  C_5
REMARK    5  A    between atoms: C_14  and  O_16
REMARK    6  A    between atoms: O_16  and  C_17
REMARK                            x       y       z     vdW  Elec       q    Type
REMARK                         _______ _______ _______ _____ _____    ______ ____
ROOT
ATOM      1  C   UNL     1       5.111   0.506  -2.615  0.00  0.00    +0.123 A 
ATOM      2  C   UNL     1       5.266   1.798  -3.137  0.00  0.00    +0.048 A 
ATOM      3  C   UNL     1       5.938   2.020  -4.338  0.00  0.00    +0.033 A 
ATOM      4  C   UNL     1       6.455   0.923  -5.025  0.00  0.00    +0.091 A 
ATOM      5  N   UNL     1       7.143   0.904  -6.199  0.00  0.00    -0.214 NA
ATOM      6  C   UNL     1       7.423  -0.352  -6.439  0.00  0.00    +0.203 A 
ATOM      7  N   UNL     1       6.918  -1.158  -5.442  0.00  0.00    -0.326 N 
ATOM      8  H   UNL     1       6.998  -2.162  -5.396  0.00  0.00    +0.169 HD
ATOM      9  N   UNL     1       8.116  -0.844  -7.511  0.00  0.00    -0.221 N 
ATOM     10  H   UNL     1       8.292  -1.827  -7.628  0.00  0.00    +0.161 HD
ATOM     11  C   UNL     1       8.610  -0.008  -8.480  0.00  0.00    +0.406 C 
ATOM     12  O   UNL     1       8.528   1.209  -8.556  0.00  0.00    -0.226 OA
ATOM     13  C   UNL     1       6.293  -0.358  -4.512  0.00  0.00    +0.071 A 
ATOM     14  C   UNL     1       5.622  -0.607  -3.304  0.00  0.00    +0.073 A 
ENDROOT
BRANCH  11  15
ATOM     15  O   UNL     1       9.252  -0.764  -9.416  0.00  0.00    -0.453 OA
ATOM     16  C   UNL     1       9.809   0.018 -10.478  0.00  0.00    +0.282 C 
ENDBRANCH  11  15
BRANCH   1  17
ATOM     17  O   UNL     1       4.474   0.227  -1.424  0.00  0.00    -0.492 OA
BRANCH  17  18
ATOM     18  C   UNL     1       3.954   1.372  -0.740  0.00  0.00    +0.229 C 
BRANCH  18  20
ATOM     19  C   UNL     1       2.782   2.202   1.302  0.00  0.00    +0.007 C 
ATOM     20  C   UNL     1       3.339   0.975   0.595  0.00  0.00    +0.038 C 
ENDBRANCH  18  20
ENDBRANCH  17  18
ENDBRANCH   1  17
TORSDOF 4
