REMARK  Name = 
REMARK  11 active torsions:
REMARK  status: ('A' for Active; 'I' for Inactive)
REMARK    1  A    between atoms: O_1  and  C_2
REMARK    2  A    between atoms: C_2  and  C_3
REMARK    3  A    between atoms: C_3  and  O_5
REMARK    4  A    between atoms: C_3  and  C_6
REMARK    5  A    between atoms: C_6  and  O_8
REMARK    6  A    between atoms: C_6  and  C_9
REMARK    7  A    between atoms: C_9  and  O_11
REMARK    8  A    between atoms: C_9  and  C_12
REMARK    9  A    between atoms: C_12  and  N_13
REMARK   10  A    between atoms: N_13  and  C_14
REMARK   11  A    between atoms: C_15  and  N_22
REMARK                            x       y       z     vdW  Elec       q    Type
REMARK                         _______ _______ _______ _____ _____    ______ ____
ROOT
ATOM      1  N   UNL     1       7.109  -4.128   0.770  0.00  0.00    -0.322 N 
ATOM      2  H   UNL     1       6.466  -4.876   0.502  0.00  0.00    +0.148 HD
ENDROOT
BRANCH   1   3
ATOM      3  C   UNL     1       8.422  -4.405   0.381  0.00  0.00    +0.185 A 
ATOM      4  N   UNL     1       8.679  -5.735   0.119  0.00  0.00    -0.291 N 
ATOM      5  H   UNL     1       7.935  -6.411   0.242  0.00  0.00    +0.172 HD
ATOM      6  C   UNL     1       9.873  -6.260  -0.290  0.00  0.00    +0.328 A 
ATOM      7  O   UNL     1      10.015  -7.457  -0.509  0.00  0.00    -0.247 OA
ATOM      8  N   UNL     1      10.893  -5.371  -0.451  0.00  0.00    -0.269 N 
ATOM      9  H   UNL     1      11.780  -5.733  -0.771  0.00  0.00    +0.174 HD
ATOM     10  C   UNL     1      10.788  -4.020  -0.254  0.00  0.00    +0.333 A 
ATOM     11  O   UNL     1      11.738  -3.273  -0.461  0.00  0.00    -0.260 OA
ATOM     12  C   UNL     1       9.471  -3.565   0.210  0.00  0.00    +0.374 A 
BRANCH  12  13
ATOM     13  N   UNL     1       9.356  -2.167   0.465  0.00  0.00    +0.089 N 
ATOM     14  O   UNL     1       9.548  -1.785   1.627  0.00  0.00    +0.042 OA
ATOM     15  O   UNL     1       9.034  -1.439  -0.486  0.00  0.00    -0.576 OA
ENDBRANCH  12  13
ENDBRANCH   1   3
BRANCH   1  16
ATOM     16  C   UNL     1       6.452  -2.828   0.591  0.00  0.00    +0.137 C 
BRANCH  16  17
ATOM     17  C   UNL     1       4.914  -2.899   0.564  0.00  0.00    +0.162 C 
BRANCH  17  18
ATOM     18  O   UNL     1       4.524  -3.787  -0.494  0.00  0.00    -0.388 OA
ATOM     19  H   UNL     1       3.653  -3.464  -0.820  0.00  0.00    +0.210 HD
ENDBRANCH  17  18
BRANCH  17  20
ATOM     20  C   UNL     1       4.346  -1.462   0.378  0.00  0.00    +0.175 C 
BRANCH  20  21
ATOM     21  O   UNL     1       4.787  -0.868  -0.854  0.00  0.00    -0.387 OA
ATOM     22  H   UNL     1       5.757  -0.806  -0.872  0.00  0.00    +0.210 HD
ENDBRANCH  20  21
BRANCH  20  23
ATOM     23  C   UNL     1       2.806  -1.413   0.392  0.00  0.00    +0.171 C 
BRANCH  23  24
ATOM     24  O   UNL     1       2.268  -2.226  -0.666  0.00  0.00    -0.387 OA
ATOM     25  H   UNL     1       1.382  -1.848  -0.844  0.00  0.00    +0.210 HD
ENDBRANCH  23  24
BRANCH  23  26
ATOM     26  C   UNL     1       2.308   0.032   0.228  0.00  0.00    +0.189 C 
BRANCH  26  27
ATOM     27  O   UNL     1       0.880   0.031   0.259  0.00  0.00    -0.392 OA
ATOM     28  H   UNL     1       0.602   0.964   0.207  0.00  0.00    +0.210 HD
ENDBRANCH  26  27
ENDBRANCH  23  26
ENDBRANCH  20  23
ENDBRANCH  17  20
ENDBRANCH  16  17
ENDBRANCH   1  16
TORSDOF 11
