REMARK  Name = 
REMARK  18 active torsions:
REMARK  status: ('A' for Active; 'I' for Inactive)
REMARK    1  A    between atoms: C_1  and  C_2
REMARK    2  A    between atoms: C_5  and  O_7
REMARK    3  A    between atoms: O_7  and  C_8
REMARK    4  A    between atoms: C_10  and  O_12
REMARK    5  A    between atoms: C_13  and  O_15
REMARK    6  A    between atoms: C_16  and  C_18
REMARK    7  A    between atoms: C_18  and  O_19
REMARK    8  A    between atoms: C_21  and  O_23
REMARK    9  A    between atoms: O_23  and  C_24
REMARK   10  A    between atoms: C_26  and  O_28
REMARK   11  A    between atoms: C_29  and  N_31
REMARK   12  A    between atoms: C_32  and  C_33
REMARK   13  A    between atoms: C_35  and  O_37
REMARK   14  A    between atoms: C_39  and  C_41
REMARK   15  A    between atoms: C_41  and  O_42
REMARK   16  A    between atoms: C_43  and  O_45
REMARK   17  A    between atoms: C_46  and  O_48
REMARK   18  A    between atoms: C_49  and  O_51
REMARK                            x       y       z     vdW  Elec       q    Type
REMARK                         _______ _______ _______ _____ _____    ______ ____
ROOT
ATOM      1  C   UNL     1       1.048  -1.486  -3.184  0.00  0.00    +0.208 C 
ATOM      2  C   UNL     1      -0.418  -1.432  -2.669  0.00  0.00    +0.283 C 
ATOM      3  O   UNL     1      -0.835  -2.706  -2.099  0.00  0.00    -0.341 OA
ATOM      4  C   UNL     1      -0.534  -3.817  -3.002  0.00  0.00    +0.178 C 
ATOM      5  C   UNL     1       0.940  -4.146  -2.960  0.00  0.00    +0.177 C 
ATOM      6  C   UNL     1       1.659  -2.886  -3.476  0.00  0.00    +0.179 C 
ENDROOT
BRANCH   6   7
ATOM      7  O   UNL     1       3.074  -2.922  -3.306  0.00  0.00    -0.386 OA
ATOM      8  H   UNL     1       3.446  -2.349  -4.005  0.00  0.00    +0.210 HD
ENDBRANCH   6   7
BRANCH   5   9
ATOM      9  O   UNL     1       1.352  -4.640  -1.705  0.00  0.00    -0.386 OA
ATOM     10  H   UNL     1       1.336  -3.911  -1.070  0.00  0.00    +0.210 HD
ENDBRANCH   5   9
BRANCH   2  11
ATOM     11  O   UNL     1      -0.798  -0.159  -1.996  0.00  0.00    -0.340 OA
BRANCH  11  12
ATOM     12  C   UNL     1      -2.232   0.225  -2.189  0.00  0.00    +0.183 C 
ATOM     13  C   UNL     1      -2.666   1.743  -1.845  0.00  0.00    +0.178 C 
ATOM     14  O   UNL     1      -2.873   2.048  -0.449  0.00  0.00    -0.341 OA
ATOM     15  C   UNL     1      -3.545   1.072   0.340  0.00  0.00    +0.270 C 
ATOM     16  C   UNL     1      -2.822  -0.280   0.181  0.00  0.00    +0.160 C 
ATOM     17  C   UNL     1      -3.045  -0.724  -1.295  0.00  0.00    +0.171 C 
BRANCH  16  18
ATOM     18  N   UNL     1      -1.363  -0.160   0.486  0.00  0.00    -0.305 N 
ATOM     19  H   UNL     1      -0.770   0.040  -0.309  0.00  0.00    +0.149 HD
ATOM     20  C   UNL     1      -0.740   0.280   1.635  0.00  0.00    +0.210 C 
ATOM     21  O   UNL     1       0.438   0.679   1.549  0.00  0.00    -0.276 OA
ATOM     22  C   UNL     1      -1.456   0.204   2.924  0.00  0.00    +0.109 C 
ENDBRANCH  16  18
BRANCH  17  23
ATOM     23  O   UNL     1      -4.435  -0.720  -1.653  0.00  0.00    -0.387 OA
ATOM     24  H   UNL     1      -4.513  -0.624  -2.622  0.00  0.00    +0.210 HD
ENDBRANCH  17  23
BRANCH  15  25
ATOM     25  O   UNL     1      -4.943   1.029   0.075  0.00  0.00    -0.365 OA
ATOM     26  H   UNL     1      -5.115   0.231  -0.470  0.00  0.00    +0.213 HD
ENDBRANCH  15  25
BRANCH  13  27
ATOM     27  C   UNL     1      -3.953   2.213  -2.602  0.00  0.00    +0.190 C 
BRANCH  27  28
ATOM     28  O   UNL     1      -4.326   3.554  -2.261  0.00  0.00    -0.392 OA
ATOM     29  H   UNL     1      -4.653   3.522  -1.340  0.00  0.00    +0.210 HD
ENDBRANCH  27  28
ENDBRANCH  13  27
ENDBRANCH  11  12
ENDBRANCH   2  11
BRANCH   4  30
ATOM     30  C   UNL     1      -1.424  -5.068  -2.974  0.00  0.00    +0.190 C 
BRANCH  30  31
ATOM     31  O   UNL     1      -2.747  -4.730  -3.411  0.00  0.00    -0.392 OA
ATOM     32  H   UNL     1      -3.214  -5.572  -3.576  0.00  0.00    +0.210 HD
ENDBRANCH  30  31
ENDBRANCH   4  30
BRANCH   1  33
ATOM     33  O   UNL     1       1.205  -0.661  -4.376  0.00  0.00    -0.338 OA
BRANCH  33  39
ATOM     34  C   UNL     1      -3.281  -1.404  -5.685  0.00  0.00    +0.041 C 
ATOM     35  C   UNL     1      -1.819  -1.830  -5.620  0.00  0.00    +0.149 C 
ATOM     36  C   UNL     1      -1.414  -2.984  -6.536  0.00  0.00    +0.174 C 
ATOM     37  C   UNL     1       0.102  -3.206  -6.616  0.00  0.00    +0.179 C 
ATOM     38  C   UNL     1       0.943  -1.917  -6.634  0.00  0.00    +0.201 C 
ATOM     39  C   UNL     1       0.455  -0.845  -5.615  0.00  0.00    +0.282 C 
ATOM     40  O   UNL     1      -0.969  -0.675  -5.596  0.00  0.00    -0.343 OA
BRANCH  36  41
ATOM     41  O   UNL     1      -1.984  -2.847  -7.828  0.00  0.00    -0.387 OA
ATOM     42  H   UNL     1      -1.775  -3.691  -8.276  0.00  0.00    +0.210 HD
ENDBRANCH  36  41
BRANCH  38  43
ATOM     43  O   UNL     1       2.339  -2.244  -6.481  0.00  0.00    -0.384 OA
ATOM     44  H   UNL     1       2.823  -1.411  -6.324  0.00  0.00    +0.210 HD
ENDBRANCH  38  43
BRANCH  37  45
ATOM     45  O   UNL     1       0.418  -4.047  -7.738  0.00  0.00    -0.386 OA
ATOM     46  H   UNL     1       1.384  -4.195  -7.693  0.00  0.00    +0.210 HD
ENDBRANCH  37  45
ENDBRANCH  33  39
ENDBRANCH   1  33
TORSDOF 16
