REMARK  Name = 
REMARK  5 active torsions:
REMARK  status: ('A' for Active; 'I' for Inactive)
REMARK    1  A    between atoms: C_1  and  C_2
REMARK    2  A    between atoms: N_4  and  C_5
REMARK    3  A    between atoms: C_5  and  C_6
REMARK    4  A    between atoms: C_6  and  C_7
REMARK    5  A    between atoms: C_13  and  O_14
REMARK                            x       y       z     vdW  Elec       q    Type
REMARK                         _______ _______ _______ _____ _____    ______ ____
ROOT
ATOM      1  C   UNL     1       6.820   1.855  -1.959  0.00  0.00    -0.021 A 
ATOM      2  C   UNL     1       7.661   2.682  -1.137  0.00  0.00    +0.006 A 
ATOM      3  C   UNL     1       7.417   3.664  -0.152  0.00  0.00    +0.055 A 
ATOM      4  C   UNL     1       8.507   4.286   0.465  0.00  0.00    +0.118 A 
ATOM      5  C   UNL     1       9.815   3.963   0.132  0.00  0.00    +0.047 A 
ATOM      6  C   UNL     1      10.082   2.999  -0.842  0.00  0.00    +0.030 A 
ATOM      7  C   UNL     1       8.987   2.380  -1.457  0.00  0.00    +0.047 A 
ATOM      8  N   UNL     1       8.959   1.424  -2.441  0.00  0.00    -0.360 N 
ATOM      9  H   UNL     1       9.779   1.021  -2.873  0.00  0.00    +0.165 HD
ATOM     10  C   UNL     1       7.668   1.111  -2.760  0.00  0.00    +0.087 A 
ENDROOT
BRANCH   4  11
ATOM     11  O   UNL     1       8.323   5.241   1.424  0.00  0.00    -0.507 OA
ATOM     12  H   UNL     1       7.370   5.381   1.541  0.00  0.00    +0.292 HD
ENDBRANCH   4  11
BRANCH   1  13
ATOM     13  C   UNL     1       5.318   1.825  -1.975  0.00  0.00    +0.056 C 
BRANCH  13  14
ATOM     14  C   UNL     1       4.741   0.439  -2.285  0.00  0.00    +0.109 C 
BRANCH  14  17
ATOM     15  C   UNL     1       1.090   0.573  -3.266  0.00  0.00    +0.109 C 
ATOM     16  C   UNL     1       2.578   0.697  -3.445  0.00  0.00    +0.210 C 
ATOM     17  N   UNL     1       3.291   0.421  -2.299  0.00  0.00    -0.315 N 
ATOM     18  H   UNL     1       2.797   0.212  -1.442  0.00  0.00    +0.149 HD
ATOM     19  O   UNL     1       3.091   1.005  -4.514  0.00  0.00    -0.276 OA
ENDBRANCH  14  17
ENDBRANCH  13  14
ENDBRANCH   1  13
TORSDOF 4
