REMARK  Name = 
REMARK  5 active torsions:
REMARK  status: ('A' for Active; 'I' for Inactive)
REMARK    1  A    between atoms: C_1  and  C_2
REMARK    2  A    between atoms: C_5  and  O_7
REMARK    3  A    between atoms: C_8  and  O_10
REMARK    4  A    between atoms: C_11  and  O_13
REMARK    5  A    between atoms: C_14  and  O_16
REMARK                            x       y       z     vdW  Elec       q    Type
REMARK                         _______ _______ _______ _____ _____    ______ ____
ROOT
ATOM      1  C   UNL     1       3.065   0.289   1.370  0.00  0.00    +0.041 C 
ATOM      2  C   UNL     1       2.521   0.044  -0.033  0.00  0.00    +0.149 C 
ATOM      3  C   UNL     1       2.900   1.178  -1.002  0.00  0.00    +0.174 C 
ATOM      4  C   UNL     1       2.458   0.816  -2.427  0.00  0.00    +0.179 C 
ATOM      5  C   UNL     1       2.900  -0.582  -2.827  0.00  0.00    +0.201 C 
ATOM      6  C   UNL     1       2.476  -1.578  -1.743  0.00  0.00    +0.279 C 
ATOM      7  O   UNL     1       3.018  -1.222  -0.482  0.00  0.00    -0.343 OA
ENDROOT
BRANCH   3   8
ATOM      8  O   UNL     1       2.241   2.385  -0.597  0.00  0.00    -0.387 OA
ATOM      9  H   UNL     1       2.148   2.930  -1.405  0.00  0.00    +0.210 HD
ENDBRANCH   3   8
BRANCH   4  10
ATOM     10  O   UNL     1       2.964   1.787  -3.363  0.00  0.00    -0.386 OA
ATOM     11  H   UNL     1       2.839   1.383  -4.244  0.00  0.00    +0.210 HD
ENDBRANCH   4  10
BRANCH   5  12
ATOM     12  O   UNL     1       2.295  -0.889  -4.094  0.00  0.00    -0.384 OA
ATOM     13  H   UNL     1       2.333  -1.861  -4.172  0.00  0.00    +0.210 HD
ENDBRANCH   5  12
BRANCH   6  14
ATOM     14  O   UNL     1       2.969  -2.860  -2.098  0.00  0.00    -0.365 OA
ATOM     15  H   UNL     1       2.814  -3.399  -1.303  0.00  0.00    +0.213 HD
ENDBRANCH   6  14
TORSDOF 4
