REMARK  Name = 
REMARK  15 active torsions:
REMARK  status: ('A' for Active; 'I' for Inactive)
REMARK    1  A    between atoms: C_1  and  C_2
REMARK    2  A    between atoms: C_2  and  C_3
REMARK    3  A    between atoms: C_3  and  C_4
REMARK    4  A    between atoms: C_4  and  C_5
REMARK    5  A    between atoms: C_5  and  C_6
REMARK    6  A    between atoms: C_6  and  C_7
REMARK    7  A    between atoms: C_7  and  C_8
REMARK    8  A    between atoms: C_8  and  C_9
REMARK    9  A    between atoms: C_9  and  C_10
REMARK   10  A    between atoms: C_10  and  C_11
REMARK   11  A    between atoms: C_11  and  C_12
REMARK   12  A    between atoms: C_12  and  C_13
REMARK   13  A    between atoms: C_13  and  C_15
REMARK   14  A    between atoms: C_15  and  C_16
REMARK   15  A    between atoms: C_16  and  O_17
REMARK                            x       y       z     vdW  Elec       q    Type
REMARK                         _______ _______ _______ _____ _____    ______ ____
ROOT
ATOM      1  C   UNL     1      10.711  -4.687  -3.295  0.00  0.00    +0.000 C 
ENDROOT
BRANCH   1   2
ATOM      2  C   UNL     1       9.185  -4.665  -3.282  0.00  0.00    +0.000 C 
BRANCH   2   3
ATOM      3  C   UNL     1       8.653  -3.512  -2.443  0.00  0.00    +0.000 C 
BRANCH   3   4
ATOM      4  C   UNL     1       7.127  -3.511  -2.442  0.00  0.00    +0.000 C 
BRANCH   4   5
ATOM      5  C   UNL     1       6.591  -2.356  -1.604  0.00  0.00    -0.000 C 
BRANCH   5   6
ATOM      6  C   UNL     1       5.066  -2.348  -1.600  0.00  0.00    -0.000 C 
BRANCH   6   7
ATOM      7  C   UNL     1       4.535  -1.189  -0.761  0.00  0.00    -0.000 C 
BRANCH   7   8
ATOM      8  C   UNL     1       3.010  -1.176  -0.752  0.00  0.00    -0.000 C 
BRANCH   8  10
ATOM      9  C   UNL     1       0.956  -0.003   0.096  0.00  0.00    +0.004 C 
ATOM     10  C   UNL     1       2.475  -0.016   0.085  0.00  0.00    -0.003 C 
ENDBRANCH   8  10
ENDBRANCH   7   8
ENDBRANCH   6   7
ENDBRANCH   5   6
ENDBRANCH   4   5
ENDBRANCH   3   4
ENDBRANCH   2   3
ENDBRANCH   1   2
BRANCH   1  11
ATOM     11  C   UNL     1      11.197  -5.854  -4.145  0.00  0.00    +0.007 C 
BRANCH  11  12
ATOM     12  C   UNL     1      12.718  -5.938  -4.204  0.00  0.00    +0.075 C 
BRANCH  12  13
ATOM     13  C   UNL     1      13.153  -7.114  -5.059  0.00  0.00    +0.144 C 
ATOM     14  O   UNL     1      12.343  -7.865  -5.607  0.00  0.00    -0.297 OA
BRANCH  13  15
ATOM     15  C   UNL     1      14.631  -7.325  -5.213  0.00  0.00    +0.194 C 
BRANCH  15  16
ATOM     16  C   UNL     1      15.078  -8.489  -6.058  0.00  0.00    +0.312 C 
ATOM     17  O   UNL     1      16.268  -8.729  -6.230  0.00  0.00    -0.251 OA
BRANCH  16  18
ATOM     18  O   UNL     1      14.123  -9.255  -6.616  0.00  0.00    -0.480 OA
ATOM     19  H   UNL     1      13.198  -8.971  -6.411  0.00  0.00    +0.295 HD
ENDBRANCH  16  18
ENDBRANCH  15  16
ENDBRANCH  13  15
ENDBRANCH  12  13
ENDBRANCH  11  12
ENDBRANCH   1  11
TORSDOF 14
