REMARK  Name = 
REMARK  7 active torsions:
REMARK  status: ('A' for Active; 'I' for Inactive)
REMARK    1  A    between atoms: O_1  and  C_2
REMARK    2  A    between atoms: C_6  and  C_19
REMARK    3  A    between atoms: N_8  and  C_13
REMARK    4  A    between atoms: C_22  and  O_23
REMARK    5  A    between atoms: O_23  and  C_24
REMARK    6  A    between atoms: C_24  and  C_25
REMARK    7  A    between atoms: C_25  and  N_26
REMARK                            x       y       z     vdW  Elec       q    Type
REMARK                         _______ _______ _______ _____ _____    ______ ____
ROOT
ATOM      1  C   UNL     1       2.409   0.123   0.276  0.00  0.00    +0.117 A 
ATOM      2  C   UNL     1       3.105   1.318   0.142  0.00  0.00    +0.049 A 
ATOM      3  C   UNL     1       4.510   1.323   0.115  0.00  0.00    -0.037 A 
ATOM      4  C   UNL     1       5.221   0.107   0.200  0.00  0.00    -0.019 A 
ATOM      5  C   UNL     1       6.771   0.043   0.037  0.00  0.00    +0.134 C 
ATOM      6  N   UNL     1       7.327   1.376  -0.382  0.00  0.00    -0.318 N 
ATOM      7  C   UNL     1       6.708   2.500   0.335  0.00  0.00    +0.111 C 
ATOM      8  C   UNL     1       4.482  -1.084   0.385  0.00  0.00    +0.009 A 
ATOM      9  C   UNL     1       5.242   2.628  -0.074  0.00  0.00    +0.054 C 
ATOM     10  C   UNL     1       3.086  -1.081   0.404  0.00  0.00    +0.046 A 
ENDROOT
BRANCH   5  11
ATOM     11  C   UNL     1       7.124  -1.114  -0.887  0.00  0.00    -0.022 A 
ATOM     12  C   UNL     1       7.945  -2.186  -0.484  0.00  0.00    +0.009 A 
ATOM     13  C   UNL     1       8.267  -3.221  -1.379  0.00  0.00    +0.046 A 
ATOM     14  C   UNL     1       7.749  -3.200  -2.678  0.00  0.00    +0.121 A 
ATOM     15  C   UNL     1       6.902  -2.149  -3.057  0.00  0.00    +0.046 A 
ATOM     16  C   UNL     1       6.604  -1.117  -2.187  0.00  0.00    +0.009 A 
BRANCH  14  17
ATOM     17  O   UNL     1       8.113  -4.239  -3.520  0.00  0.00    -0.491 OA
BRANCH  17  18
ATOM     18  C   UNL     1       7.574  -4.058  -4.833  0.00  0.00    +0.244 C 
BRANCH  18  19
ATOM     19  C   UNL     1       7.953  -5.120  -5.866  0.00  0.00    +0.125 C 
BRANCH  19  20
ATOM     20  N   UNL     1       7.176  -4.896  -7.109  0.00  0.00    -0.299 NA
ATOM     21  C   UNL     1       7.274  -6.015  -8.049  0.00  0.00    +0.084 C 
ATOM     22  C   UNL     1       8.624  -6.090  -8.760  0.00  0.00    +0.015 C 
ATOM     23  C   UNL     1       8.977  -4.774  -9.446  0.00  0.00    +0.002 C 
ATOM     24  C   UNL     1       8.797  -3.580  -8.514  0.00  0.00    +0.015 C 
ATOM     25  C   UNL     1       7.448  -3.625  -7.799  0.00  0.00    +0.084 C 
ENDBRANCH  19  20
ENDBRANCH  18  19
ENDBRANCH  17  18
ENDBRANCH  14  17
ENDBRANCH   5  11
BRANCH   6  26
ATOM     26  C   UNL     1       8.257   1.632  -1.384  0.00  0.00    +0.030 A 
ATOM     27  C   UNL     1       9.286   0.739  -1.721  0.00  0.00    +0.023 A 
ATOM     28  C   UNL     1      10.140   0.932  -2.817  0.00  0.00    +0.002 A 
ATOM     29  C   UNL     1      10.049   2.088  -3.574  0.00  0.00    +0.000 A 
ATOM     30  C   UNL     1       9.109   3.046  -3.220  0.00  0.00    +0.002 A 
ATOM     31  C   UNL     1       8.227   2.813  -2.151  0.00  0.00    +0.023 A 
ENDBRANCH   6  26
BRANCH   1  32
ATOM     32  O   UNL     1       1.046   0.169   0.267  0.00  0.00    -0.507 OA
ATOM     33  H   UNL     1       0.707  -0.741   0.308  0.00  0.00    +0.292 HD
ENDBRANCH   1  32
TORSDOF 7
