REMARK  Name = 
REMARK  6 active torsions:
REMARK  status: ('A' for Active; 'I' for Inactive)
REMARK    1  A    between atoms: C_10  and  C_13
REMARK    2  A    between atoms: C_13  and  O_15
REMARK    3  A    between atoms: C_13  and  C_16
REMARK    4  A    between atoms: C_16  and  O_18
REMARK    5  A    between atoms: C_16  and  C_19
REMARK    6  A    between atoms: C_19  and  O_20
REMARK                            x       y       z     vdW  Elec       q    Type
REMARK                         _______ _______ _______ _____ _____    ______ ____
ROOT
ATOM      1  N   UNL     1      11.126  -3.390  -8.185  0.00  0.00    -0.329 N 
ATOM      2  H   UNL     1      11.670  -2.538  -8.119  0.00  0.00    +0.145 HD
ATOM      3  H   UNL     1      11.484  -3.991  -8.922  0.00  0.00    +0.145 HD
ATOM      4  C   UNL     1      10.999  -4.082  -7.027  0.00  0.00    +0.195 A 
ATOM      5  N   UNL     1      10.693  -3.317  -5.950  0.00  0.00    -0.311 N 
ATOM      6  H   UNL     1      10.350  -2.377  -6.086  0.00  0.00    +0.170 HD
ATOM      7  C   UNL     1      10.319  -3.881  -4.752  0.00  0.00    +0.160 A 
ATOM      8  N   UNL     1       9.852  -3.095  -3.706  0.00  0.00    -0.233 NA
ATOM      9  C   UNL     1       9.618  -3.679  -2.549  0.00  0.00    +0.069 C 
ATOM     10  C   UNL     1       9.839  -5.172  -2.258  0.00  0.00    +0.155 C 
ATOM     11  N   UNL     1      10.066  -5.909  -3.481  0.00  0.00    -0.331 N 
ATOM     12  H   UNL     1      10.477  -6.840  -3.424  0.00  0.00    +0.147 HD
ATOM     13  C   UNL     1      10.425  -5.224  -4.630  0.00  0.00    +0.137 A 
ATOM     14  C   UNL     1      11.013  -6.002  -5.796  0.00  0.00    +0.298 A 
ATOM     15  O   UNL     1      11.332  -7.176  -5.613  0.00  0.00    -0.264 OA
ATOM     16  N   UNL     1      11.157  -5.360  -7.003  0.00  0.00    -0.176 NA
ENDROOT
BRANCH   9  17
ATOM     17  C   UNL     1       9.266  -2.752  -1.361  0.00  0.00    +0.191 C 
BRANCH  17  18
ATOM     18  O   UNL     1       8.609  -1.573  -1.825  0.00  0.00    -0.383 OA
ATOM     19  H   UNL     1       9.116  -1.287  -2.611  0.00  0.00    +0.210 HD
ENDBRANCH  17  18
BRANCH  17  20
ATOM     20  C   UNL     1       8.454  -3.360  -0.212  0.00  0.00    +0.174 C 
BRANCH  20  21
ATOM     21  O   UNL     1       9.166  -4.444   0.400  0.00  0.00    -0.387 OA
ATOM     22  H   UNL     1       8.505  -4.939   0.928  0.00  0.00    +0.210 HD
ENDBRANCH  20  21
BRANCH  20  23
ATOM     23  C   UNL     1       7.035  -3.805  -0.579  0.00  0.00    +0.190 C 
BRANCH  23  24
ATOM     24  O   UNL     1       6.464  -4.456   0.566  0.00  0.00    -0.392 OA
ATOM     25  H   UNL     1       6.514  -3.838   1.317  0.00  0.00    +0.210 HD
ENDBRANCH  23  24
ENDBRANCH  20  23
ENDBRANCH  17  20
ENDBRANCH   9  17
TORSDOF 6
