REMARK  Name = 
REMARK  18 active torsions:
REMARK  status: ('A' for Active; 'I' for Inactive)
REMARK    1  A    between atoms: C_13  and  C_15
REMARK    2  A    between atoms: C_15  and  O_16
REMARK    3  A    between atoms: O_16  and  P_17
REMARK    4  A    between atoms: P_17  and  O_18
REMARK    5  A    between atoms: P_17  and  O_20
REMARK    6  A    between atoms: O_20  and  MG_21
REMARK    7  A    between atoms: MG_21  and  O_22
REMARK    8  A    between atoms: MG_21  and  O_23
REMARK    9  A    between atoms: MG_21  and  O_24
REMARK   10  A    between atoms: O_24  and  P_25
REMARK   11  A    between atoms: P_25  and  O_26
REMARK   12  A    between atoms: P_25  and  O_28
REMARK   13  A    between atoms: O_28  and  C_29
REMARK   14  A    between atoms: C_29  and  C_30
REMARK   15  A    between atoms: C_41  and  S_42
REMARK   16  A    between atoms: C_44  and  S_45
REMARK   17  A    between atoms: C_52  and  S_53
REMARK   18  A    between atoms: C_54  and  S_55
REMARK                            x       y       z     vdW  Elec       q    Type
REMARK                         _______ _______ _______ _____ _____    ______ ____
ROOT
ATOM      1 MG   UNL     1      -0.000  -0.000  -0.000  0.00  0.00    +0.000 Mg
ENDROOT
BRANCH   1   2
ATOM      2  O   UNL     1      -0.000  -0.000  -0.000  0.00  0.00    +0.000 OA
ATOM      3  H   UNL     1       0.000   0.000   0.000  0.00  0.00    +0.000 HD
ENDBRANCH   1   2
BRANCH   1   4
ATOM      4  O   UNL     1      -0.000  -0.000  -0.000  0.00  0.00    +0.000 OA
ATOM      5  H   UNL     1       0.000   0.000   0.000  0.00  0.00    +0.000 HD
ENDBRANCH   1   4
BRANCH   1   6
ATOM      6  O   UNL     1      -0.000  -0.000  -0.000  0.00  0.00    +0.000 OA
BRANCH   6   7
ATOM      7  P   UNL     1      -0.000  -0.000  -0.000  0.00  0.00    +0.000 P 
ATOM      8  O   UNL     1      -0.000  -0.000  -0.000  0.00  0.00    +0.000 OA
BRANCH   7   9
ATOM      9  O   UNL     1      -0.000  -0.000  -0.000  0.00  0.00    +0.000 OA
ATOM     10  H   UNL     1      -0.000  -0.000  -0.000  0.00  0.00    +0.000 HD
ENDBRANCH   7   9
BRANCH   7  11
ATOM     11  O   UNL     1      -0.000  -0.000  -0.000  0.00  0.00    +0.000 OA
BRANCH  11  12
ATOM     12  C   UNL     1      -0.000  -0.000  -0.000  0.00  0.00    +0.000 C 
BRANCH  12  13
ATOM     13  C   UNL     1      -0.000  -0.000  -0.000  0.00  0.00    +0.000 C 
ATOM     14  C   UNL     1      -0.000  -0.000  -0.000  0.00  0.00    +0.000 C 
ATOM     15  C   UNL     1      -0.000  -0.000  -0.000  0.00  0.00    +0.000 C 
ATOM     16  C   UNL     1      -0.000  -0.000  -0.000  0.00  0.00    +0.000 C 
ATOM     17  C   UNL     1      -0.000  -0.000  -0.000  0.00  0.00    +0.000 C 
ATOM     18  N   UNL     1      -0.000  -0.000  -0.000  0.00  0.00    +0.000 N 
ATOM     19  H   UNL     1      -0.000  -0.000  -0.000  0.00  0.00    +0.000 HD
ATOM     20  C   UNL     1      -0.000  -0.000  -0.000  0.00  0.00    +0.000 A 
ATOM     21  N   UNL     1      -0.000  -0.000  -0.000  0.00  0.00    +0.000 NA
ATOM     22  C   UNL     1      -0.000  -0.000  -0.000  0.00  0.00    +0.000 A 
ATOM     23  N   UNL     1      -0.000  -0.000  -0.000  0.00  0.00    +0.000 N 
ATOM     24  H   UNL     1      -0.000  -0.000  -0.000  0.00  0.00    +0.000 HD
ATOM     25  H   UNL     1      -0.000  -0.000  -0.000  0.00  0.00    +0.000 HD
ATOM     26  N   UNL     1      -0.000  -0.000  -0.000  0.00  0.00    +0.000 N 
ATOM     27  H   UNL     1      -0.000  -0.000  -0.000  0.00  0.00    +0.000 HD
ATOM     28  C   UNL     1      -0.000  -0.000  -0.000  0.00  0.00    +0.000 A 
ATOM     29  O   UNL     1      -0.000  -0.000  -0.000  0.00  0.00    +0.000 OA
ATOM     30  C   UNL     1      -0.000  -0.000  -0.000  0.00  0.00    +0.000 A 
ATOM     31  N   UNL     1      -0.000  -0.000  -0.000  0.00  0.00    +0.000 N 
ATOM     32  H   UNL     1      -0.000  -0.000  -0.000  0.00  0.00    +0.000 HD
ATOM     33  O   UNL     1      -0.000  -0.000  -0.000  0.00  0.00    +0.000 OA
BRANCH  15  34
ATOM     34  S   UNL     1      -0.000  -0.000  -0.000  0.00  0.00    +0.000 S 
ATOM     35  W   UNL     1      -0.000  -0.000  -0.000  0.00  0.00    +0.000 W 
ENDBRANCH  15  34
BRANCH  14  36
ATOM     36  S   UNL     1      -0.000  -0.000  -0.000  0.00  0.00    +0.000 S 
ATOM     37  H   UNL     1      -0.000  -0.000  -0.000  0.00  0.00    +0.000 HD
ENDBRANCH  14  36
ENDBRANCH  12  13
ENDBRANCH  11  12
ENDBRANCH   7  11
ENDBRANCH   6   7
ENDBRANCH   1   6
BRANCH   1  38
ATOM     38  O   UNL     1      -0.000  -0.000  -0.000  0.00  0.00    +0.000 OA
BRANCH  38  39
ATOM     39  P   UNL     1      -0.000  -0.000  -0.000  0.00  0.00    +0.000 P 
ATOM     40  O   UNL     1      -0.000  -0.000  -0.000  0.00  0.00    +0.000 OA
BRANCH  39  41
ATOM     41  O   UNL     1      -0.000  -0.000  -0.000  0.00  0.00    +0.000 OA
ATOM     42  H   UNL     1      -0.000  -0.000  -0.000  0.00  0.00    +0.000 HD
ENDBRANCH  39  41
BRANCH  39  43
ATOM     43  O   UNL     1      -0.000  -0.000  -0.000  0.00  0.00    +0.000 OA
BRANCH  43  44
ATOM     44  C   UNL     1      -0.000  -0.000  -0.000  0.00  0.00    +0.000 C 
BRANCH  44  59
ATOM     45  N   UNL     1      -0.000  -0.000  -0.000  0.00  0.00    +0.000 N 
ATOM     46  H   UNL     1      -0.000  -0.000  -0.000  0.00  0.00    +0.000 HD
ATOM     47  H   UNL     1      -0.000  -0.000  -0.000  0.00  0.00    +0.000 HD
ATOM     48  C   UNL     1      -0.000  -0.000  -0.000  0.00  0.00    +0.000 A 
ATOM     49  N   UNL     1      -0.000  -0.000  -0.000  0.00  0.00    +0.000 N 
ATOM     50  H   UNL     1      -0.000  -0.000  -0.000  0.00  0.00    +0.000 HD
ATOM     51  C   UNL     1      -0.000  -0.000  -0.000  0.00  0.00    +0.000 A 
ATOM     52  O   UNL     1      -0.000  -0.000  -0.000  0.00  0.00    +0.000 OA
ATOM     53  C   UNL     1      -0.000  -0.000  -0.000  0.00  0.00    +0.000 A 
ATOM     54  N   UNL     1      -0.000  -0.000  -0.000  0.00  0.00    +0.000 N 
ATOM     55  H   UNL     1      -0.000  -0.000  -0.000  0.00  0.00    +0.000 HD
ATOM     56  C   UNL     1      -0.000  -0.000  -0.000  0.00  0.00    +0.000 C 
ATOM     57  C   UNL     1      -0.000  -0.000  -0.000  0.00  0.00    +0.000 C 
ATOM     58  C   UNL     1      -0.000  -0.000  -0.000  0.00  0.00    +0.000 C 
ATOM     59  C   UNL     1      -0.000  -0.000  -0.000  0.00  0.00    +0.000 C 
ATOM     60  O   UNL     1      -0.000  -0.000  -0.000  0.00  0.00    +0.000 OA
ATOM     61  C   UNL     1      -0.000  -0.000  -0.000  0.00  0.00    +0.000 C 
ATOM     62  N   UNL     1      -0.000  -0.000  -0.000  0.00  0.00    +0.000 N 
ATOM     63  H   UNL     1      -0.000  -0.000  -0.000  0.00  0.00    +0.000 HD
ATOM     64  C   UNL     1      -0.000  -0.000  -0.000  0.00  0.00    +0.000 A 
ATOM     65  N   UNL     1      -0.000  -0.000  -0.000  0.00  0.00    +0.000 NA
BRANCH  57  66
ATOM     66  S   UNL     1      -0.000  -0.000  -0.000  0.00  0.00    +0.000 S 
ATOM     67  H   UNL     1      -0.000  -0.000  -0.000  0.00  0.00    +0.000 HD
ENDBRANCH  57  66
BRANCH  58  68
ATOM     68  S   UNL     1      -0.000  -0.000  -0.000  0.00  0.00    +0.000 S 
ATOM     69  H   UNL     1      -0.000  -0.000  -0.000  0.00  0.00    +0.000 HD
ENDBRANCH  58  68
ENDBRANCH  44  59
ENDBRANCH  43  44
ENDBRANCH  39  43
ENDBRANCH  38  39
ENDBRANCH   1  38
TORSDOF 18
