REMARK  Name = 
REMARK  23 active torsions:
REMARK  status: ('A' for Active; 'I' for Inactive)
REMARK    1  A    between atoms: C_1  and  O_2
REMARK    2  A    between atoms: O_2  and  C_3
REMARK    3  A    between atoms: C_3  and  C_5
REMARK    4  A    between atoms: C_6  and  O_7
REMARK    5  A    between atoms: C_11  and  O_12
REMARK    6  A    between atoms: O_12  and  C_13
REMARK    7  A    between atoms: C_13  and  C_14
REMARK    8  A    between atoms: C_14  and  C_15
REMARK    9  A    between atoms: C_15  and  C_16
REMARK   10  A    between atoms: C_16  and  N_17
REMARK   11  A    between atoms: C_18  and  C_20
REMARK   12  A    between atoms: C_20  and  C_22
REMARK   13  A    between atoms: C_20  and  N_44
REMARK   14  A    between atoms: C_22  and  C_23
REMARK   15  A    between atoms: C_26  and  N_29
REMARK   16  A    between atoms: N_29  and  C_35
REMARK   17  A    between atoms: C_30  and  C_32
REMARK   18  A    between atoms: C_32  and  O_33
REMARK   19  A    between atoms: C_40  and  C_41
REMARK   20  A    between atoms: C_41  and  O_42
REMARK   21  A    between atoms: C_45  and  O_47
REMARK   22  A    between atoms: O_47  and  C_48
REMARK   23  A    between atoms: C_48  and  C_49
REMARK                            x       y       z     vdW  Elec       q    Type
REMARK                         _______ _______ _______ _____ _____    ______ ____
ROOT
ATOM      1  C   UNL     1      -2.846  -5.238  -1.858  0.00  0.00    +0.166 C 
ENDROOT
BRANCH   1   4
ATOM      2  N   UNL     1      -1.013  -5.866  -0.294  0.00  0.00    -0.314 N 
ATOM      3  H   UNL     1      -1.729  -5.759   0.419  0.00  0.00    +0.149 HD
ATOM      4  C   UNL     1      -1.358  -5.594  -1.611  0.00  0.00    +0.234 C 
ATOM      5  O   UNL     1      -0.554  -5.717  -2.533  0.00  0.00    -0.274 OA
BRANCH   2   6
ATOM      6  C   UNL     1       0.384  -5.923   0.103  0.00  0.00    +0.104 C 
BRANCH   6   7
ATOM      7  C   UNL     1       0.671  -6.840   1.292  0.00  0.00    +0.022 C 
BRANCH   7   8
ATOM      8  C   UNL     1       0.316  -8.304   1.072  0.00  0.00    +0.042 C 
BRANCH   8   9
ATOM      9  C   UNL     1       0.926  -8.981  -0.156  0.00  0.00    +0.229 C 
BRANCH   9  10
ATOM     10  O   UNL     1       2.369  -9.046  -0.177  0.00  0.00    -0.491 OA
BRANCH  10  12
ATOM     11  C   UNL     1       4.176  -9.416  -1.800  0.00  0.00    +0.142 A 
ATOM     12  C   UNL     1       2.882  -9.695  -1.295  0.00  0.00    +0.138 A 
ATOM     13  C   UNL     1       2.106 -10.672  -1.967  0.00  0.00    +0.047 A 
ATOM     14  C   UNL     1       2.513 -11.264  -3.159  0.00  0.00    +0.007 A 
ATOM     15  C   UNL     1       3.729 -10.917  -3.706  0.00  0.00    +0.046 A 
ATOM     16  C   UNL     1       4.558 -10.028  -3.027  0.00  0.00    +0.134 A 
BRANCH  11  17
ATOM     17  C   UNL     1       5.222  -8.556  -1.165  0.00  0.00    +0.346 C 
ATOM     18  O   UNL     1       6.314  -8.398  -1.708  0.00  0.00    -0.245 OA
BRANCH  17  20
ATOM     19  C   UNL     1       5.993  -7.281   0.604  0.00  0.00    +0.280 C 
ATOM     20  O   UNL     1       4.903  -8.023   0.036  0.00  0.00    -0.464 OA
ENDBRANCH  17  20
ENDBRANCH  11  17
BRANCH  16  21
ATOM     21  O   UNL     1       5.759  -9.816  -3.665  0.00  0.00    -0.506 OA
ATOM     22  H   UNL     1       6.314  -9.225  -3.108  0.00  0.00    +0.292 HD
ENDBRANCH  16  21
ENDBRANCH  10  12
ENDBRANCH   9  10
ENDBRANCH   8   9
ENDBRANCH   7   8
ENDBRANCH   6   7
ENDBRANCH   2   6
ENDBRANCH   1   4
BRANCH   1  23
ATOM     23  N   UNL     1      -3.568  -6.465  -2.187  0.00  0.00    -0.269 N 
ATOM     24  H   UNL     1      -3.483  -6.855  -3.120  0.00  0.00    +0.153 HD
ATOM     25  C   UNL     1      -4.016  -7.330  -1.243  0.00  0.00    +0.401 C 
ATOM     26  O   UNL     1      -3.934  -7.131  -0.032  0.00  0.00    -0.226 OA
BRANCH  25  27
ATOM     27  O   UNL     1      -4.507  -8.440  -1.838  0.00  0.00    -0.446 OA
BRANCH  27  28
ATOM     28  C   UNL     1      -4.804  -9.554  -0.987  0.00  0.00    +0.261 C 
BRANCH  28  29
ATOM     29  C   UNL     1      -6.281  -9.816  -0.970  0.00  0.00    +0.006 C 
ATOM     30  C   UNL     1      -6.848 -10.981  -1.317  0.00  0.00    +0.007 C 
ENDBRANCH  28  29
ENDBRANCH  27  28
ENDBRANCH  25  27
ENDBRANCH   1  23
BRANCH   1  31
ATOM     31  C   UNL     1      -2.984  -4.235  -3.025  0.00  0.00    +0.067 C 
BRANCH  31  32
ATOM     32  C   UNL     1      -2.406  -2.870  -2.729  0.00  0.00    -0.045 A 
ATOM     33  C   UNL     1      -3.170  -1.900  -2.073  0.00  0.00    +0.005 A 
ATOM     34  C   UNL     1      -2.597  -0.677  -1.717  0.00  0.00    +0.024 A 
ATOM     35  C   UNL     1      -1.253  -0.400  -2.012  0.00  0.00    +0.042 A 
ATOM     36  C   UNL     1      -0.505  -1.345  -2.718  0.00  0.00    +0.024 A 
ATOM     37  C   UNL     1      -1.080  -2.569  -3.073  0.00  0.00    +0.005 A 
BRANCH  35  38
ATOM     38  N   UNL     1      -0.647   0.763  -1.457  0.00  0.00    -0.230 N 
ATOM     39  C   UNL     1       0.201   1.630  -2.158  0.00  0.00    +0.332 C 
ATOM     40  O   UNL     1       0.953   2.459  -1.646  0.00  0.00    -0.262 OA
BRANCH  38  41
ATOM     41  C   UNL     1      -0.681   0.848  -0.021  0.00  0.00    +0.056 A 
ATOM     42  C   UNL     1      -0.950   2.048   0.673  0.00  0.00    +0.081 A 
ATOM     43  C   UNL     1      -0.886   2.066   2.081  0.00  0.00    +0.017 A 
ATOM     44  C   UNL     1      -0.528   0.920   2.793  0.00  0.00    +0.001 A 
ATOM     45  C   UNL     1      -0.271  -0.266   2.117  0.00  0.00    +0.002 A 
ATOM     46  C   UNL     1      -0.358  -0.304   0.726  0.00  0.00    +0.025 A 
BRANCH  42  47
ATOM     47  C   UNL     1      -1.456   3.249  -0.054  0.00  0.00    +0.339 C 
ATOM     48  O   UNL     1      -2.090   3.188  -1.097  0.00  0.00    -0.245 OA
BRANCH  47  49
ATOM     49  O   UNL     1      -1.153   4.424   0.538  0.00  0.00    -0.477 OA
ATOM     50  H   UNL     1      -0.442   4.378   1.205  0.00  0.00    +0.295 HD
ENDBRANCH  47  49
ENDBRANCH  42  47
ENDBRANCH  38  41
BRANCH  39  51
ATOM     51  C   UNL     1       0.069   1.655  -3.687  0.00  0.00    +0.393 C 
ATOM     52  O   UNL     1       0.661   0.881  -4.417  0.00  0.00    -0.240 OA
BRANCH  51  53
ATOM     53  O   UNL     1      -0.707   2.672  -4.101  0.00  0.00    -0.474 OA
ATOM     54  H   UNL     1      -1.044   3.214  -3.351  0.00  0.00    +0.296 HD
ENDBRANCH  51  53
ENDBRANCH  39  51
ENDBRANCH  35  38
ENDBRANCH  31  32
ENDBRANCH   1  31
TORSDOF 22
