REMARK  Name = 
REMARK  13 active torsions:
REMARK  status: ('A' for Active; 'I' for Inactive)
REMARK    1  A    between atoms: C_1  and  C_2
REMARK    2  A    between atoms: N_4  and  C_5
REMARK    3  A    between atoms: C_5  and  C_7
REMARK    4  A    between atoms: C_5  and  C_19
REMARK    5  A    between atoms: C_7  and  C_8
REMARK    6  A    between atoms: C_11  and  O_12
REMARK    7  A    between atoms: O_12  and  P_13
REMARK    8  A    between atoms: P_13  and  O_14
REMARK    9  A    between atoms: P_13  and  O_15
REMARK   10  A    between atoms: N_21  and  C_22
REMARK   11  A    between atoms: N_28  and  C_29
REMARK   12  A    between atoms: C_29  and  C_30
REMARK   13  A    between atoms: C_33  and  C_36
REMARK                            x       y       z     vdW  Elec       q    Type
REMARK                         _______ _______ _______ _____ _____    ______ ____
ROOT
ATOM      1  C   UNL     1       8.457   0.912  -3.073  0.00  0.00    +0.234 C 
ATOM      2  N   UNL     1       8.263   2.270  -3.202  0.00  0.00    -0.302 N 
ATOM      3  H   UNL     1       9.026   2.742  -2.730  0.00  0.00    +0.150 HD
ATOM      4  O   UNL     1       9.550   0.635  -2.554  0.00  0.00    -0.274 OA
ENDROOT
BRANCH   2   5
ATOM      5  C   UNL     1       7.080   3.143  -3.383  0.00  0.00    +0.159 C 
ATOM      6  C   UNL     1       7.255   4.692  -2.948  0.00  0.00    +0.236 C 
ATOM      7  O   UNL     1       6.336   5.248  -2.334  0.00  0.00    -0.274 OA
ATOM      8  N   UNL     1       8.204   5.484  -3.607  0.00  0.00    -0.296 N 
ATOM      9  C   UNL     1       7.743   6.108  -4.853  0.00  0.00    +0.108 C 
ATOM     10  C   UNL     1       6.616   5.354  -5.606  0.00  0.00    +0.019 C 
ATOM     11  C   UNL     1       6.935   3.888  -5.890  0.00  0.00    +0.004 C 
ATOM     12  C   UNL     1       6.467   2.958  -4.782  0.00  0.00    +0.032 C 
BRANCH   8  13
ATOM     13  C   UNL     1       9.567   5.810  -3.042  0.00  0.00    +0.143 C 
BRANCH  13  14
ATOM     14  C   UNL     1      10.080   7.115  -2.364  0.00  0.00    -0.030 A 
ATOM     15  C   UNL     1      11.496   7.236  -2.171  0.00  0.00    +0.006 A 
ATOM     16  C   UNL     1      12.145   8.335  -1.518  0.00  0.00    +0.009 A 
ATOM     17  C   UNL     1      11.447   9.445  -1.015  0.00  0.00    -0.018 A 
ATOM     18  C   UNL     1      10.041   9.317  -1.146  0.00  0.00    +0.009 A 
ATOM     19  C   UNL     1       9.375   8.193  -1.797  0.00  0.00    +0.006 A 
BRANCH  17  20
ATOM     20  C   UNL     1      12.171  10.674  -0.460  0.00  0.00    -0.018 A 
ATOM     21  C   UNL     1      13.463  11.034  -0.928  0.00  0.00    +0.008 A 
ATOM     22  C   UNL     1      14.138  12.201  -0.508  0.00  0.00    +0.001 A 
ATOM     23  C   UNL     1      13.549  13.056   0.408  0.00  0.00    +0.000 A 
ATOM     24  C   UNL     1      12.299  12.733   0.927  0.00  0.00    +0.001 A 
ATOM     25  C   UNL     1      11.625  11.562   0.505  0.00  0.00    +0.008 A 
ENDBRANCH  17  20
ENDBRANCH  13  14
ENDBRANCH   8  13
ENDBRANCH   2   5
BRANCH   1  26
ATOM     26  C   UNL     1       7.563  -0.271  -3.661  0.00  0.00    +0.163 C 
BRANCH  26  29
ATOM     27  C   UNL     1      10.256  -2.218  -2.969  0.00  0.00    +0.109 C 
ATOM     28  C   UNL     1       8.812  -2.579  -2.903  0.00  0.00    +0.211 C 
ATOM     29  N   UNL     1       7.832  -1.682  -3.117  0.00  0.00    -0.304 N 
ATOM     30  H   UNL     1       6.979  -2.223  -3.028  0.00  0.00    +0.149 HD
ATOM     31  O   UNL     1       8.456  -3.725  -2.587  0.00  0.00    -0.276 OA
ENDBRANCH  26  29
BRANCH  26  32
ATOM     32  C   UNL     1       5.999  -0.091  -3.526  0.00  0.00    +0.067 C 
BRANCH  32  33
ATOM     33  C   UNL     1       5.505  -0.507  -2.142  0.00  0.00    -0.045 A 
ATOM     34  C   UNL     1       4.770  -1.700  -2.024  0.00  0.00    +0.007 A 
ATOM     35  C   UNL     1       5.031  -2.537  -0.949  0.00  0.00    +0.046 A 
ATOM     36  C   UNL     1       6.001  -2.134  -0.039  0.00  0.00    +0.132 A 
ATOM     37  C   UNL     1       6.478  -0.831   0.007  0.00  0.00    +0.046 A 
ATOM     38  C   UNL     1       6.175   0.022  -1.033  0.00  0.00    +0.007 A 
BRANCH  36  39
ATOM     39  O   UNL     1       6.745  -3.039   0.650  0.00  0.00    -0.404 OA
BRANCH  39  40
ATOM     40  P   UNL     1       5.920  -4.356   1.410  0.00  0.00    +0.528 P 
ATOM     41  O   UNL     1       5.182  -5.535   2.091  0.00  0.00    -0.216 OA
BRANCH  40  42
ATOM     42  O   UNL     1       6.416  -3.646   2.807  0.00  0.00    -0.293 OA
ATOM     43  H   UNL     1       5.943  -2.820   2.988  0.00  0.00    +0.223 HD
ENDBRANCH  40  42
BRANCH  40  44
ATOM     44  O   UNL     1       7.312  -5.177   1.123  0.00  0.00    -0.293 OA
ATOM     45  H   UNL     1       7.695  -4.930   0.262  0.00  0.00    +0.223 HD
ENDBRANCH  40  44
ENDBRANCH  39  40
ENDBRANCH  36  39
ENDBRANCH  32  33
ENDBRANCH  26  32
ENDBRANCH   1  26
TORSDOF 12
