REMARK  Name = 
REMARK  11 active torsions:
REMARK  status: ('A' for Active; 'I' for Inactive)
REMARK    1  A    between atoms: CA_2  and  C_3
REMARK    2  A    between atoms: CA_2  and  C_5
REMARK    3  A    between atoms: CA_2  and  N_7
REMARK    4  A    between atoms: C_3  and  C_4
REMARK    5  A    between atoms: C_5  and  O_6
REMARK    6  A    between atoms: N_14  and  C_15
REMARK    7  A    between atoms: C_15  and  C_16
REMARK    8  A    between atoms: C_15  and  C_17
REMARK    9  A    between atoms: N_19  and  C_20
REMARK   10  A    between atoms: C_20  and  C_21
REMARK   11  A    between atoms: C_26  and  O_27
REMARK                            x       y       z     vdW  Elec       q    Type
REMARK                         _______ _______ _______ _____ _____    ______ ____
ROOT
ATOM      1  N   UNL     1       2.761  -0.933   1.200  0.00  0.00    -0.308 N 
ATOM      2  H   UNL     1       2.437  -1.215   0.279  0.00  0.00    +0.149 HD
ATOM      3  C   UNL     1       4.133  -1.139   1.256  0.00  0.00    +0.219 A 
ATOM      4  N   UNL     1       4.509  -2.435   1.290  0.00  0.00    -0.197 NA
ATOM      5  C   UNL     1       5.808  -2.766   1.511  0.00  0.00    +0.152 A 
ATOM      6  N   UNL     1       6.209  -4.081   1.723  0.00  0.00    -0.323 N 
ATOM      7  H   UNL     1       7.219  -4.175   1.773  0.00  0.00    +0.148 HD
ATOM      8  C   UNL     1       6.740  -1.717   1.586  0.00  0.00    +0.148 A 
ATOM      9  N   UNL     1       8.108  -1.710   1.756  0.00  0.00    -0.231 NA
ATOM     10  C   UNL     1       8.434  -0.436   1.761  0.00  0.00    +0.201 A 
ATOM     11  N   UNL     1       7.338   0.378   1.611  0.00  0.00    -0.312 N 
ATOM     12  C   UNL     1       6.241  -0.433   1.484  0.00  0.00    +0.167 A 
ATOM     13  N   UNL     1       4.958  -0.077   1.333  0.00  0.00    -0.195 NA
ENDROOT
BRANCH  11  14
ATOM     14  C   UNL     1       7.342   1.835   1.631  0.00  0.00    +0.084 C 
ATOM     15  C   UNL     1       8.155   2.417   0.474  0.00  0.00    +0.030 C 
ATOM     16  C   UNL     1       7.838   2.372   2.974  0.00  0.00    +0.030 C 
ENDBRANCH  11  14
BRANCH   1  17
ATOM     17  CA  UNL     1       2.238   0.360   1.641  0.00  0.00    +0.098 C 
BRANCH  17  18
ATOM     18  C   UNL     1       2.400   0.513   3.170  0.00  0.00    +0.021 C 
ATOM     19  C   UNL     1       1.645  -0.520   4.002  0.00  0.00    +0.006 C 
ENDBRANCH  17  18
BRANCH  17  20
ATOM     20  C   UNL     1       0.753   0.471   1.226  0.00  0.00    +0.178 C 
BRANCH  20  21
ATOM     21  O   UNL     1       0.608   0.405  -0.196  0.00  0.00    -0.393 OA
ATOM     22  H   UNL     1       0.940   1.242  -0.562  0.00  0.00    +0.209 HD
ENDBRANCH  20  21
ENDBRANCH  17  20
ENDBRANCH   1  17
BRANCH   6  23
ATOM     23  C   UNL     1       5.505  -5.148   1.037  0.00  0.00    +0.142 C 
BRANCH  23  24
ATOM     24  C   UNL     1       6.061  -5.481  -0.335  0.00  0.00    +0.011 A 
ATOM     25  C   UNL     1       5.483  -6.534  -1.061  0.00  0.00    +0.122 A 
ATOM     26  C   UNL     1       5.938  -6.882  -2.334  0.00  0.00    +0.046 A 
ATOM     27  C   UNL     1       6.994  -6.177  -2.907  0.00  0.00    +0.004 A 
ATOM     28  C   UNL     1       7.594  -5.137  -2.203  0.00  0.00    +0.001 A 
ATOM     29  C   UNL     1       7.134  -4.793  -0.929  0.00  0.00    +0.009 A 
BRANCH  25  30
ATOM     30  O   UNL     1       4.452  -7.233  -0.495  0.00  0.00    -0.506 OA
ATOM     31  H   UNL     1       4.129  -7.887  -1.135  0.00  0.00    +0.292 HD
ENDBRANCH  25  30
ENDBRANCH  23  24
ENDBRANCH   6  23
TORSDOF 8
