REMARK  Name = 
REMARK  7 active torsions:
REMARK  status: ('A' for Active; 'I' for Inactive)
REMARK    1  A    between atoms: N_1  and  CA_2
REMARK    2  A    between atoms: CA_2  and  CB_4
REMARK    3  A    between atoms: CA_2  and  C_13
REMARK    4  A    between atoms: CB_4  and  CG_5
REMARK    5  A    between atoms: CG_5  and  CD_6
REMARK    6  A    between atoms: CD_6  and  NE_7
REMARK    7  A    between atoms: C_13  and  O_14
REMARK                            x       y       z     vdW  Elec       q    Type
REMARK                         _______ _______ _______ _____ _____    ______ ____
ROOT
ATOM      1  CG  ARG A   1       2.436  -0.689  -2.368  0.00  0.00    +0.039 C 
ENDROOT
BRANCH   1   2
ATOM      2  CB  ARG A   1       2.937   0.278  -1.289  0.00  0.00    +0.033 C 
BRANCH   2   3
ATOM      3  CA  ARG A   1       2.426  -0.036   0.124  0.00  0.00    +0.161 C 
BRANCH   3   4
ATOM      4  N   ARG A   1       2.906   1.020   1.067  0.00  0.00    -0.318 NA
ATOM      5  H1  ARG A   1       3.832   1.348   0.773  0.00  0.00    +0.119 HD
ATOM      6  H2  ARG A   1       2.303   1.842   0.967  0.00  0.00    +0.119 HD
ENDBRANCH   3   4
BRANCH   3   7
ATOM      7  C   ARG A   1       2.923  -1.402   0.642  0.00  0.00    +0.322 C 
ATOM      8  OXT ARG A   1       2.770  -2.470   0.070  0.00  0.00    -0.249 OA
BRANCH   7   9
ATOM      9  O   ARG A   1       3.556  -1.283   1.836  0.00  0.00    -0.480 OA
ATOM     10  H   ARG A   1       3.480  -0.330   2.094  0.00  0.00    +0.295 HD
ENDBRANCH   7   9
ENDBRANCH   3   7
ENDBRANCH   2   3
ENDBRANCH   1   2
BRANCH   1  11
ATOM     11  CD  ARG A   1       2.979  -0.318  -3.745  0.00  0.00    +0.196 C 
BRANCH  11  12
ATOM     12  NE  ARG A   1       2.552  -1.299  -4.755  0.00  0.00    -0.279 N 
ATOM     13  HE  ARG A   1       1.979  -2.080  -4.454  0.00  0.00    +0.258 HD
ATOM     14  CZ  ARG A   1       2.896  -1.249  -6.050  0.00  0.00    +0.341 C 
ATOM     15  NH2 ARG A   1       2.455  -2.192  -6.887  0.00  0.00    -0.292 N 
ATOM     16 HH21 ARG A   1       2.697  -2.181  -7.869  0.00  0.00    +0.255 HD
ATOM     17 HH22 ARG A   1       1.865  -2.952  -6.572  0.00  0.00    +0.255 HD
ATOM     18  NH1 ARG A   1       3.675  -0.279  -6.535  0.00  0.00    -0.292 N 
ATOM     19 HH11 ARG A   1       3.934  -0.244  -7.512  0.00  0.00    +0.255 HD
ATOM     20 HH12 ARG A   1       4.041   0.450  -5.938  0.00  0.00    +0.255 HD
ENDBRANCH  11  12
ENDBRANCH   1  11
TORSDOF 7
