REMARK  Name = 
REMARK  6 active torsions:
REMARK  status: ('A' for Active; 'I' for Inactive)
REMARK    1  A    between atoms: N_1  and  CA_2
REMARK    2  A    between atoms: CA_2  and  C_4
REMARK    3  A    between atoms: CA_2  and  C_14
REMARK    4  A    between atoms: C_4  and  C_5
REMARK    5  A    between atoms: C_9  and  O_10
REMARK    6  A    between atoms: C_14  and  O_15
REMARK                            x       y       z     vdW  Elec       q    Type
REMARK                         _______ _______ _______ _____ _____    ______ ____
ROOT
ATOM      1  C   UNL     1       2.495   1.311  -2.135  0.00  0.00    +0.005 C 
ATOM      2  C   UNL     1       3.399   0.579  -3.065  0.00  0.00    +0.186 C 
ATOM      3  O   UNL     1       4.410   0.018  -2.656  0.00  0.00    -0.287 OA
ATOM      4  C   UNL     1       3.007   0.469  -4.478  0.00  0.00    +0.100 C 
ATOM      5  C   UNL     1       1.889   1.037  -4.932  0.00  0.00    +0.167 C 
ATOM      6  C   UNL     1       1.016   1.832  -4.032  0.00  0.00    +0.221 C 
ATOM      7  O   UNL     1       0.015   2.381  -4.478  0.00  0.00    -0.284 OA
ATOM      8  C   UNL     1       1.393   1.912  -2.610  0.00  0.00    +0.062 C 
ENDROOT
BRANCH   5   9
ATOM      9  O   UNL     1       1.502   0.900  -6.252  0.00  0.00    -0.503 OA
ATOM     10  H   UNL     1       0.652   1.388  -6.324  0.00  0.00    +0.292 HD
ENDBRANCH   5   9
BRANCH   1  11
ATOM     11  C   UNL     1       2.880   1.332  -0.672  0.00  0.00    +0.069 C 
BRANCH  11  12
ATOM     12  CA  UNL     1       2.377   0.122   0.143  0.00  0.00    +0.165 C 
BRANCH  12  13
ATOM     13  N   UNL     1       2.863  -1.209  -0.337  0.00  0.00    -0.318 NA
ATOM     14  H1  UNL     1       2.982  -1.183  -1.356  0.00  0.00    +0.119 HD
ATOM     15  H2  UNL     1       3.839  -1.303  -0.030  0.00  0.00    +0.119 HD
ENDBRANCH  12  13
BRANCH  12  16
ATOM     16  C   UNL     1       0.840   0.109   0.180  0.00  0.00    +0.322 C 
ATOM     17  OXT UNL     1       0.133   1.071   0.431  0.00  0.00    -0.249 OA
BRANCH  16  18
ATOM     18  O   UNL     1       0.351  -1.120  -0.137  0.00  0.00    -0.480 OA
ATOM     19  H   UNL     1       1.144  -1.702  -0.259  0.00  0.00    +0.295 HD
ENDBRANCH  16  18
ENDBRANCH  12  16
ENDBRANCH  11  12
ENDBRANCH   1  11
TORSDOF 6
