REMARK  Name = 
REMARK  17 active torsions:
REMARK  status: ('A' for Active; 'I' for Inactive)
REMARK    1  A    between atoms: C_1  and  C_2
REMARK    2  A    between atoms: C_5  and  C_6
REMARK    3  A    between atoms: C_6  and  O_7
REMARK    4  A    between atoms: O_7  and  P_8
REMARK    5  A    between atoms: P_8  and  O_9
REMARK    6  A    between atoms: P_8  and  O_10
REMARK    7  A    between atoms: C_12  and  C_13
REMARK    8  A    between atoms: C_13  and  N_14
REMARK    9  A    between atoms: N_14  and  C_15
REMARK   10  A    between atoms: C_15  and  C_16
REMARK   11  A    between atoms: C_16  and  C_17
REMARK   12  A    between atoms: C_17  and  C_18
REMARK   13  A    between atoms: C_18  and  C_19
REMARK   14  A    between atoms: C_19  and  N_21
REMARK   15  A    between atoms: C_19  and  C_22
REMARK   16  A    between atoms: C_22  and  O_23
REMARK   17  A    between atoms: C_25  and  O_26
REMARK                            x       y       z     vdW  Elec       q    Type
REMARK                         _______ _______ _______ _____ _____    ______ ____
ROOT
ATOM      1  C   UNK     1       1.152   0.292   1.049  0.00  0.00    +0.069 C 
ATOM      2  C   UNK     1       2.555   0.204   0.529  0.00  0.00    +0.080 A 
ATOM      3  C   UNK     1       3.263  -0.998   0.565  0.00  0.00    +0.142 A 
ATOM      4  C   UNK     1       4.560  -1.075   0.020  0.00  0.00    +0.016 A 
ATOM      5  C   UNK     1       5.134   0.121  -0.461  0.00  0.00    +0.005 A 
ATOM      6  C   UNK     1       4.336   1.269  -0.466  0.00  0.00    +0.117 A 
ATOM      7  N   UNK     1       3.073   1.337   0.001  0.00  0.00    -0.256 NA
ENDROOT
BRANCH   3   8
ATOM      8  O   UNK     1       2.660  -2.088   1.136  0.00  0.00    -0.505 OA
ATOM      9  H   UNK     1       3.238  -2.863   0.962  0.00  0.00    +0.292 HD
ENDBRANCH   3   8
BRANCH   5  10
ATOM     10  C   UNK     1       6.541   0.213  -0.994  0.00  0.00    +0.209 C 
BRANCH  10  11
ATOM     11  O   UNK     1       7.050   1.503  -0.719  0.00  0.00    -0.282 OA
BRANCH  11  12
ATOM     12  P   UNK     1       8.513   1.855  -1.245  0.00  0.00    +0.473 P 
ATOM     13  O   UNK     1       9.526   0.767  -1.133  0.00  0.00    -0.228 OA
BRANCH  12  14
ATOM     14  O   UNK     1       8.212   2.379  -2.723  0.00  0.00    -0.303 OA
ATOM     15  H   UNK     1       8.242   1.676  -3.393  0.00  0.00    +0.222 HD
ENDBRANCH  12  14
BRANCH  12  16
ATOM     16  O   UNK     1       8.804   3.204  -0.447  0.00  0.00    -0.303 OA
ATOM     17  H   UNK     1       8.534   3.134   0.484  0.00  0.00    +0.222 HD
ENDBRANCH  12  16
ENDBRANCH  11  12
ENDBRANCH  10  11
ENDBRANCH   5  10
BRANCH   4  18
ATOM     18  C   UNK     1       5.349  -2.371   0.007  0.00  0.00    +0.120 C 
BRANCH  18  19
ATOM     19  N   UNK     1       4.480  -3.555  -0.101  0.00  0.00    -0.312 NA
ATOM     20  H   UNK     1       3.968  -3.491  -0.987  0.00  0.00    +0.122 HD
BRANCH  19  21
ATOM     21  C   UNK     1       5.279  -4.783  -0.118  0.00  0.00    +0.081 C 
BRANCH  21  22
ATOM     22  C   UNK     1       4.358  -5.997  -0.259  0.00  0.00    +0.015 C 
BRANCH  22  23
ATOM     23  C   UNK     1       5.174  -7.291  -0.274  0.00  0.00    +0.003 C 
BRANCH  23  24
ATOM     24  C   UNK     1       4.278  -8.526  -0.398  0.00  0.00    +0.030 C 
BRANCH  24  25
ATOM     25  C   UNK     1       5.067  -9.842  -0.427  0.00  0.00    +0.161 C 
BRANCH  25  26
ATOM     26  N   UNK     1       5.754 -10.094   0.871  0.00  0.00    -0.318 NA
ATOM     27  H   UNK     1       6.345 -10.926   0.754  0.00  0.00    +0.119 HD
ATOM     28  H   UNK     1       6.428  -9.341   1.029  0.00  0.00    +0.119 HD
ENDBRANCH  25  26
BRANCH  25  29
ATOM     29  C   UNK     1       4.093 -11.001  -0.683  0.00  0.00    +0.322 C 
ATOM     30  O   UNK     1       3.692 -11.352  -1.781  0.00  0.00    -0.249 OA
BRANCH  29  31
ATOM     31  O   UNK     1       3.704 -11.583   0.483  0.00  0.00    -0.480 OA
ATOM     32  H   UNK     1       4.196 -11.116   1.203  0.00  0.00    +0.295 HD
ENDBRANCH  29  31
ENDBRANCH  25  29
ENDBRANCH  24  25
ENDBRANCH  23  24
ENDBRANCH  22  23
ENDBRANCH  21  22
ENDBRANCH  19  21
ENDBRANCH  18  19
ENDBRANCH   4  18
TORSDOF 16
