REMARK  Name = 
REMARK  17 active torsions:
REMARK  status: ('A' for Active; 'I' for Inactive)
REMARK    1  A    between atoms: C_3  and  O_5
REMARK    2  A    between atoms: O_5  and  C_6
REMARK    3  A    between atoms: C_6  and  C_8
REMARK    4  A    between atoms: C_8  and  O_9
REMARK    5  A    between atoms: C_8  and  C_10
REMARK    6  A    between atoms: C_8  and  C_17
REMARK    7  A    between atoms: C_10  and  C_11
REMARK    8  A    between atoms: C_11  and  C_12
REMARK    9  A    between atoms: C_12  and  C_13
REMARK   10  A    between atoms: C_13  and  C_14
REMARK   11  A    between atoms: C_13  and  C_15
REMARK   12  A    between atoms: C_13  and  O_16
REMARK   13  A    between atoms: C_17  and  C_18
REMARK   14  A    between atoms: C_18  and  O_20
REMARK   15  A    between atoms: O_20  and  C_21
REMARK   16  A    between atoms: C_22  and  O_23
REMARK   17  A    between atoms: O_23  and  C_24
REMARK                            x       y       z     vdW  Elec       q    Type
REMARK                         _______ _______ _______ _____ _____    ______ ____
ROOT
ATOM      1  C   UNL     1      -0.000  -0.000  -0.000  0.00  0.00    +0.092 C 
ATOM      2  C   UNL     1      -0.000  -0.000  -0.000  0.00  0.00    -0.031 A 
ATOM      3  C   UNL     1      -0.000  -0.000  -0.000  0.00  0.00    -0.039 A 
ATOM      4  C   UNL     1      -0.000  -0.000  -0.000  0.00  0.00    +0.053 A 
ATOM      5  C   UNL     1      -0.000  -0.000   0.000  0.00  0.00    +0.167 A 
ATOM      6  O   UNL     1      -0.000  -0.000  -0.000  0.00  0.00    -0.453 OA
ATOM      7  C   UNL     1      -0.000  -0.000  -0.000  0.00  0.00    +0.466 C 
ATOM      8  O   UNL     1      -0.000  -0.000  -0.000  0.00  0.00    -0.453 OA
ATOM      9  C   UNL     1      -0.000  -0.000  -0.000  0.00  0.00    +0.167 A 
ATOM     10  C   UNL     1      -0.000  -0.000  -0.000  0.00  0.00    +0.051 C 
ATOM     11  C   UNL     1      -0.000  -0.000  -0.000  0.00  0.00    +0.090 C 
ATOM     12  N   UNL     1      -0.000  -0.000   0.000  0.00  0.00    -0.292 NA
ATOM     13  C   UNL     1      -0.000  -0.000   0.000  0.00  0.00    +0.085 C 
ATOM     14  C   UNL     1      -0.000  -0.000   0.000  0.00  0.00    +0.017 C 
ATOM     15  C   UNL     1      -0.000  -0.000  -0.000  0.00  0.00    +0.028 C 
ATOM     16  C   UNL     1      -0.000  -0.000  -0.000  0.00  0.00    +0.054 A 
ATOM     17  C   UNL     1      -0.000  -0.000  -0.000  0.00  0.00    +0.054 C 
ATOM     18  C   UNL     1      -0.000  -0.000  -0.000  0.00  0.00    +0.041 C 
ATOM     19  C   UNL     1      -0.000  -0.000  -0.000  0.00  0.00    +0.136 C 
ATOM     20  C   UNL     1      -0.000  -0.000  -0.000  0.00  0.00    +0.250 C 
ENDROOT
BRANCH  19  21
ATOM     21  O   UNL     1      -0.000  -0.000  -0.000  0.00  0.00    -0.496 OA
ATOM     22  C   UNL     1      -0.000  -0.000  -0.000  0.00  0.00    +0.276 C 
ENDBRANCH  19  21
BRANCH  20  23
ATOM     23  O   UNL     1      -0.000  -0.000  -0.000  0.00  0.00    -0.451 OA
BRANCH  23  24
ATOM     24  C   UNL     1      -0.000  -0.000  -0.000  0.00  0.00    +0.340 C 
ATOM     25  O   UNL     1      -0.000  -0.000  -0.000  0.00  0.00    -0.248 OA
BRANCH  24  26
ATOM     26  C   UNL     1      -0.000  -0.000  -0.000  0.00  0.00    +0.172 C 
BRANCH  26  27
ATOM     27  O   UNL     1      -0.000  -0.000  -0.000  0.00  0.00    -0.377 OA
ATOM     28  H   UNL     1      -0.000  -0.000  -0.000  0.00  0.00    +0.211 HD
ENDBRANCH  26  27
BRANCH  26  29
ATOM     29  C   UNL     1      -0.000  -0.000  -0.000  0.00  0.00    +0.166 C 
BRANCH  29  30
ATOM     30  C   UNL     1      -0.000  -0.000  -0.000  0.00  0.00    +0.310 C 
ATOM     31  O   UNL     1      -0.000  -0.000  -0.000  0.00  0.00    -0.251 OA
BRANCH  30  32
ATOM     32  O   UNL     1      -0.000  -0.000  -0.000  0.00  0.00    -0.468 OA
ATOM     33  C   UNL     1      -0.000  -0.000  -0.000  0.00  0.00    +0.280 C 
ENDBRANCH  30  32
ENDBRANCH  29  30
ENDBRANCH  26  29
BRANCH  26  34
ATOM     34  C   UNL     1      -0.000  -0.000  -0.000  0.00  0.00    +0.047 C 
BRANCH  34  35
ATOM     35  C   UNL     1      -0.000  -0.000  -0.000  0.00  0.00    +0.006 C 
BRANCH  35  36
ATOM     36  C   UNL     1      -0.000  -0.000  -0.000  0.00  0.00    +0.034 C 
BRANCH  36  37
ATOM     37  C   UNL     1      -0.000  -0.000  -0.000  0.00  0.00    +0.061 C 
ATOM     38  C   UNL     1      -0.000  -0.000  -0.000  0.00  0.00    +0.041 C 
ATOM     39  C   UNL     1      -0.000  -0.000  -0.000  0.00  0.00    +0.041 C 
BRANCH  37  40
ATOM     40  O   UNL     1      -0.000  -0.000  -0.000  0.00  0.00    -0.389 OA
ATOM     41  H   UNL     1      -0.000  -0.000  -0.000  0.00  0.00    +0.210 HD
ENDBRANCH  37  40
ENDBRANCH  36  37
ENDBRANCH  35  36
ENDBRANCH  34  35
ENDBRANCH  26  34
ENDBRANCH  24  26
ENDBRANCH  23  24
ENDBRANCH  20  23
TORSDOF 13
