REMARK  Name = 
REMARK  9 active torsions:
REMARK  status: ('A' for Active; 'I' for Inactive)
REMARK    1  A    between atoms: N_4  and  C_5
REMARK    2  A    between atoms: C_5  and  C_6
REMARK    3  A    between atoms: C_6  and  S_7
REMARK    4  A    between atoms: S_7  and  C_8
REMARK    5  A    between atoms: C_8  and  C_10
REMARK    6  A    between atoms: C_8  and  C_14
REMARK    7  A    between atoms: C_10  and  C_11
REMARK    8  A    between atoms: C_11  and  O_12
REMARK    9  A    between atoms: C_14  and  O_15
REMARK                            x       y       z     vdW  Elec       q    Type
REMARK                         _______ _______ _______ _____ _____    ______ ____
ROOT
ATOM      1  S   UNL     1       7.084  -0.351  -2.439  0.00  0.00    -0.142 S 
ENDROOT
BRANCH   1   2
ATOM      2  C   UNL     1       5.251  -0.429  -2.377  0.00  0.00    +0.107 C 
BRANCH   2   3
ATOM      3  C   UNL     1       4.643  -0.157  -0.997  0.00  0.00    +0.206 C 
BRANCH   3   8
ATOM      4  N   UNL     1       5.012   2.847   0.953  0.00  0.00    -0.289 N 
ATOM      5  H   UNL     1       5.944   3.068   0.627  0.00  0.00    +0.255 HD
ATOM      6  H   UNL     1       4.874   3.167   1.904  0.00  0.00    +0.255 HD
ATOM      7  C   UNL     1       4.628   1.578   0.720  0.00  0.00    +0.376 C 
ATOM      8  N   UNL     1       5.153   1.085  -0.423  0.00  0.00    -0.275 N 
ATOM      9  H   UNL     1       5.393   1.788  -1.112  0.00  0.00    +0.258 HD
ATOM     10  N   UNL     1       3.857   0.919   1.504  0.00  0.00    -0.130 NA
ATOM     11  H   UNL     1       3.572   1.512   2.285  0.00  0.00    +0.306 HD
ENDBRANCH   3   8
ENDBRANCH   2   3
ENDBRANCH   1   2
BRANCH   1  12
ATOM     12  C   UNL     1       7.531  -1.672  -1.228  0.00  0.00    +0.165 C 
BRANCH  12  13
ATOM     13  C   UNL     1       9.047  -1.733  -1.064  0.00  0.00    +0.318 C 
ATOM     14  O   UNL     1       9.640  -2.768  -0.782  0.00  0.00    -0.250 OA
BRANCH  13  15
ATOM     15  O   UNL     1       9.683  -0.551  -1.211  0.00  0.00    -0.480 OA
ATOM     16  H   UNL     1       9.065   0.139  -1.540  0.00  0.00    +0.295 HD
ENDBRANCH  13  15
ENDBRANCH  12  13
BRANCH  12  17
ATOM     17  C   UNL     1       6.996  -3.066  -1.547  0.00  0.00    +0.146 C 
BRANCH  17  18
ATOM     18  C   UNL     1       7.493  -3.623  -2.856  0.00  0.00    +0.306 C 
ATOM     19  O   UNL     1       6.863  -3.533  -3.900  0.00  0.00    -0.251 OA
BRANCH  18  20
ATOM     20  O   UNL     1       8.690  -4.238  -2.783  0.00  0.00    -0.481 OA
ATOM     21  H   UNL     1       9.157  -4.153  -1.917  0.00  0.00    +0.295 HD
ENDBRANCH  18  20
ENDBRANCH  17  18
ENDBRANCH  12  17
ENDBRANCH   1  12
TORSDOF 9
