REMARK  Name = 
REMARK  11 active torsions:
REMARK  status: ('A' for Active; 'I' for Inactive)
REMARK    1  A    between atoms: C_2  and  C_3
REMARK    2  A    between atoms: N_5  and  C_6
REMARK    3  A    between atoms: C_6  and  C_7
REMARK    4  A    between atoms: C_7  and  C_8
REMARK    5  A    between atoms: C_8  and  C_9
REMARK    6  A    between atoms: C_9  and  C_10
REMARK    7  A    between atoms: C_10  and  C_11
REMARK    8  A    between atoms: C_11  and  C_12
REMARK    9  A    between atoms: C_12  and  C_13
REMARK   10  A    between atoms: C_13  and  N_14
REMARK   11  A    between atoms: C_18  and  C_20
REMARK                            x       y       z     vdW  Elec       q    Type
REMARK                         _______ _______ _______ _____ _____    ______ ____
ROOT
ATOM      1  C   UNL     1       2.182  -3.518  -3.467  0.00  0.00    +0.015 C 
ENDROOT
BRANCH   1   2
ATOM      2  C   UNL     1       2.752  -3.047  -2.121  0.00  0.00    +0.084 C 
BRANCH   2   9
ATOM      3  C   UNL     1       6.386  -2.232  -2.973  0.00  0.00    +0.130 C 
ATOM      4  C   UNL     1       6.921  -3.480  -3.673  0.00  0.00    +0.039 C 
ATOM      5  O   UNL     1       6.913  -2.081  -1.647  0.00  0.00    -0.371 OA
ATOM      6  C   UNL     1       6.244  -2.830  -0.620  0.00  0.00    +0.130 C 
ATOM      7  C   UNL     1       6.748  -4.269  -0.545  0.00  0.00    +0.039 C 
ATOM      8  C   UNL     1       4.706  -2.735  -0.715  0.00  0.00    +0.115 C 
ATOM      9  N   UNL     1       4.218  -3.078  -2.065  0.00  0.00    -0.297 NA
ATOM     10  C   UNL     1       4.847  -2.141  -3.016  0.00  0.00    +0.115 C 
ENDBRANCH   2   9
ENDBRANCH   1   2
BRANCH   1  11
ATOM     11  C   UNL     1       2.669  -4.917  -3.859  0.00  0.00    +0.001 C 
BRANCH  11  12
ATOM     12  C   UNL     1       2.181  -5.293  -5.256  0.00  0.00    +0.000 C 
BRANCH  12  13
ATOM     13  C   UNL     1       2.647  -6.695  -5.642  0.00  0.00    +0.000 C 
BRANCH  13  14
ATOM     14  C   UNL     1       2.156  -7.066  -7.039  0.00  0.00    +0.002 C 
BRANCH  14  15
ATOM     15  C   UNL     1       2.601  -8.474  -7.426  0.00  0.00    +0.019 C 
BRANCH  15  16
ATOM     16  C   UNL     1       2.107  -8.841  -8.823  0.00  0.00    +0.104 C 
BRANCH  16  17
ATOM     17  N   UNL     1       2.526 -10.174  -9.197  0.00  0.00    -0.318 N 
ATOM     18  H   UNL     1       3.436 -10.300  -9.621  0.00  0.00    +0.148 HD
ATOM     19  C   UNL     1       1.796 -11.282  -8.859  0.00  0.00    +0.325 C 
ATOM     20  O   UNL     1       0.728 -11.285  -8.266  0.00  0.00    -0.280 OA
ENDBRANCH  16  17
ENDBRANCH  15  16
ENDBRANCH  14  15
ENDBRANCH  13  14
ENDBRANCH  12  13
ENDBRANCH  11  12
ENDBRANCH   1  11
TORSDOF 9
