REMARK  Name = 
REMARK  5 active torsions:
REMARK  status: ('A' for Active; 'I' for Inactive)
REMARK    1  A    between atoms: O_1  and  C_2
REMARK    2  A    between atoms: C_9  and  N_12
REMARK    3  A    between atoms: N_12  and  C_13
REMARK    4  A    between atoms: C_13  and  C_14
REMARK    5  A    between atoms: C_20  and  C_22
REMARK                            x       y       z     vdW  Elec       q    Type
REMARK                         _______ _______ _______ _____ _____    ______ ____
ROOT
ATOM      1  C   UNL     1       2.340   0.107  -0.084  0.00  0.00    +0.068 C 
ATOM      2  C   UNL     1       2.806  -1.337   0.161  0.00  0.00    +0.057 C 
ATOM      3  C   UNL     1       4.352  -1.409   0.222  0.00  0.00    +0.023 C 
ATOM      4  C   UNL     1       4.876  -0.456   1.327  0.00  0.00    +0.026 C 
ATOM      5  C   UNL     1       4.397   0.984   1.076  0.00  0.00    -0.006 C 
ATOM      6  C   UNL     1       4.936   1.470  -0.278  0.00  0.00    +0.007 C 
ATOM      7  C   UNL     1       4.429   0.555  -1.405  0.00  0.00    -0.006 C 
ATOM      8  C   UNL     1       4.896  -0.891  -1.141  0.00  0.00    +0.026 C 
ATOM      9  C   UNL     1       2.894   0.599  -1.429  0.00  0.00    +0.038 C 
ATOM     10  C   UNL     1       2.861   1.003   1.053  0.00  0.00    +0.038 C 
ENDROOT
BRANCH   1  11
ATOM     11  O   UNL     1       0.920   0.133  -0.109  0.00  0.00    -0.388 OA
ATOM     12  H   UNL     1       0.634   1.051  -0.251  0.00  0.00    +0.210 HD
ENDBRANCH   1  11
BRANCH   3  13
ATOM     13  N   UNL     1       4.840  -2.791   0.405  0.00  0.00    -0.303 NA
ATOM     14  H   UNL     1       5.863  -2.788   0.416  0.00  0.00    +0.123 HD
BRANCH  13  15
ATOM     15  C   UNL     1       4.380  -3.439   1.649  0.00  0.00    +0.178 C 
BRANCH  15  16
ATOM     16  C   UNL     1       4.864  -4.891   1.734  0.00  0.00    +0.230 C 
ATOM     17  N   UNL     1       4.409  -5.793   0.798  0.00  0.00    -0.285 N 
ATOM     18  C   UNL     1       3.587  -5.520  -0.388  0.00  0.00    +0.179 C 
ATOM     19  C   UNL     1       3.759  -6.772  -1.267  0.00  0.00    +0.039 C 
ATOM     20  C   UNL     1       4.834  -7.614  -0.581  0.00  0.00    +0.022 C 
ATOM     21  C   UNL     1       4.761  -7.194   0.871  0.00  0.00    +0.109 C 
ATOM     22  O   UNL     1       5.619  -5.234   2.648  0.00  0.00    -0.274 OA
BRANCH  18  23
ATOM     23  C   UNL     1       2.163  -5.306  -0.053  0.00  0.00    +0.085 C 
ATOM     24  N   UNL     1       1.042  -5.156   0.213  0.00  0.00    -0.195 NA
ENDBRANCH  18  23
ENDBRANCH  15  16
ENDBRANCH  13  15
ENDBRANCH   3  13
TORSDOF 5
