REMARK  Name = 
REMARK  8 active torsions:
REMARK  status: ('A' for Active; 'I' for Inactive)
REMARK    1  A    between atoms: CA_2  and  N_3
REMARK    2  A    between atoms: CA_2  and  C_11
REMARK    3  A    between atoms: CA_2  and  C_13
REMARK    4  A    between atoms: C_4  and  O_6
REMARK    5  A    between atoms: O_6  and  C_7
REMARK    6  A    between atoms: C_7  and  C_8
REMARK    7  A    between atoms: C_7  and  C_9
REMARK    8  A    between atoms: C_7  and  C_10
REMARK                            x       y       z     vdW  Elec       q    Type
REMARK                         _______ _______ _______ _____ _____    ______ ____
ROOT
ATOM      1  CA  UNL     1       2.066   0.105   0.146  0.00  0.00    +0.142 C 
ENDROOT
BRANCH   1   2
ATOM      2  C   UNL     1       2.583   0.853  -1.113  0.00  0.00    +0.016 C 
ATOM      3  C   UNL     1       2.245   2.359  -1.124  0.00  0.00    +0.006 C 
ATOM      4  C   UNL     1       0.763   2.645  -1.363  0.00  0.00    +0.000 C 
ATOM      5  C   UNL     1       0.228   1.957  -2.613  0.00  0.00    +0.000 C 
ATOM      6  C   UNL     1       0.577   0.472  -2.654  0.00  0.00    +0.000 C 
ATOM      7  C   UNL     1       2.070   0.237  -2.433  0.00  0.00    +0.006 C 
ENDBRANCH   1   2
BRANCH   1   8
ATOM      8  N   UNL     1       2.565   0.677   1.392  0.00  0.00    -0.271 N 
ATOM      9  H   UNL     1       3.476   0.401   1.740  0.00  0.00    +0.153 HD
ATOM     10  C   UNL     1       1.831   1.541   2.145  0.00  0.00    +0.401 C 
ATOM     11  O   UNL     1       0.693   1.888   1.861  0.00  0.00    -0.226 OA
BRANCH  10  12
ATOM     12  O   UNL     1       2.553   1.990   3.200  0.00  0.00    -0.445 OA
BRANCH  12  13
ATOM     13  C   UNL     1       2.044   3.111   3.974  0.00  0.00    +0.107 C 
ATOM     14  C   UNL     1       1.922   4.358   3.088  0.00  0.00    +0.055 C 
ATOM     15  C   UNL     1       3.103   3.399   5.052  0.00  0.00    +0.055 C 
ATOM     16  C   UNL     1       0.724   2.779   4.686  0.00  0.00    +0.055 C 
ENDBRANCH  12  13
ENDBRANCH  10  12
ENDBRANCH   1   8
BRANCH   1  17
ATOM     17  C   UNL     1       2.525  -1.349   0.124  0.00  0.00    +0.245 C 
ATOM     18  O   UNL     1       3.562  -1.756   0.645  0.00  0.00    -0.299 OA
ENDBRANCH   1  17
TORSDOF 5
