REMARK  Name = 
REMARK  4 active torsions:
REMARK  status: ('A' for Active; 'I' for Inactive)
REMARK    1  A    between atoms: O_1  and  C_2
REMARK    2  A    between atoms: C_3  and  S_4
REMARK    3  A    between atoms: S_4  and  C_5
REMARK    4  A    between atoms: C_6  and  O_7
REMARK                            x       y       z     vdW  Elec       q    Type
REMARK                         _______ _______ _______ _____ _____    ______ ____
ROOT
ATOM      1  S   UNL     1       2.272   2.594  -0.081  0.00  0.00    -0.082 S 
ENDROOT
BRANCH   1   9
ATOM      2  C   UNL     1       2.931   0.041  -1.097  0.00  0.00    +0.149 A 
ATOM      3  C   UNL     1       3.626  -1.176  -1.016  0.00  0.00    +0.085 A 
ATOM      4 CL   UNL     1       3.392  -2.428  -2.183  0.00  0.00    -0.080 Cl
ATOM      5  C   UNL     1       4.552  -1.394   0.003  0.00  0.00    +0.043 A 
ATOM      6  C   UNL     1       4.785  -0.392   0.940  0.00  0.00    +0.044 A 
ATOM      7 CL   UNL     1       5.971  -0.620   2.163  0.00  0.00    -0.083 Cl
ATOM      8  C   UNL     1       4.071   0.805   0.889  0.00  0.00    +0.038 A 
ATOM      9  C   UNL     1       3.117   1.024  -0.115  0.00  0.00    +0.057 A 
BRANCH   2  10
ATOM     10  O   UNL     1       2.104   0.261  -2.167  0.00  0.00    -0.504 OA
ATOM     11  H   UNL     1       1.936   1.216  -2.227  0.00  0.00    +0.292 HD
ENDBRANCH   2  10
ENDBRANCH   1   9
BRANCH   1  12
ATOM     12  C   UNL     1       0.511   2.274  -0.013  0.00  0.00    +0.057 A 
ATOM     13  C   UNL     1      -0.299   3.285  -0.560  0.00  0.00    +0.038 A 
ATOM     14  C   UNL     1      -1.689   3.162  -0.578  0.00  0.00    +0.044 A 
ATOM     15 CL   UNL     1      -2.648   4.442  -1.211  0.00  0.00    -0.083 Cl
ATOM     16  C   UNL     1      -2.303   2.022  -0.080  0.00  0.00    +0.043 A 
ATOM     17  C   UNL     1      -1.518   1.021   0.489  0.00  0.00    +0.085 A 
ATOM     18 CL   UNL     1      -2.318  -0.369   1.133  0.00  0.00    -0.080 Cl
ATOM     19  C   UNL     1      -0.122   1.162   0.563  0.00  0.00    +0.149 A 
BRANCH  19  20
ATOM     20  O   UNL     1       0.581   0.214   1.257  0.00  0.00    -0.504 OA
ATOM     21  H   UNL     1       1.348   0.650   1.665  0.00  0.00    +0.292 HD
ENDBRANCH  19  20
ENDBRANCH   1  12
TORSDOF 4
