REMARK  Name = 
REMARK  11 active torsions:
REMARK  status: ('A' for Active; 'I' for Inactive)
REMARK    1  A    between atoms: C_1  and  O_2
REMARK    2  A    between atoms: O_2  and  C_3
REMARK    3  A    between atoms: C_5  and  C_11
REMARK    4  A    between atoms: C_7  and  O_8
REMARK    5  A    between atoms: O_8  and  C_9
REMARK    6  A    between atoms: N_13  and  C_14
REMARK    7  A    between atoms: C_16  and  O_18
REMARK    8  A    between atoms: C_19  and  C_21
REMARK    9  A    between atoms: C_21  and  O_22
REMARK   10  A    between atoms: C_24  and  N_26
REMARK   11  A    between atoms: N_35  and  C_36
REMARK                            x       y       z     vdW  Elec       q    Type
REMARK                         _______ _______ _______ _____ _____    ______ ____
ROOT
ATOM      1  C   UNL     1       6.579   0.994   6.099  0.00  0.00    +0.154 C 
ATOM      2  C   UNL     1       6.213   0.514   7.520  0.00  0.00    +0.245 C 
ATOM      3  O   UNL     1       6.379   1.632   8.422  0.00  0.00    -0.346 OA
ATOM      4  C   UNL     1       6.674   2.823   7.654  0.00  0.00    +0.176 C 
ATOM      5  C   UNL     1       6.337   2.500   6.200  0.00  0.00    +0.170 C 
ENDROOT
BRANCH   2   6
ATOM      6  N   UNL     1       4.872  -0.044   7.658  0.00  0.00    -0.286 N 
ATOM      7  C   UNL     1       4.455  -1.232   7.108  0.00  0.00    +0.167 A 
ATOM      8  N   UNL     1       5.157  -2.043   6.298  0.00  0.00    -0.216 NA
ATOM      9  C   UNL     1       4.417  -3.117   5.947  0.00  0.00    +0.225 A 
ATOM     10  N   UNL     1       3.150  -3.424   6.305  0.00  0.00    -0.219 NA
ATOM     11  C   UNL     1       2.471  -2.580   7.131  0.00  0.00    +0.150 A 
ATOM     12  N   UNL     1       1.162  -2.842   7.507  0.00  0.00    -0.320 N 
ATOM     13  H   UNL     1       0.849  -2.286   8.296  0.00  0.00    +0.148 HD
ATOM     14  C   UNL     1       3.157  -1.417   7.563  0.00  0.00    +0.147 A 
ATOM     15  N   UNL     1       2.788  -0.373   8.389  0.00  0.00    -0.231 NA
ATOM     16  C   UNL     1       3.844   0.416   8.437  0.00  0.00    +0.203 A 
BRANCH  12  17
ATOM     17  C   UNL     1       0.537  -4.145   7.309  0.00  0.00    +0.102 C 
ATOM     18  C   UNL     1       0.621  -5.000   8.567  0.00  0.00    -0.024 A 
ATOM     19  C   UNL     1      -0.497  -5.229   9.396  0.00  0.00    -0.042 A 
ATOM     20  C   UNL     1      -0.379  -6.092  10.499  0.00  0.00    +0.004 A 
ATOM     21  C   UNL     1       0.832  -6.713  10.795  0.00  0.00    +0.000 A 
ATOM     22  C   UNL     1       1.944  -6.473   9.995  0.00  0.00    +0.000 A 
ATOM     23  C   UNL     1      -1.854  -4.646   9.092  0.00  0.00    +0.035 C 
ATOM     24  C   UNL     1      -1.814  -3.533   8.052  0.00  0.00    +0.007 C 
ATOM     25  C   UNL     1       1.840  -5.622   8.892  0.00  0.00    +0.006 A 
ATOM     26  C   UNL     1      -0.929  -3.935   6.876  0.00  0.00    +0.027 C 
ENDBRANCH  12  17
ENDBRANCH   2   6
BRANCH   1  28
ATOM     27  C   UNL     1       8.463   0.899   4.456  0.00  0.00    +0.245 C 
ATOM     28  N   UNL     1       7.967   0.668   5.726  0.00  0.00    -0.302 N 
ATOM     29  H   UNL     1       8.483   0.070   6.359  0.00  0.00    +0.150 HD
ATOM     30  O   UNL     1       7.839   1.578   3.640  0.00  0.00    -0.270 OA
BRANCH  27  35
ATOM     31  C   UNL     1      11.530  -0.035   2.419  0.00  0.00    +0.124 A 
ATOM     32  C   UNL     1      12.134  -0.999   3.232  0.00  0.00    +0.091 A 
ATOM     33  C   UNL     1      11.592  -1.295   4.478  0.00  0.00    +0.124 A 
ATOM     34  C   UNL     1      10.443  -0.630   4.915  0.00  0.00    +0.059 A 
ATOM     35  C   UNL     1       9.780   0.285   4.085  0.00  0.00    +0.044 A 
ATOM     36  C   UNL     1      10.341   0.581   2.828  0.00  0.00    +0.059 A 
BRANCH  31  38
ATOM     37  C   UNL     1      13.405   0.170   0.991  0.00  0.00    +0.277 C 
ATOM     38  O   UNL     1      12.004   0.346   1.192  0.00  0.00    -0.495 OA
ENDBRANCH  31  38
BRANCH  33  39
ATOM     39  O   UNL     1      12.071  -2.220   5.367  0.00  0.00    -0.495 OA
ATOM     40  C   UNL     1      13.068  -3.118   4.894  0.00  0.00    +0.277 C 
ENDBRANCH  33  39
ENDBRANCH  27  35
ENDBRANCH   1  28
BRANCH   5  41
ATOM     41  O   UNL     1       4.947   2.782   5.991  0.00  0.00    -0.387 OA
ATOM     42  H   UNL     1       4.672   2.361   5.156  0.00  0.00    +0.210 HD
ENDBRANCH   5  41
BRANCH   4  43
ATOM     43  C   UNL     1       8.145   3.220   7.853  0.00  0.00    +0.190 C 
BRANCH  43  44
ATOM     44  O   UNL     1       8.412   3.581   9.208  0.00  0.00    -0.392 OA
ATOM     45  H   UNL     1       7.773   4.265   9.469  0.00  0.00    +0.210 HD
ENDBRANCH  43  44
ENDBRANCH   4  43
TORSDOF 9
