REMARK  Name = 
REMARK  14 active torsions:
REMARK  status: ('A' for Active; 'I' for Inactive)
REMARK    1  A    between atoms: C_1  and  C_2
REMARK    2  A    between atoms: C_2  and  O_3
REMARK    3  A    between atoms: O_3  and  C_4
REMARK    4  A    between atoms: C_4  and  C_6
REMARK    5  A    between atoms: C_6  and  O_7
REMARK    6  A    between atoms: O_7  and  N_8
REMARK    7  A    between atoms: C_9  and  C_10
REMARK    8  A    between atoms: C_9  and  C_16
REMARK    9  A    between atoms: C_16  and  C_19
REMARK   10  A    between atoms: N_23  and  C_24
REMARK   11  A    between atoms: C_25  and  C_26
REMARK   12  A    between atoms: C_26  and  N_27
REMARK   13  A    between atoms: N_27  and  C_28
REMARK   14  A    between atoms: C_31  and  C_34
REMARK                            x       y       z     vdW  Elec       q    Type
REMARK                         _______ _______ _______ _____ _____    ______ ____
ROOT
ATOM      1  C   UNL     1       9.920  -4.048  -0.579  0.00  0.00    -0.033 A 
ATOM      2  C   UNL     1      11.301  -3.910  -0.850  0.00  0.00    +0.034 A 
ATOM      3  C   UNL     1      12.152  -5.022  -0.722  0.00  0.00    +0.090 A 
ATOM      4  C   UNL     1      11.627  -6.223  -0.268  0.00  0.00    +0.069 A 
ATOM      5  N   UNL     1      12.608  -7.143  -0.543  0.00  0.00    -0.329 N 
ATOM      6  C   UNL     1      13.745  -6.461  -0.912  0.00  0.00    +0.128 A 
ATOM      7  C   UNL     1      12.387  -8.566  -0.649  0.00  0.00    +0.150 C 
ATOM      8  C   UNL     1      10.336  -6.342   0.234  0.00  0.00    +0.028 A 
ATOM      9  N   UNL     1      13.481  -5.169  -1.037  0.00  0.00    -0.231 NA
ATOM     10  C   UNL     1       9.500  -5.240   0.047  0.00  0.00    +0.007 A 
ENDROOT
BRANCH   1  11
ATOM     11  C   UNL     1       8.879  -3.065  -1.158  0.00  0.00    +0.043 C 
ATOM     12  C   UNL     1       7.532  -3.024  -0.409  0.00  0.00    +0.019 C 
ATOM     13  C   UNL     1       8.390  -1.814  -0.427  0.00  0.00    +0.019 C 
BRANCH  11  15
ATOM     14  N   UNL     1       9.662  -2.008  -3.262  0.00  0.00    -0.086 NA
ATOM     15  C   UNL     1       8.948  -2.928  -2.672  0.00  0.00    +0.116 C 
BRANCH  15  16
ATOM     16  C   UNL     1       8.181  -3.853  -3.551  0.00  0.00    +0.089 A 
ATOM     17  N   UNL     1       6.933  -4.190  -3.149  0.00  0.00    -0.254 NA
ATOM     18  C   UNL     1       6.134  -4.754  -4.079  0.00  0.00    +0.111 A 
ATOM     19  C   UNL     1       6.524  -5.015  -5.383  0.00  0.00    +0.020 A 
ATOM     20  C   UNL     1       7.829  -4.715  -5.756  0.00  0.00    +0.004 A 
ATOM     21  C   UNL     1       8.676  -4.124  -4.826  0.00  0.00    +0.030 A 
ENDBRANCH  15  16
BRANCH  14  22
ATOM     22  O   UNL     1      10.356  -1.171  -2.383  0.00  0.00    -0.382 OA
BRANCH  22  23
ATOM     23  C   UNL     1      10.480   0.094  -3.007  0.00  0.00    +0.382 C 
BRANCH  23  24
ATOM     24  C   UNL     1      11.709   0.845  -2.559  0.00  0.00    +0.348 C 
ATOM     25  O   UNL     1      11.693   1.985  -2.110  0.00  0.00    -0.247 OA
BRANCH  24  26
ATOM     26  O   UNL     1      12.833   0.143  -2.885  0.00  0.00    -0.462 OA
BRANCH  26  28
ATOM     27  C   UNL     1      14.118   1.528  -4.352  0.00  0.00    +0.048 C 
ATOM     28  C   UNL     1      14.036   0.916  -2.964  0.00  0.00    +0.229 C 
ENDBRANCH  26  28
ENDBRANCH  24  26
ENDBRANCH  23  24
ENDBRANCH  22  23
ENDBRANCH  14  22
ENDBRANCH  11  15
ENDBRANCH   1  11
BRANCH   6  29
ATOM     29  C   UNL     1      15.080  -7.123  -1.104  0.00  0.00    +0.176 C 
BRANCH  29  30
ATOM     30  N   UNL     1      15.355  -7.696  -2.431  0.00  0.00    -0.337 N 
ATOM     31  H   UNL     1      15.808  -8.602  -2.342  0.00  0.00    +0.147 HD
BRANCH  30  32
ATOM     32  C   UNL     1      16.064  -6.905  -3.352  0.00  0.00    +0.027 A 
ATOM     33  C   UNL     1      15.924  -5.516  -3.454  0.00  0.00    +0.024 A 
ATOM     34  C   UNL     1      16.627  -4.780  -4.415  0.00  0.00    +0.017 A 
ATOM     35  C   UNL     1      17.475  -5.428  -5.316  0.00  0.00    +0.065 A 
ATOM     36  C   UNL     1      17.574  -6.817  -5.276  0.00  0.00    +0.017 A 
ATOM     37  C   UNL     1      16.862  -7.543  -4.315  0.00  0.00    +0.024 A 
BRANCH  35  38
ATOM     38  C   UNL     1      18.260  -4.644  -6.314  0.00  0.00    +0.308 C 
ATOM     39  N   UNL     1      19.411  -5.019  -6.747  0.00  0.00    -0.099 NA
ATOM     40  H   UNL     1      19.728  -5.879  -6.293  0.00  0.00    +0.363 HD
ATOM     41  N   UNL     1      17.774  -3.462  -6.794  0.00  0.00    -0.247 N 
ATOM     42  H   UNL     1      18.310  -3.157  -7.600  0.00  0.00    +0.288 HD
ATOM     43  H   UNL     1      16.777  -3.411  -6.949  0.00  0.00    +0.288 HD
ENDBRANCH  35  38
ENDBRANCH  30  32
ENDBRANCH  29  30
ENDBRANCH   6  29
TORSDOF 12
