REMARK  Name = 
REMARK  8 active torsions:
REMARK  status: ('A' for Active; 'I' for Inactive)
REMARK    1  A    between atoms: C_1  and  N_2
REMARK    2  A    between atoms: N_2  and  C_3
REMARK    3  A    between atoms: N_2  and  C_4
REMARK    4  A    between atoms: C_4  and  C_5
REMARK    5  A    between atoms: C_5  and  C_6
REMARK    6  A    between atoms: C_6  and  O_7
REMARK    7  A    between atoms: C_6  and  C_8
REMARK    8  A    between atoms: C_6  and  C_14
REMARK                            x       y       z     vdW  Elec       q    Type
REMARK                         _______ _______ _______ _____ _____    ______ ____
ROOT
ATOM      1  C   UNL     1       4.937  -0.831  -2.623  0.00  0.00    +0.118 C 
ENDROOT
BRANCH   1   2
ATOM      2  C   UNL     1       6.484  -0.856  -2.652  0.00  0.00    +0.007 A 
ATOM      3  C   UNL     1       7.230  -1.626  -3.571  0.00  0.00    +0.047 A 
ATOM      4 CL   UNL     1       6.515  -2.655  -4.768  0.00  0.00    -0.083 Cl
ATOM      5  C   UNL     1       8.634  -1.573  -3.587  0.00  0.00    +0.020 A 
ATOM      6  C   UNL     1       9.329  -0.741  -2.714  0.00  0.00    +0.001 A 
ATOM      7  C   UNL     1       8.624   0.039  -1.812  0.00  0.00    +0.000 A 
ATOM      8  C   UNL     1       7.227  -0.023  -1.779  0.00  0.00    +0.008 A 
ENDBRANCH   1   2
BRANCH   1   9
ATOM      9  C   UNL     1       4.394   0.080  -3.743  0.00  0.00    -0.012 A 
ATOM     10  C   UNL     1       3.603  -0.396  -4.804  0.00  0.00    +0.007 A 
ATOM     11  C   UNL     1       3.079   0.479  -5.761  0.00  0.00    +0.000 A 
ATOM     12  C   UNL     1       3.359   1.841  -5.698  0.00  0.00    +0.000 A 
ATOM     13  C   UNL     1       4.173   2.331  -4.684  0.00  0.00    +0.000 A 
ATOM     14  C   UNL     1       4.682   1.461  -3.718  0.00  0.00    +0.007 A 
ENDBRANCH   1   9
BRANCH   1  15
ATOM     15  O   UNL     1       4.492  -2.193  -2.729  0.00  0.00    -0.379 OA
ATOM     16  H   UNL     1       3.580  -2.195  -3.053  0.00  0.00    +0.211 HD
ENDBRANCH   1  15
BRANCH   1  17
ATOM     17  C   UNL     1       4.360  -0.376  -1.239  0.00  0.00    +0.060 C 
BRANCH  17  18
ATOM     18  C   UNL     1       2.823  -0.455  -1.127  0.00  0.00    +0.087 C 
BRANCH  18  20
ATOM     19  C   UNL     1       0.842  -0.017   0.167  0.00  0.00    +0.104 C 
ATOM     20  N   UNL     1       2.311  -0.016   0.189  0.00  0.00    -0.308 NA
ATOM     21  C   UNL     1       2.784  -0.867   1.280  0.00  0.00    +0.104 C 
ENDBRANCH  18  20
ENDBRANCH  17  18
ENDBRANCH   1  17
TORSDOF 6
