REMARK  Name = 
REMARK  5 active torsions:
REMARK  status: ('A' for Active; 'I' for Inactive)
REMARK    1  A    between atoms: O_1  and  C_2
REMARK    2  A    between atoms: C_5  and  C_13
REMARK    3  A    between atoms: C_8  and  O_9
REMARK    4  A    between atoms: C_10  and  O_12
REMARK    5  A    between atoms: C_13  and  O_14
REMARK                            x       y       z     vdW  Elec       q    Type
REMARK                         _______ _______ _______ _____ _____    ______ ____
ROOT
ATOM      1  C   UNL     1       2.179   0.154   0.020  0.00  0.00    +0.151 C 
ATOM      2  C   UNL     1       2.739  -1.213  -0.484  0.00  0.00    +0.207 C 
ATOM      3  C   UNL     1       3.580  -1.158  -1.731  0.00  0.00    +0.122 C 
ATOM      4  C   UNL     1       3.931  -0.021  -2.349  0.00  0.00    +0.031 C 
ATOM      5  C   UNL     1       3.503   1.335  -1.875  0.00  0.00    +0.126 C 
ATOM      6  C   UNL     1       2.889   1.414  -0.471  0.00  0.00    +0.053 C 
ENDROOT
BRANCH   1   7
ATOM      7  O   UNL     1       0.800   0.334  -0.322  0.00  0.00    -0.389 OA
ATOM      8  H   UNL     1       0.376   0.722   0.467  0.00  0.00    +0.210 HD
ENDBRANCH   1   7
BRANCH   2   9
ATOM      9  O   UNL     1       1.680  -2.143  -0.701  0.00  0.00    -0.382 OA
ATOM     10  H   UNL     1       2.034  -2.814  -1.319  0.00  0.00    +0.210 HD
ENDBRANCH   2   9
BRANCH   3  11
ATOM     11  O   UNL     1       3.953  -2.392  -2.218  0.00  0.00    -0.509 OA
ATOM     12  H   UNL     1       4.499  -2.269  -3.027  0.00  0.00    +0.292 HD
ENDBRANCH   3  11
BRANCH   5  13
ATOM     13  C   UNL     1       2.599   1.947  -2.945  0.00  0.00    +0.312 C 
ATOM     14  O   UNL     1       2.978   2.848  -3.691  0.00  0.00    -0.250 OA
BRANCH  13  15
ATOM     15  O   UNL     1       1.392   1.370  -3.079  0.00  0.00    -0.480 OA
ATOM     16  H   UNL     1       1.189   0.670  -2.414  0.00  0.00    +0.295 HD
ENDBRANCH  13  15
ENDBRANCH   5  13
TORSDOF 5
