REMARK  Name = 
REMARK  16 active torsions:
REMARK  status: ('A' for Active; 'I' for Inactive)
REMARK    1  A    between atoms: C_2  and  O_38
REMARK    2  A    between atoms: N_3  and  C_4
REMARK    3  A    between atoms: C_4  and  C_6
REMARK    4  A    between atoms: C_4  and  C_13
REMARK    5  A    between atoms: C_6  and  C_7
REMARK    6  A    between atoms: N_15  and  C_16
REMARK    7  A    between atoms: C_16  and  C_18
REMARK    8  A    between atoms: C_16  and  C_26
REMARK    9  A    between atoms: C_18  and  C_19
REMARK   10  A    between atoms: C_19  and  C_20
REMARK   11  A    between atoms: C_26  and  C_27
REMARK   12  A    between atoms: C_27  and  S_28
REMARK   13  A    between atoms: S_28  and  O_31
REMARK   14  A    between atoms: O_31  and  C_32
REMARK   15  A    between atoms: O_38  and  C_39
REMARK   16  A    between atoms: C_39  and  C_40
REMARK                            x       y       z     vdW  Elec       q    Type
REMARK                         _______ _______ _______ _____ _____    ______ ____
ROOT
ATOM      1  C   UNL     1       4.744   5.098  -0.123  0.00  0.00    +0.234 C 
ATOM      2  N   UNL     1       4.514   5.915  -1.200  0.00  0.00    -0.311 N 
ATOM      3  H   UNL     1       4.996   6.798  -1.077  0.00  0.00    +0.149 HD
ATOM      4  O   UNL     1       5.369   5.607   0.812  0.00  0.00    -0.274 OA
ENDROOT
BRANCH   2   5
ATOM      5  C   UNL     1       3.824   5.681  -2.463  0.00  0.00    +0.075 C 
BRANCH   5   6
ATOM      6  C   UNL     1       4.790   5.217  -3.571  0.00  0.00    +0.027 C 
BRANCH   6   7
ATOM      7  C   UNL     1       5.886   6.225  -3.940  0.00  0.00    +0.037 C 
BRANCH   7   8
ATOM      8  C   UNL     1       6.798   5.695  -5.020  0.00  0.00    -0.047 A 
ATOM      9  C   UNL     1       7.587   4.560  -4.789  0.00  0.00    +0.003 A 
ATOM     10  C   UNL     1       8.405   4.050  -5.797  0.00  0.00    +0.000 A 
ATOM     11  C   UNL     1       8.455   4.679  -7.039  0.00  0.00    +0.000 A 
ATOM     12  C   UNL     1       7.692   5.821  -7.273  0.00  0.00    +0.000 A 
ATOM     13  C   UNL     1       6.866   6.328  -6.268  0.00  0.00    +0.003 A 
ENDBRANCH   7   8
ENDBRANCH   6   7
ENDBRANCH   5   6
BRANCH   5  14
ATOM     14  C   UNL     1       3.058   6.951  -2.898  0.00  0.00    +0.048 C 
BRANCH  14  15
ATOM     15  C   UNL     1       2.053   7.496  -1.883  0.00  0.00    +0.212 C 
BRANCH  15  16
ATOM     16  S   UNL     1       0.776   6.317  -1.518  0.00  0.00    +0.121 S 
ATOM     17  O   UNL     1       1.318   5.294  -0.649  0.00  0.00    -0.137 OA
ATOM     18  O   UNL     1       0.123   5.967  -2.762  0.00  0.00    -0.137 OA
BRANCH  16  19
ATOM     19  O   UNL     1      -0.199   7.292  -0.645  0.00  0.00    -0.346 OA
BRANCH  19  20
ATOM     20  C   UNL     1      -1.371   6.815  -0.108  0.00  0.00    +0.156 A 
ATOM     21  C   UNL     1      -2.159   7.750   0.568  0.00  0.00    +0.048 A 
ATOM     22  C   UNL     1      -3.377   7.362   1.133  0.00  0.00    +0.004 A 
ATOM     23  C   UNL     1      -3.807   6.040   1.028  0.00  0.00    +0.000 A 
ATOM     24  C   UNL     1      -3.022   5.104   0.365  0.00  0.00    +0.004 A 
ATOM     25  C   UNL     1      -1.806   5.491  -0.201  0.00  0.00    +0.048 A 
ENDBRANCH  19  20
ENDBRANCH  16  19
ENDBRANCH  15  16
ENDBRANCH  14  15
ENDBRANCH   5  14
ENDBRANCH   2   5
BRANCH   1  26
ATOM     26  C   UNL     1       4.241   3.628  -0.101  0.00  0.00    +0.166 C 
BRANCH  26  29
ATOM     27  O   UNL     1       6.767   1.963  -2.109  0.00  0.00    -0.226 OA
ATOM     28  C   UNL     1       6.260   2.586  -1.188  0.00  0.00    +0.401 C 
ATOM     29  N   UNL     1       4.925   2.870  -1.157  0.00  0.00    -0.269 N 
ATOM     30  H   UNL     1       4.393   2.520  -1.940  0.00  0.00    +0.153 HD
BRANCH  28  31
ATOM     31  O   UNL     1       6.905   3.071  -0.113  0.00  0.00    -0.446 OA
BRANCH  31  32
ATOM     32  C   UNL     1       8.301   2.807   0.030  0.00  0.00    +0.269 C 
BRANCH  32  33
ATOM     33  C   UNL     1       8.995   4.125   0.254  0.00  0.00    -0.010 A 
ATOM     34  C   UNL     1       9.985   4.566  -0.632  0.00  0.00    +0.007 A 
ATOM     35  C   UNL     1      10.595   5.808  -0.447  0.00  0.00    +0.000 A 
ATOM     36  C   UNL     1      10.224   6.619   0.624  0.00  0.00    +0.000 A 
ATOM     37  C   UNL     1       9.247   6.187   1.518  0.00  0.00    +0.000 A 
ATOM     38  C   UNL     1       8.638   4.945   1.336  0.00  0.00    +0.007 A 
ENDBRANCH  32  33
ENDBRANCH  31  32
ENDBRANCH  28  31
ENDBRANCH  26  29
BRANCH  26  39
ATOM     39  C   UNL     1       4.357   2.928   1.278  0.00  0.00    +0.067 C 
BRANCH  39  40
ATOM     40  C   UNL     1       3.646   3.636   2.405  0.00  0.00    -0.045 A 
ATOM     41  C   UNL     1       4.387   4.149   3.481  0.00  0.00    +0.004 A 
ATOM     42  C   UNL     1       3.769   4.917   4.463  0.00  0.00    +0.000 A 
ATOM     43  C   UNL     1       2.401   5.171   4.386  0.00  0.00    +0.000 A 
ATOM     44  C   UNL     1       1.648   4.623   3.349  0.00  0.00    +0.000 A 
ATOM     45  C   UNL     1       2.265   3.845   2.369  0.00  0.00    +0.004 A 
ENDBRANCH  39  40
ENDBRANCH  26  39
ENDBRANCH   1  26
TORSDOF 16
