REMARK  Name = 
REMARK  13 active torsions:
REMARK  status: ('A' for Active; 'I' for Inactive)
REMARK    1  A    between atoms: C_1  and  C_2
REMARK    2  A    between atoms: C_2  and  N_4
REMARK    3  A    between atoms: C_2  and  C_21
REMARK    4  A    between atoms: N_4  and  C_5
REMARK    5  A    between atoms: C_5  and  N_7
REMARK    6  A    between atoms: C_5  and  N_12
REMARK    7  A    between atoms: N_7  and  C_8
REMARK    8  A    between atoms: C_8  and  C_9
REMARK    9  A    between atoms: C_9  and  O_10
REMARK   10  A    between atoms: C_9  and  O_11
REMARK   11  A    between atoms: N_12  and  C_13
REMARK   12  A    between atoms: C_16  and  C_17
REMARK   13  A    between atoms: C_17  and  N_18
REMARK                            x       y       z     vdW  Elec       q    Type
REMARK                         _______ _______ _______ _____ _____    ______ ____
ROOT
ATOM      1  C   UNL     1       2.517  -2.204   0.056  0.00  0.00    +0.212 C 
ENDROOT
BRANCH   1   2
ATOM      2  N   UNL     1       3.048  -1.044  -0.622  0.00  0.00    -0.280 NA
ATOM      3  H   UNL     1       2.415  -0.348  -0.996  0.00  0.00    +0.125 HD
BRANCH   2   5
ATOM      4  C   UNL     1       5.200  -0.889   0.659  0.00  0.00    +0.029 C 
ATOM      5  C   UNL     1       4.500  -0.822  -0.701  0.00  0.00    +0.084 C 
BRANCH   5   6
ATOM      6  C   UNL     1       4.829   0.535  -1.298  0.00  0.00    -0.031 A 
ATOM      7  C   UNL     1       4.271   1.721  -0.792  0.00  0.00    +0.005 A 
ATOM      8  C   UNL     1       4.872   2.953  -1.065  0.00  0.00    +0.000 A 
ATOM      9  C   UNL     1       6.015   3.015  -1.860  0.00  0.00    +0.000 A 
ATOM     10  C   UNL     1       6.522   1.857  -2.441  0.00  0.00    +0.000 A 
ATOM     11  C   UNL     1       5.923   0.625  -2.176  0.00  0.00    +0.005 A 
ENDBRANCH   5   6
ENDBRANCH   2   5
ENDBRANCH   1   2
BRANCH   1  12
ATOM     12  N   UNL     1       2.982  -3.417  -0.566  0.00  0.00    -0.317 N 
ATOM     13  H   UNL     1       3.212  -3.380  -1.550  0.00  0.00    +0.149 HD
BRANCH  12  14
ATOM     14  C   UNL     1       3.292  -4.641   0.114  0.00  0.00    +0.029 A 
ATOM     15  C   UNL     1       3.850  -5.683  -0.631  0.00  0.00    +0.023 A 
ATOM     16  C   UNL     1       4.229  -6.882  -0.012  0.00  0.00    +0.007 A 
ATOM     17  C   UNL     1       4.058  -7.060   1.370  0.00  0.00    -0.034 A 
ATOM     18  C   UNL     1       3.465  -6.025   2.102  0.00  0.00    +0.007 A 
ATOM     19  C   UNL     1       3.080  -4.828   1.479  0.00  0.00    +0.023 A 
BRANCH  17  20
ATOM     20  C   UNL     1       4.540  -8.318   2.052  0.00  0.00    +0.113 C 
BRANCH  20  21
ATOM     21  N   UNL     1       3.840  -9.500   1.570  0.00  0.00    -0.326 NA
ATOM     22  H   UNL     1       4.225 -10.324   2.033  0.00  0.00    +0.119 HD
ATOM     23  H   UNL     1       2.864  -9.454   1.861  0.00  0.00    +0.119 HD
ENDBRANCH  20  21
ENDBRANCH  17  20
ENDBRANCH  12  14
ENDBRANCH   1  12
BRANCH   1  24
ATOM     24  N   UNL     1       1.091  -2.157   0.050  0.00  0.00    -0.279 NA
ATOM     25  H   UNL     1       0.563  -2.132   0.921  0.00  0.00    +0.125 HD
BRANCH  24  26
ATOM     26  C   UNL     1       0.281  -2.268  -1.181  0.00  0.00    +0.172 C 
BRANCH  26  27
ATOM     27  C   UNL     1      -1.209  -2.291  -0.808  0.00  0.00    +0.360 C 
BRANCH  27  28
ATOM     28  O   UNL     1      -1.501  -1.104  -0.095  0.00  0.00    -0.506 OA
ATOM     29  H   UNL     1      -2.468  -0.994  -0.125  0.00  0.00    +0.287 HD
ENDBRANCH  27  28
BRANCH  27  30
ATOM     30  O   UNL     1      -1.430  -3.387   0.057  0.00  0.00    -0.506 OA
ATOM     31  H   UNL     1      -1.699  -4.144  -0.494  0.00  0.00    +0.287 HD
ENDBRANCH  27  30
ENDBRANCH  26  27
ENDBRANCH  24  26
ENDBRANCH   1  24
TORSDOF 12
