REMARK  Name = 
REMARK  11 active torsions:
REMARK  status: ('A' for Active; 'I' for Inactive)
REMARK    1  A    between atoms: C_1  and  S_2
REMARK    2  A    between atoms: S_2  and  C_3
REMARK    3  A    between atoms: C_3  and  S_4
REMARK    4  A    between atoms: S_4  and  C_6
REMARK    5  A    between atoms: C_6  and  C_7
REMARK    6  A    between atoms: C_7  and  C_9
REMARK    7  A    between atoms: C_7  and  N_11
REMARK    8  A    between atoms: C_9  and  O_10
REMARK    9  A    between atoms: C_12  and  C_14
REMARK   10  A    between atoms: C_15  and  C_16
REMARK   11  A    between atoms: C_17  and  C_18
REMARK                            x       y       z     vdW  Elec       q    Type
REMARK                         _______ _______ _______ _____ _____    ______ ____
ROOT
ATOM      1  N   UNK A   1       7.930   1.002  -4.674  0.00  0.00    -0.306 N 
ATOM      2  H   UNK A   1       7.248   1.224  -5.398  0.00  0.00    +0.149 HD
ATOM      3  C   UNK A   0       9.274   0.995  -4.934  0.00  0.00    +0.237 C 
ATOM      4  O   UNK A   0      10.132   0.736  -4.100  0.00  0.00    -0.271 OA
ENDROOT
BRANCH   3   5
ATOM      5  C   UNK A   0       9.619   1.365  -6.323  0.00  0.00    +0.068 C 
ATOM      6  C   UNK A   0      10.784   0.930  -6.826  0.00  0.00    +0.020 C 
BRANCH   6   7
ATOM      7  C   UNK A   0      11.331   1.340  -8.106  0.00  0.00    +0.059 A 
ATOM      8  C   UNK A   0      11.551   0.290  -9.156  0.00  0.00    +0.261 A 
ATOM      9  O   UNK A   0      11.277  -0.892  -8.966  0.00  0.00    -0.267 OA
ATOM     10  N   UNK A   0      12.076   0.714 -10.344  0.00  0.00    -0.275 N 
ATOM     11  H   UNK A   0      12.227   0.020 -11.059  0.00  0.00    +0.173 HD
ATOM     12  C   UNK A   0      12.452   1.991 -10.625  0.00  0.00    +0.327 A 
ATOM     13  O   UNK A   0      12.943   2.313 -11.701  0.00  0.00    -0.247 OA
ATOM     14  N   UNK A   0      12.258   2.899  -9.622  0.00  0.00    -0.311 N 
ATOM     15  H   UNK A   0      12.557   3.844  -9.837  0.00  0.00    +0.170 HD
ATOM     16  C   UNK A   0      11.723   2.600  -8.392  0.00  0.00    +0.030 A 
ATOM     17  C   UNK A   0      11.671   3.764  -7.437  0.00  0.00    +0.064 C 
ENDBRANCH   6   7
ENDBRANCH   3   5
BRANCH   1  18
ATOM     18  C   UNK A   1       7.423   0.688  -3.338  0.00  0.00    +0.111 C 
BRANCH  18  19
ATOM     19  C   UNK A   1       6.113  -0.108  -3.386  0.00  0.00    +0.129 C 
BRANCH  19  20
ATOM     20  S   UNK A   1       4.723   0.802  -4.128  0.00  0.00    +0.034 S 
ATOM     21  O   UNK A   1       5.083   1.050  -5.568  0.00  0.00    -0.256 OA
BRANCH  20  22
ATOM     22  C   UNK A   1       3.504  -0.561  -4.078  0.00  0.00    +0.172 C 
BRANCH  22  24
ATOM     23  C   UNK A   1       1.873  -2.378  -2.785  0.00  0.00    +0.085 C 
ATOM     24  S   UNK A   1       3.081  -1.092  -2.391  0.00  0.00    -0.151 S 
ENDBRANCH  22  24
ENDBRANCH  20  22
ENDBRANCH  19  20
ENDBRANCH  18  19
BRANCH  18  25
ATOM     25  C   UNK A   1       7.388   1.931  -2.426  0.00  0.00    +0.179 C 
BRANCH  25  26
ATOM     26  O   UNK A   1       6.567   2.978  -2.931  0.00  0.00    -0.393 OA
ATOM     27  H   UNK A   1       7.072   3.416  -3.639  0.00  0.00    +0.209 HD
ENDBRANCH  25  26
ENDBRANCH  18  25
ENDBRANCH   1  18
TORSDOF 9
