REMARK  Name = 
REMARK  9 active torsions:
REMARK  status: ('A' for Active; 'I' for Inactive)
REMARK    1  A    between atoms: C_1  and  C_2
REMARK    2  A    between atoms: C_2  and  O_4
REMARK    3  A    between atoms: C_2  and  C_5
REMARK    4  A    between atoms: C_5  and  N_7
REMARK    5  A    between atoms: C_5  and  C_8
REMARK    6  A    between atoms: C_11  and  C_12
REMARK    7  A    between atoms: C_15  and  O_16
REMARK    8  A    between atoms: N_21  and  C_22
REMARK    9  A    between atoms: C_22  and  C_23
REMARK                            x       y       z     vdW  Elec       q    Type
REMARK                         _______ _______ _______ _____ _____    ______ ____
ROOT
ATOM      1  C   UNL     1       4.587   0.888  -1.184  0.00  0.00    +0.317 C 
ATOM      2  N   UNL     1       5.393   1.968  -1.087  0.00  0.00    -0.145 N 
ATOM      3  C   UNL     1       6.690   1.537  -1.185  0.00  0.00    +0.379 C 
ATOM      4  O   UNL     1       7.718   2.185  -1.180  0.00  0.00    -0.237 OA
ATOM      5  C   UNL     1       6.537   0.062  -1.253  0.00  0.00    +0.263 C 
ATOM      6  C   UNL     1       7.557  -0.788  -1.091  0.00  0.00    +0.071 C 
ATOM      7  N   UNL     1       5.204  -0.252  -1.317  0.00  0.00    -0.037 NA
ENDROOT
BRANCH   6   8
ATOM      8  C   UNL     1       7.330  -2.214  -0.833  0.00  0.00    -0.020 A 
ATOM      9  C   UNL     1       7.162  -2.634   0.495  0.00  0.00    +0.011 A 
ATOM     10  C   UNL     1       6.863  -3.965   0.785  0.00  0.00    +0.046 A 
ATOM     11  C   UNL     1       6.728  -4.877  -0.252  0.00  0.00    +0.117 A 
ATOM     12  C   UNL     1       6.914  -4.485  -1.576  0.00  0.00    +0.046 A 
ATOM     13  C   UNL     1       7.216  -3.149  -1.866  0.00  0.00    +0.011 A 
BRANCH  11  14
ATOM     14  O   UNL     1       6.392  -6.158   0.072  0.00  0.00    -0.507 OA
ATOM     15  H   UNL     1       6.174  -6.635  -0.745  0.00  0.00    +0.292 HD
ENDBRANCH  11  14
ENDBRANCH   6   8
BRANCH   1  16
ATOM     16  C   UNL     1       3.062   0.890  -1.101  0.00  0.00    +0.197 C 
BRANCH  16  17
ATOM     17  N   UNL     1       2.480   2.045  -1.832  0.00  0.00    -0.316 NA
ATOM     18  H   UNL     1       2.727   1.941  -2.819  0.00  0.00    +0.119 HD
ATOM     19  H   UNL     1       1.464   1.954  -1.819  0.00  0.00    +0.119 HD
ENDBRANCH  16  17
BRANCH  16  21
ATOM     20  C   UNL     1       3.201  -0.333   1.149  0.00  0.00    +0.040 C 
ATOM     21  C   UNL     1       2.552   0.797   0.356  0.00  0.00    +0.140 C 
BRANCH  21  22
ATOM     22  O   UNL     1       1.140   0.526   0.339  0.00  0.00    -0.390 OA
ATOM     23  H   UNL     1       0.701   1.307  -0.033  0.00  0.00    +0.210 HD
ENDBRANCH  21  22
ENDBRANCH  16  21
ENDBRANCH   1  16
BRANCH   2  24
ATOM     24  C   UNL     1       5.086   3.365  -0.834  0.00  0.00    +0.306 C 
BRANCH  24  25
ATOM     25  C   UNL     1       4.971   3.640   0.653  0.00  0.00    +0.267 C 
ATOM     26  O   UNL     1       5.062   2.791   1.536  0.00  0.00    -0.297 OA
ENDBRANCH  24  25
ENDBRANCH   2  24
TORSDOF 8
