REMARK  Name = 
REMARK  3 active torsions:
REMARK  status: ('A' for Active; 'I' for Inactive)
REMARK    1  A    between atoms: O_1  and  C_2
REMARK    2  A    between atoms: C_5  and  C_8
REMARK    3  A    between atoms: C_15  and  O_16
REMARK                            x       y       z     vdW  Elec       q    Type
REMARK                         _______ _______ _______ _____ _____    ______ ____
ROOT
ATOM      1  C   UNL     1       6.599   0.072  -0.633  0.00  0.00    -0.003 C 
ATOM      2  C   UNL     1       7.336  -1.238  -0.817  0.00  0.00    +0.265 C 
ATOM      3  O   UNL     1       8.735  -1.192  -1.140  0.00  0.00    -0.487 OA
ATOM      4  C   UNL     1       9.334   0.028  -1.247  0.00  0.00    +0.132 A 
ATOM      5  C   UNL     1      10.693   0.011  -1.571  0.00  0.00    +0.091 A 
ATOM      6  C   UNL     1      11.376   1.212  -1.725  0.00  0.00    +0.120 A 
ATOM      7  C   UNL     1      10.722   2.426  -1.560  0.00  0.00    +0.046 A 
ATOM      8  C   UNL     1       9.366   2.441  -1.226  0.00  0.00    +0.015 A 
ATOM      9  C   UNL     1       8.665   1.238  -1.064  0.00  0.00    +0.017 A 
ATOM     10  C   UNL     1       7.248   1.244  -0.728  0.00  0.00    +0.019 C 
ENDROOT
BRANCH   1  14
ATOM     11  C   UNL     1       2.352  -0.156   0.050  0.00  0.00    +0.117 A 
ATOM     12  C   UNL     1       3.182  -1.160   0.524  0.00  0.00    +0.046 A 
ATOM     13  C   UNL     1       4.564  -1.076   0.323  0.00  0.00    +0.012 A 
ATOM     14  C   UNL     1       5.136   0.014  -0.355  0.00  0.00    -0.018 A 
ATOM     15  C   UNL     1       4.267   1.020  -0.816  0.00  0.00    +0.012 A 
ATOM     16  C   UNL     1       2.884   0.941  -0.612  0.00  0.00    +0.046 A 
BRANCH  11  17
ATOM     17  O   UNL     1       1.012  -0.290   0.248  0.00  0.00    -0.507 OA
ATOM     18  H   UNL     1       0.556   0.442  -0.199  0.00  0.00    +0.292 HD
ENDBRANCH  11  17
ENDBRANCH   1  14
BRANCH   6  19
ATOM     19  O   UNL     1      12.701   1.241  -2.045  0.00  0.00    -0.507 OA
ATOM     20  H   UNL     1      13.020   0.327  -2.122  0.00  0.00    +0.292 HD
ENDBRANCH   6  19
TORSDOF 3
