REMARK  Name = 
REMARK  16 active torsions:
REMARK  status: ('A' for Active; 'I' for Inactive)
REMARK    1  A    between atoms: C_2  and  C_4
REMARK    2  A    between atoms: C_8  and  C_11
REMARK    3  A    between atoms: C_14  and  C_16
REMARK    4  A    between atoms: C_16  and  O_17
REMARK    5  A    between atoms: O_17  and  P_18
REMARK    6  A    between atoms: P_18  and  O_21
REMARK    7  A    between atoms: O_21  and  P_22
REMARK    8  A    between atoms: P_22  and  O_23
REMARK    9  A    between atoms: P_22  and  O_25
REMARK   10  A    between atoms: O_25  and  C_26
REMARK   11  A    between atoms: C_26  and  C_27
REMARK   12  A    between atoms: C_30  and  N_38
REMARK   13  A    between atoms: C_32  and  O_34
REMARK   14  A    between atoms: C_35  and  O_37
REMARK   15  A    between atoms: C_48  and  O_50
REMARK   16  A    between atoms: C_51  and  O_53
REMARK                            x       y       z     vdW  Elec       q    Type
REMARK                         _______ _______ _______ _____ _____    ______ ____
ROOT
ATOM      1  O   UNL     1       2.391 -12.738   3.474  0.00  0.00    -0.229 OA
ENDROOT
BRANCH   1   2
ATOM      2  P   UNL     1       1.066 -13.817   3.739  0.00  0.00    +0.222 P 
ATOM      3  O   UNL     1      -0.259 -14.897   4.005  0.00  0.00    -0.437 OA
ATOM      4  O   UNL     1       1.057 -13.264   5.180  0.00  0.00    -0.517 OA
BRANCH   2   5
ATOM      5  O   UNL     1       0.145 -12.719   2.858  0.00  0.00    -0.324 OA
BRANCH   5   6
ATOM      6  C   UNL     1      -1.269 -12.727   2.957  0.00  0.00    +0.202 C 
BRANCH   6  10
ATOM      7  C   UNL     1      -3.814 -11.491   0.647  0.00  0.00    +0.245 C 
ATOM      8  C   UNL     1      -2.914 -12.286  -0.308  0.00  0.00    +0.185 C 
ATOM      9  C   UNL     1      -1.602 -12.492   0.442  0.00  0.00    +0.177 C 
ATOM     10  C   UNL     1      -1.834 -11.870   1.824  0.00  0.00    +0.176 C 
ATOM     11  O   UNL     1      -3.259 -11.660   1.970  0.00  0.00    -0.355 OA
BRANCH   7  15
ATOM     12  C   UNL     1      -4.351  -7.935   1.485  0.00  0.00    +0.268 A 
ATOM     13  N   UNL     1      -4.199  -9.266   1.521  0.00  0.00    -0.202 N 
ATOM     14  H   UNL     1      -4.281  -9.738   2.435  0.00  0.00    +0.453 HD
ATOM     15  C   UNL     1      -3.926 -10.008   0.427  0.00  0.00    +0.214 A 
ATOM     16  C   UNL     1      -3.838  -9.354  -0.808  0.00  0.00    +0.076 A 
ATOM     17  C   UNL     1      -3.992  -7.969  -0.873  0.00  0.00    +0.013 A 
ATOM     18  C   UNL     1      -4.254  -7.246   0.287  0.00  0.00    +0.084 A 
BRANCH  12  22
ATOM     19  N   UNL     1      -4.486  -5.995   2.975  0.00  0.00    -0.320 N 
ATOM     20  H   UNL     1      -3.954  -5.396   2.356  0.00  0.00    +0.145 HD
ATOM     21  H   UNL     1      -4.662  -5.627   3.905  0.00  0.00    +0.145 HD
ATOM     22  C   UNL     1      -4.683  -7.333   2.786  0.00  0.00    +0.306 C 
ATOM     23  O   UNL     1      -5.106  -8.081   3.658  0.00  0.00    -0.264 OA
ENDBRANCH  12  22
ENDBRANCH   7  15
BRANCH   9  24
ATOM     24  O   UNL     1      -0.558 -11.790  -0.242  0.00  0.00    -0.386 OA
ATOM     25  H   UNL     1       0.271 -12.202   0.085  0.00  0.00    +0.210 HD
ENDBRANCH   9  24
BRANCH   8  26
ATOM     26  O   UNL     1      -3.562 -13.526  -0.624  0.00  0.00    -0.386 OA
ATOM     27  H   UNL     1      -3.391 -14.170   0.089  0.00  0.00    +0.210 HD
ENDBRANCH   8  26
ENDBRANCH   6  10
ENDBRANCH   5   6
ENDBRANCH   2   5
ENDBRANCH   1   2
BRANCH   1  28
ATOM     28  P   UNL     1       3.063 -13.024   1.906  0.00  0.00    +0.480 P 
ATOM     29  O   UNL     1       1.860 -13.794   1.358  0.00  0.00    -0.227 OA
BRANCH  28  30
ATOM     30  O   UNL     1       4.032 -14.168   2.558  0.00  0.00    -0.302 OA
ATOM     31  H   UNL     1       3.567 -15.025   2.558  0.00  0.00    +0.222 HD
ENDBRANCH  28  30
BRANCH  28  32
ATOM     32  O   UNL     1       3.735 -13.311   0.338  0.00  0.00    -0.284 OA
BRANCH  32  33
ATOM     33  C   UNL     1       5.165 -13.248   0.336  0.00  0.00    +0.206 C 
BRANCH  33  34
ATOM     34  C   UNL     1       5.772 -13.522  -1.039  0.00  0.00    +0.178 C 
ATOM     35  C   UNL     1       5.506 -12.400  -2.037  0.00  0.00    +0.178 C 
ATOM     36  C   UNL     1       6.745 -11.506  -1.956  0.00  0.00    +0.195 C 
ATOM     37  C   UNL     1       7.685 -12.231  -0.986  0.00  0.00    +0.253 C 
ATOM     38  O   UNL     1       7.216 -13.591  -0.927  0.00  0.00    -0.346 OA
BRANCH  37  39
ATOM     39  N   UNL     1       9.077 -12.181  -1.392  0.00  0.00    -0.286 N 
ATOM     40  C   UNL     1       9.780 -11.019  -1.581  0.00  0.00    +0.167 A 
ATOM     41  N   UNL     1       9.336  -9.758  -1.425  0.00  0.00    -0.216 NA
ATOM     42  C   UNL     1      10.316  -8.874  -1.719  0.00  0.00    +0.225 A 
ATOM     43  N   UNL     1      11.573  -9.123  -2.145  0.00  0.00    -0.219 NA
ATOM     44  C   UNL     1      11.954 -10.410  -2.314  0.00  0.00    +0.147 A 
ATOM     45  N   UNL     1      13.235 -10.657  -2.788  0.00  0.00    -0.341 N 
ATOM     46  H   UNL     1      13.576 -11.590  -2.587  0.00  0.00    +0.144 HD
ATOM     47  H   UNL     1      13.863  -9.878  -2.643  0.00  0.00    +0.144 HD
ATOM     48  C   UNL     1      11.036 -11.426  -1.999  0.00  0.00    +0.147 A 
ATOM     49  N   UNL     1      11.117 -12.804  -2.020  0.00  0.00    -0.231 NA
ATOM     50  C   UNL     1       9.927 -13.222  -1.635  0.00  0.00    +0.203 A 
ENDBRANCH  37  39
BRANCH  36  51
ATOM     51  O   UNL     1       6.413 -10.204  -1.465  0.00  0.00    -0.385 OA
ATOM     52  H   UNL     1       7.245  -9.684  -1.497  0.00  0.00    +0.210 HD
ENDBRANCH  36  51
BRANCH  35  53
ATOM     53  O   UNL     1       5.409 -12.942  -3.364  0.00  0.00    -0.386 OA
ATOM     54  H   UNL     1       6.075 -13.646  -3.464  0.00  0.00    +0.210 HD
ENDBRANCH  35  53
ENDBRANCH  33  34
ENDBRANCH  32  33
ENDBRANCH  28  32
ENDBRANCH   1  28
TORSDOF 16
