REMARK  Name = 
REMARK  40 active torsions:
REMARK  status: ('A' for Active; 'I' for Inactive)
REMARK    1  A    between atoms: C_1  and  C_2
REMARK    2  A    between atoms: C_2  and  C_3
REMARK    3  A    between atoms: C_3  and  C_4
REMARK    4  A    between atoms: C_4  and  C_5
REMARK    5  A    between atoms: C_5  and  C_6
REMARK    6  A    between atoms: C_6  and  C_7
REMARK    7  A    between atoms: C_7  and  C_8
REMARK    8  A    between atoms: C_8  and  C_9
REMARK    9  A    between atoms: C_9  and  C_10
REMARK   10  A    between atoms: C_10  and  C_11
REMARK   11  A    between atoms: C_11  and  C_12
REMARK   12  A    between atoms: C_12  and  C_13
REMARK   13  A    between atoms: C_13  and  C_14
REMARK   14  A    between atoms: C_14  and  C_15
REMARK   15  A    between atoms: C_15  and  C_16
REMARK   16  A    between atoms: C_16  and  O_18
REMARK   17  A    between atoms: O_18  and  C_19
REMARK   18  A    between atoms: C_19  and  C_21
REMARK   19  A    between atoms: C_19  and  C_39
REMARK   20  A    between atoms: C_21  and  O_22
REMARK   21  A    between atoms: O_22  and  C_23
REMARK   22  A    between atoms: C_26  and  C_28
REMARK   23  A    between atoms: C_28  and  O_29
REMARK   24  A    between atoms: C_30  and  O_32
REMARK   25  A    between atoms: C_33  and  O_35
REMARK   26  A    between atoms: C_36  and  O_38
REMARK   27  A    between atoms: C_39  and  O_40
REMARK   28  A    between atoms: O_40  and  C_41
REMARK   29  A    between atoms: C_41  and  C_43
REMARK   30  A    between atoms: C_43  and  C_44
REMARK   31  A    between atoms: C_44  and  C_45
REMARK   32  A    between atoms: C_45  and  C_46
REMARK   33  A    between atoms: C_46  and  C_47
REMARK   34  A    between atoms: C_47  and  C_48
REMARK   35  A    between atoms: C_48  and  C_49
REMARK   36  A    between atoms: C_49  and  C_50
REMARK   37  A    between atoms: C_50  and  C_51
REMARK   38  A    between atoms: C_51  and  C_52
REMARK   39  A    between atoms: C_52  and  C_53
REMARK   40  A    between atoms: C_53  and  C_54
REMARK                            x       y       z     vdW  Elec       q    Type
REMARK                         _______ _______ _______ _____ _____    ______ ____
ROOT
ATOM      1  C   UNL     1      17.797  -0.617  -5.783  0.00  0.00    +0.239 C 
ENDROOT
BRANCH   1   2
ATOM      2  C   UNL     1      17.964  -0.104  -7.212  0.00  0.00    +0.211 C 
BRANCH   2   3
ATOM      3  O   UNL     1      18.183   1.306  -7.329  0.00  0.00    -0.345 OA
BRANCH   3   4
ATOM      4  C   UNL     1      18.392   1.623  -8.703  0.00  0.00    +0.282 C 
ATOM      5  C   UNL     1      18.453   3.143  -8.958  0.00  0.00    +0.201 C 
ATOM      6  C   UNL     1      18.613   3.347 -10.472  0.00  0.00    +0.179 C 
ATOM      7  C   UNL     1      19.804   2.554 -11.058  0.00  0.00    +0.177 C 
ATOM      8  C   UNL     1      19.765   1.087 -10.602  0.00  0.00    +0.178 C 
ATOM      9  O   UNL     1      19.586   0.988  -9.189  0.00  0.00    -0.341 OA
BRANCH   7  10
ATOM     10  O   UNL     1      21.041   3.199 -10.695  0.00  0.00    -0.386 OA
ATOM     11  H   UNL     1      21.590   2.562 -10.206  0.00  0.00    +0.210 HD
ENDBRANCH   7  10
BRANCH   6  12
ATOM     12  O   UNL     1      18.725   4.752 -10.736  0.00  0.00    -0.386 OA
ATOM     13  H   UNL     1      19.214   4.851 -11.573  0.00  0.00    +0.210 HD
ENDBRANCH   6  12
BRANCH   5  14
ATOM     14  O   UNL     1      19.533   3.762  -8.247  0.00  0.00    -0.384 OA
ATOM     15  H   UNL     1      19.769   4.549  -8.774  0.00  0.00    +0.210 HD
ENDBRANCH   5  14
BRANCH   8  16
ATOM     16  C   UNL     1      18.750   0.223 -11.355  0.00  0.00    +0.190 C 
BRANCH  16  17
ATOM     17  O   UNL     1      18.898   0.324 -12.766  0.00  0.00    -0.392 OA
ATOM     18  H   UNL     1      19.655  -0.227 -13.022  0.00  0.00    +0.210 HD
ENDBRANCH  16  17
ENDBRANCH   8  16
ENDBRANCH   3   4
ENDBRANCH   2   3
ENDBRANCH   1   2
BRANCH   1  19
ATOM     19  C   UNL     1      16.546   0.061  -5.180  0.00  0.00    +0.279 C 
BRANCH  19  20
ATOM     20  O   UNL     1      16.314  -0.281  -3.806  0.00  0.00    -0.461 OA
BRANCH  20  21
ATOM     21  C   UNL     1      16.860   0.534  -2.861  0.00  0.00    +0.307 C 
ATOM     22  O   UNL     1      17.593   1.486  -3.094  0.00  0.00    -0.251 OA
BRANCH  21  23
ATOM     23  C   UNL     1      16.416   0.151  -1.471  0.00  0.00    +0.120 C 
BRANCH  23  24
ATOM     24  C   UNL     1      16.447  -1.343  -1.199  0.00  0.00    +0.011 C 
BRANCH  24  25
ATOM     25  C   UNL     1      17.807  -1.958  -1.369  0.00  0.00    +0.001 C 
BRANCH  25  26
ATOM     26  C   UNL     1      17.732  -3.522  -1.117  0.00  0.00    +0.000 C 
BRANCH  26  27
ATOM     27  C   UNL     1      19.036  -4.063  -1.515  0.00  0.00    +0.000 C 
BRANCH  27  28
ATOM     28  C   UNL     1      19.607  -5.773  -1.616  0.00  0.00    +0.000 C 
BRANCH  28  29
ATOM     29  C   UNL     1      21.150  -6.414  -2.138  0.00  0.00    -0.000 C 
BRANCH  29  30
ATOM     30  C   UNL     1      21.795  -7.768  -1.716  0.00  0.00    -0.000 C 
BRANCH  30  31
ATOM     31  C   UNL     1      23.364  -7.807  -2.004  0.00  0.00    -0.000 C 
BRANCH  31  32
ATOM     32  C   UNL     1      23.881  -9.248  -1.909  0.00  0.00    -0.000 C 
BRANCH  32  33
ATOM     33  C   UNL     1      25.370  -9.439  -2.208  0.00  0.00    -0.003 C 
ATOM     34  C   UNL     1      25.704 -10.931  -2.105  0.00  0.00    +0.004 C 
ENDBRANCH  32  33
ENDBRANCH  31  32
ENDBRANCH  30  31
ENDBRANCH  29  30
ENDBRANCH  28  29
ENDBRANCH  27  28
ENDBRANCH  26  27
ENDBRANCH  25  26
ENDBRANCH  24  25
ENDBRANCH  23  24
ENDBRANCH  21  23
ENDBRANCH  20  21
ENDBRANCH  19  20
ENDBRANCH   1  19
BRANCH   1  35
ATOM     35  O   UNL     1      17.606  -2.066  -5.817  0.00  0.00    -0.456 OA
BRANCH  35  36
ATOM     36  C   UNL     1      18.689  -2.778  -6.308  0.00  0.00    +0.308 C 
ATOM     37  O   UNL     1      19.727  -2.283  -6.724  0.00  0.00    -0.251 OA
BRANCH  36  38
ATOM     38  C   UNL     1      18.552  -4.264  -6.128  0.00  0.00    +0.120 C 
BRANCH  38  39
ATOM     39  C   UNL     1      19.849  -4.816  -5.417  0.00  0.00    +0.011 C 
BRANCH  39  40
ATOM     40  C   UNL     1      20.108  -4.079  -4.085  0.00  0.00    +0.001 C 
BRANCH  40  41
ATOM     41  C   UNL     1      21.544  -3.969  -3.118  0.00  0.00    +0.000 C 
BRANCH  41  42
ATOM     42  C   UNL     1      21.739  -3.731  -1.344  0.00  0.00    +0.000 C 
BRANCH  42  43
ATOM     43  C   UNL     1      22.385  -4.498  -0.101  0.00  0.00    +0.000 C 
BRANCH  43  44
ATOM     44  C   UNL     1      21.715  -4.087   1.258  0.00  0.00    -0.000 C 
BRANCH  44  45
ATOM     45  C   UNL     1      22.457  -4.819   2.371  0.00  0.00    -0.000 C 
BRANCH  45  46
ATOM     46  C   UNL     1      22.234  -4.186   3.725  0.00  0.00    -0.000 C 
BRANCH  46  47
ATOM     47  C   UNL     1      23.223  -4.852   4.658  0.00  0.00    -0.000 C 
BRANCH  47  48
ATOM     48  C   UNL     1      23.157  -4.218   6.025  0.00  0.00    -0.000 C 
BRANCH  48  49
ATOM     49  C   UNL     1      24.196  -4.856   6.909  0.00  0.00    -0.000 C 
BRANCH  49  50
ATOM     50  C   UNL     1      24.099  -4.210   8.280  0.00  0.00    -0.000 C 
BRANCH  50  52
ATOM     51  C   UNL     1      25.022  -4.211  10.563  0.00  0.00    +0.004 C 
ATOM     52  C   UNL     1      25.120  -4.853   9.191  0.00  0.00    -0.003 C 
ENDBRANCH  50  52
ENDBRANCH  49  50
ENDBRANCH  48  49
ENDBRANCH  47  48
ENDBRANCH  46  47
ENDBRANCH  45  46
ENDBRANCH  44  45
ENDBRANCH  43  44
ENDBRANCH  42  43
ENDBRANCH  41  42
ENDBRANCH  40  41
ENDBRANCH  39  40
ENDBRANCH  38  39
ENDBRANCH  36  38
ENDBRANCH  35  36
ENDBRANCH   1  35
TORSDOF 38
