REMARK  Name = 
REMARK  13 active torsions:
REMARK  status: ('A' for Active; 'I' for Inactive)
REMARK    1  A    between atoms: C_1  and  O_2
REMARK    2  A    between atoms: O_2  and  C_3
REMARK    3  A    between atoms: C_4  and  O_5
REMARK    4  A    between atoms: O_5  and  C_6
REMARK    5  A    between atoms: C_7  and  O_8
REMARK    6  A    between atoms: O_8  and  C_9
REMARK    7  A    between atoms: C_12  and  C_13
REMARK    8  A    between atoms: C_13  and  C_14
REMARK    9  A    between atoms: C_17  and  N_18
REMARK   10  A    between atoms: N_23  and  C_24
REMARK   11  A    between atoms: C_24  and  C_25
REMARK   12  A    between atoms: C_25  and  C_26
REMARK   13  A    between atoms: C_26  and  C_27
REMARK                            x       y       z     vdW  Elec       q    Type
REMARK                         _______ _______ _______ _____ _____    ______ ____
ROOT
ATOM      1  C   UNL     1       1.514  -4.856   0.381  0.00  0.00    +0.116 A 
ATOM      2  N   UNL     1       1.512  -4.905   1.765  0.00  0.00    -0.312 N 
ATOM      3  C   UNL     1       0.206  -4.921   2.180  0.00  0.00    +0.166 A 
ATOM      4  C   UNL     1      -0.544  -4.984   1.022  0.00  0.00    +0.148 A 
ATOM      5  C   UNL     1      -1.943  -5.098   1.185  0.00  0.00    +0.147 A 
ATOM      6  N   UNL     1      -2.456  -5.083   2.436  0.00  0.00    -0.219 NA
ATOM      7  C   UNL     1      -1.604  -4.988   3.475  0.00  0.00    +0.225 A 
ATOM      8  N   UNL     1      -0.263  -4.911   3.441  0.00  0.00    -0.216 NA
ATOM      9  N   UNL     1       0.279  -4.923  -0.090  0.00  0.00    -0.227 NA
ENDROOT
BRANCH   5  10
ATOM     10  N   UNL     1      -2.837  -5.226   0.131  0.00  0.00    -0.341 N 
ATOM     11  H   UNL     1      -3.771  -4.949   0.404  0.00  0.00    +0.144 HD
ATOM     12  H   UNL     1      -2.478  -4.870  -0.747  0.00  0.00    +0.144 HD
ENDBRANCH   5  10
BRANCH   1  13
ATOM     13  C   UNL     1       2.765  -4.897  -0.466  0.00  0.00    +0.111 C 
BRANCH  13  16
ATOM     14  C   UNL     1       3.139  -2.177  -3.041  0.00  0.00    +0.166 A 
ATOM     15  C   UNL     1       2.625  -3.201  -2.255  0.00  0.00    +0.055 A 
ATOM     16  C   UNL     1       3.240  -3.577  -1.054  0.00  0.00    -0.015 A 
ATOM     17  C   UNL     1       4.316  -2.793  -0.568  0.00  0.00    +0.090 A 
ATOM     18 CL   UNL     1       5.132  -3.349   0.854  0.00  0.00    -0.079 Cl
ATOM     19  C   UNL     1       4.708  -1.616  -1.252  0.00  0.00    +0.184 A 
ATOM     20  C   UNL     1       4.096  -1.310  -2.495  0.00  0.00    +0.205 A 
BRANCH  14  22
ATOM     21  C   UNL     1       2.377  -3.220  -5.021  0.00  0.00    +0.277 C 
ATOM     22  O   UNL     1       2.744  -2.016  -4.345  0.00  0.00    -0.491 OA
ENDBRANCH  14  22
BRANCH  19  23
ATOM     23  O   UNL     1       5.595  -0.648  -0.829  0.00  0.00    -0.490 OA
ATOM     24  C   UNL     1       6.712  -0.966  -0.019  0.00  0.00    +0.277 C 
ENDBRANCH  19  23
BRANCH  20  25
ATOM     25  O   UNL     1       4.544  -0.170  -3.138  0.00  0.00    -0.488 OA
ATOM     26  C   UNL     1       3.556   0.522  -3.900  0.00  0.00    +0.277 C 
ENDBRANCH  20  25
ENDBRANCH  13  16
ENDBRANCH   1  13
BRANCH   2  27
ATOM     27  C   UNL     1       2.682  -4.864   2.605  0.00  0.00    +0.126 C 
BRANCH  27  28
ATOM     28  C   UNL     1       2.637  -5.491   3.988  0.00  0.00    +0.034 C 
BRANCH  28  29
ATOM     29  C   UNL     1       2.466  -7.028   4.075  0.00  0.00    +0.090 C 
BRANCH  29  30
ATOM     30  C   UNL     1       2.684  -7.275   5.559  0.00  0.00    -0.106 C 
ATOM     31  C   UNL     1       2.870  -7.487   6.832  0.00  0.00    +0.004 C 
ENDBRANCH  29  30
ENDBRANCH  28  29
ENDBRANCH  27  28
ENDBRANCH   2  27
TORSDOF 10
