REMARK  Name = 
REMARK  5 active torsions:
REMARK  status: ('A' for Active; 'I' for Inactive)
REMARK    1  A    between atoms: C_1  and  O_2
REMARK    2  A    between atoms: O_2  and  C_3
REMARK    3  A    between atoms: C_5  and  N_9
REMARK    4  A    between atoms: C_15  and  S_17
REMARK    5  A    between atoms: S_17  and  N_18
REMARK                            x       y       z     vdW  Elec       q    Type
REMARK                         _______ _______ _______ _____ _____    ______ ____
ROOT
ATOM      1  N   UNL     1       2.784   4.756  -0.818  0.00  0.00    -0.178 N 
ATOM      2  S   UNL     1       3.903   5.938  -1.276  0.00  0.00    +0.085 S 
ATOM      3  O   UNL     1       3.994   5.979  -2.720  0.00  0.00    -0.149 OA
ATOM      4  O   UNL     1       5.067   5.862  -0.418  0.00  0.00    -0.149 OA
ATOM      5  C   UNL     1       3.099   7.421  -0.818  0.00  0.00    +0.155 A 
ATOM      6  S   UNL     1       3.815   8.913  -1.135  0.00  0.00    -0.048 S 
ATOM      7  C   UNL     1       2.485   9.741  -0.430  0.00  0.00    +0.145 A 
ATOM      8  C   UNL     1       1.521   8.863   0.047  0.00  0.00    +0.046 A 
ATOM      9  C   UNL     1       1.891   7.511  -0.181  0.00  0.00    +0.012 A 
ATOM     10  C   UNL     1       1.193   6.312   0.166  0.00  0.00    +0.027 C 
ATOM     11  C   UNL     1       1.581   5.049  -0.099  0.00  0.00    +0.101 C 
ENDROOT
BRANCH   1  16
ATOM     12  C   UNL     1       4.246   1.381  -0.310  0.00  0.00    +0.122 A 
ATOM     13  C   UNL     1       3.929   0.780  -1.531  0.00  0.00    +0.046 A 
ATOM     14  C   UNL     1       3.205   1.481  -2.499  0.00  0.00    +0.005 A 
ATOM     15  C   UNL     1       2.803   2.791  -2.247  0.00  0.00    +0.025 A 
ATOM     16  C   UNL     1       3.148   3.400  -1.042  0.00  0.00    +0.060 A 
ATOM     17  C   UNL     1       3.879   2.705  -0.077  0.00  0.00    +0.070 A 
BRANCH  12  19
ATOM     18  C   UNL     1       4.711   0.906   1.946  0.00  0.00    +0.277 C 
ATOM     19  O   UNL     1       4.942   0.600   0.573  0.00  0.00    -0.495 OA
ENDBRANCH  12  19
ENDBRANCH   1  16
BRANCH   7  20
ATOM     20  S   UNL     1       2.619  11.513  -0.410  0.00  0.00    +0.062 S 
ATOM     21  O   UNL     1       1.517  11.951   0.413  0.00  0.00    -0.153 OA
ATOM     22  O   UNL     1       2.799  11.913  -1.787  0.00  0.00    -0.153 OA
BRANCH  20  23
ATOM     23  N   UNL     1       4.033  11.865   0.425  0.00  0.00    -0.203 NA
ATOM     24  H   UNL     1       3.964  11.627   1.413  0.00  0.00    +0.144 HD
ATOM     25  H   UNL     1       4.861  11.506  -0.049  0.00  0.00    +0.144 HD
ENDBRANCH  20  23
ENDBRANCH   7  20
TORSDOF 4
