REMARK  Name = 
REMARK  4 active torsions:
REMARK  status: ('A' for Active; 'I' for Inactive)
REMARK    1  A    between atoms: N_1  and  CA_2
REMARK    2  A    between atoms: CA_2  and  C_10
REMARK    3  A    between atoms: CB_3  and  CG_4
REMARK    4  A    between atoms: C_10  and  O_11
REMARK                            x       y       z     vdW  Elec       q    Type
REMARK                         _______ _______ _______ _____ _____    ______ ____
ROOT
ATOM      1  CA  PHE A   1       4.080  -0.412  -0.872  0.00  0.00    +0.110 C 
ATOM      2  CB  PHE A   1       2.943  -1.063  -0.576  0.00  0.00    +0.037 C 
ENDROOT
BRANCH   2   3
ATOM      3  CG  PHE A   1       2.426  -2.212  -1.322  0.00  0.00    -0.023 A 
ATOM      4  CD2 PHE A   1       1.570  -2.016  -2.411  0.00  0.00    +0.008 A 
ATOM      5  CE2 PHE A   1       1.065  -3.112  -3.112  0.00  0.00    +0.001 A 
ATOM      6  CZ  PHE A   1       1.414  -4.407  -2.729  0.00  0.00    +0.000 A 
ATOM      7  CE1 PHE A   1       2.270  -4.607  -1.647  0.00  0.00    +0.001 A 
ATOM      8  CD1 PHE A   1       2.778  -3.512  -0.945  0.00  0.00    +0.008 A 
ENDBRANCH   2   3
BRANCH   1   9
ATOM      9  N   PHE A   1       4.983  -0.707  -1.900  0.00  0.00    -0.352 N 
ATOM     10  H1  PHE A   1       5.131   0.126  -2.477  0.00  0.00    +0.143 HD
ATOM     11  H2  PHE A   1       4.601  -1.441  -2.503  0.00  0.00    +0.143 HD
ENDBRANCH   1   9
BRANCH   1  12
ATOM     12  C   PHE A   1       4.438   0.735   0.044  0.00  0.00    +0.351 C 
ATOM     13  OXT PHE A   1       3.671   1.350   0.760  0.00  0.00    -0.244 OA
BRANCH  12  14
ATOM     14  O   PHE A   1       5.763   0.986  -0.062  0.00  0.00    -0.476 OA
ATOM     15  H   PHE A   1       6.161   0.281  -0.621  0.00  0.00    +0.295 HD
ENDBRANCH  12  14
ENDBRANCH   1  12
TORSDOF 4
