REMARK  Name = 
REMARK  16 active torsions:
REMARK  status: ('A' for Active; 'I' for Inactive)
REMARK    1  A    between atoms: C_1  and  C_2
REMARK    2  A    between atoms: C_5  and  C_6
REMARK    3  A    between atoms: C_6  and  O_7
REMARK    4  A    between atoms: O_7  and  P_8
REMARK    5  A    between atoms: P_8  and  O_9
REMARK    6  A    between atoms: P_8  and  O_10
REMARK    7  A    between atoms: C_12  and  C_13
REMARK    8  A    between atoms: C_13  and  N_14
REMARK    9  A    between atoms: N_14  and  CA_15
REMARK   10  A    between atoms: CA_15  and  CB_17
REMARK   11  A    between atoms: CA_15  and  C_22
REMARK   12  A    between atoms: CB_17  and  CG_18
REMARK   13  A    between atoms: CG_18  and  CD_19
REMARK   14  A    between atoms: CD_19  and  OE1_20
REMARK   15  A    between atoms: C_22  and  O_23
REMARK   16  A    between atoms: C_25  and  O_26
REMARK                            x       y       z     vdW  Elec       q    Type
REMARK                         _______ _______ _______ _____ _____    ______ ____
ROOT
ATOM      1  C   UNL     1       9.103  -3.938  -5.224  0.00  0.00    +0.069 C 
ATOM      2  C   UNL     1       8.590  -5.119  -4.452  0.00  0.00    +0.080 A 
ATOM      3  C   UNL     1       7.788  -4.942  -3.313  0.00  0.00    +0.142 A 
ATOM      4  C   UNL     1       7.267  -6.062  -2.631  0.00  0.00    +0.016 A 
ATOM      5  C   UNL     1       7.596  -7.336  -3.161  0.00  0.00    +0.005 A 
ATOM      6  C   UNL     1       8.428  -7.398  -4.285  0.00  0.00    +0.117 A 
ATOM      7  N   UNL     1       8.928  -6.333  -4.931  0.00  0.00    -0.256 NA
ENDROOT
BRANCH   3   8
ATOM      8  O   UNL     1       7.558  -3.643  -2.944  0.00  0.00    -0.505 OA
ATOM      9  H   UNL     1       7.133  -3.573  -2.080  0.00  0.00    +0.292 HD
ENDBRANCH   3   8
BRANCH   4  10
ATOM     10  C   ACE A   0       6.295  -5.907  -1.471  0.00  0.00    +0.121 C 
BRANCH  10  11
ATOM     11  N   UNL     1       6.681  -6.668  -0.261  0.00  0.00    -0.300 NA
ATOM     12  H   UNL     1       7.605  -6.325   0.006  0.00  0.00    +0.123 HD
BRANCH  11  13
ATOM     13  CA  UNL     1       5.727  -6.403   0.857  0.00  0.00    +0.164 C 
BRANCH  13  14
ATOM     14  C   UNL     1       4.339  -6.999   0.560  0.00  0.00    +0.322 C 
ATOM     15  OXT UNL     1       3.284  -6.528   0.959  0.00  0.00    -0.249 OA
BRANCH  14  16
ATOM     16  O   UNL     1       4.402  -8.160  -0.144  0.00  0.00    -0.480 OA
ATOM     17  H   UNL     1       5.345  -8.285  -0.425  0.00  0.00    +0.295 HD
ENDBRANCH  14  16
ENDBRANCH  13  14
BRANCH  13  18
ATOM     18  CB  UNL     1       6.201  -7.051   2.172  0.00  0.00    +0.041 C 
BRANCH  18  19
ATOM     19  CG  UNL     1       7.547  -6.537   2.682  0.00  0.00    +0.122 C 
BRANCH  19  20
ATOM     20  CD  UNL     1       7.913  -7.171   4.009  0.00  0.00    +0.305 C 
ATOM     21  OE2 UNL     1       7.226  -7.981   4.606  0.00  0.00    -0.251 OA
BRANCH  20  22
ATOM     22  OE1 UNL     1       9.111  -6.752   4.466  0.00  0.00    -0.481 OA
ATOM     23  HE1 UNL     1       9.562  -6.106   3.890  0.00  0.00    +0.295 HD
ENDBRANCH  20  22
ENDBRANCH  19  20
ENDBRANCH  18  19
ENDBRANCH  13  18
ENDBRANCH  11  13
ENDBRANCH  10  11
ENDBRANCH   4  10
BRANCH   5  24
ATOM     24  C   UNL     1       7.176  -8.661  -2.589  0.00  0.00    +0.209 C 
BRANCH  24  25
ATOM     25  O   UNL     1       5.836  -8.723  -2.169  0.00  0.00    -0.282 OA
BRANCH  25  26
ATOM     26  P   UNL     1       4.645  -8.672  -3.234  0.00  0.00    +0.473 P 
ATOM     27  O   UNL     1       3.961  -7.373  -3.469  0.00  0.00    -0.228 OA
BRANCH  26  28
ATOM     28  O   UNL     1       3.674  -9.775  -2.604  0.00  0.00    -0.303 OA
ATOM     29  H   UNL     1       3.270  -9.417  -1.783  0.00  0.00    +0.222 HD
ENDBRANCH  26  28
BRANCH  26  30
ATOM     30  O   UNL     1       5.180  -9.460  -4.509  0.00  0.00    -0.303 OA
ATOM     31  H   UNL     1       5.067 -10.419  -4.390  0.00  0.00    +0.222 HD
ENDBRANCH  26  30
ENDBRANCH  25  26
ENDBRANCH  24  25
ENDBRANCH   5  24
TORSDOF 15
