REMARK  Name = 
REMARK  19 active torsions:
REMARK  status: ('A' for Active; 'I' for Inactive)
REMARK    1  A    between atoms: C_1  and  C_2
REMARK    2  A    between atoms: C_2  and  C_3
REMARK    3  A    between atoms: C_2  and  C_4
REMARK    4  A    between atoms: C_4  and  C_5
REMARK    5  A    between atoms: C_5  and  C_7
REMARK    6  A    between atoms: C_5  and  N_33
REMARK    7  A    between atoms: C_7  and  C_8
REMARK    8  A    between atoms: C_8  and  O_10
REMARK    9  A    between atoms: C_8  and  C_11
REMARK   10  A    between atoms: C_11  and  C_13
REMARK   11  A    between atoms: C_11  and  N_20
REMARK   12  A    between atoms: C_13  and  C_14
REMARK   13  A    between atoms: C_21  and  C_23
REMARK   14  A    between atoms: C_23  and  O_24
REMARK   15  A    between atoms: O_24  and  C_25
REMARK   16  A    between atoms: C_26  and  C_27
REMARK   17  A    between atoms: C_31  and  C_32
REMARK   18  A    between atoms: C_34  and  C_36
REMARK   19  A    between atoms: C_40  and  N_41
REMARK                            x       y       z     vdW  Elec       q    Type
REMARK                         _______ _______ _______ _____ _____    ______ ____
ROOT
ATOM      1  C   UNL     1       4.545   3.420   2.083  0.00  0.00    +0.137 C 
ENDROOT
BRANCH   1   2
ATOM      2  O   UNL     1       3.118   3.427   1.833  0.00  0.00    -0.390 OA
ATOM      3  H   UNL     1       2.943   4.347   1.542  0.00  0.00    +0.210 HD
ENDBRANCH   1   2
BRANCH   1   4
ATOM      4  C   UNL     1       4.775   2.522   3.314  0.00  0.00    +0.055 C 
BRANCH   4   5
ATOM      5  C   UNL     1       4.169   3.168   4.604  0.00  0.00    +0.076 C 
BRANCH   5   6
ATOM      6  N   UNL     1       2.726   3.364   4.463  0.00  0.00    -0.308 N 
ATOM      7  H   UNL     1       2.234   2.665   3.926  0.00  0.00    +0.149 HD
ATOM      8  C   UNL     1       2.018   4.347   5.121  0.00  0.00    +0.244 C 
ATOM      9  O   UNL     1       2.541   5.163   5.872  0.00  0.00    -0.270 OA
BRANCH   8  10
ATOM     10  C   UNL     1       0.540   4.363   4.897  0.00  0.00    +0.038 A 
ATOM     11  C   UNL     1      -0.271   4.989   5.859  0.00  0.00    +0.035 A 
ATOM     12  C   UNL     1      -1.654   5.055   5.688  0.00  0.00    +0.025 A 
ATOM     13  C   UNL     1      -2.231   4.391   4.603  0.00  0.00    +0.023 A 
ATOM     14  C   UNL     1      -1.436   3.775   3.634  0.00  0.00    +0.003 A 
ATOM     15  C   UNL     1      -0.049   3.777   3.773  0.00  0.00    +0.013 A 
BRANCH  12  16
ATOM     16  N   UNL     1      -2.468   5.575   6.704  0.00  0.00    -0.358 N 
ATOM     17  H   UNL     1      -2.001   6.274   7.275  0.00  0.00    +0.142 HD
ATOM     18  H   UNL     1      -3.375   5.893   6.376  0.00  0.00    +0.142 HD
ENDBRANCH  12  16
ENDBRANCH   8  10
ENDBRANCH   5   6
BRANCH   5  19
ATOM     19  C   UNL     1       4.368   2.334   5.883  0.00  0.00    +0.025 C 
BRANCH  19  21
ATOM     20  C   UNL     1       6.685   3.221   6.514  0.00  0.00    +0.007 C 
ATOM     21  C   UNL     1       5.801   1.991   6.305  0.00  0.00    -0.015 C 
ATOM     22  C   UNL     1       5.752   1.170   7.603  0.00  0.00    +0.007 C 
ENDBRANCH  19  21
ENDBRANCH   5  19
ENDBRANCH   4   5
ENDBRANCH   1   4
BRANCH   1  23
ATOM     23  C   UNL     1       5.205   3.025   0.726  0.00  0.00    +0.106 C 
BRANCH  23  24
ATOM     24  N   UNL     1       4.776   3.871  -0.415  0.00  0.00    -0.307 N 
ATOM     25  H   UNL     1       4.868   3.472  -1.341  0.00  0.00    +0.149 HD
ATOM     26  C   UNL     1       4.261   5.146  -0.318  0.00  0.00    +0.251 C 
ATOM     27  O   UNL     1       4.111   5.754   0.739  0.00  0.00    -0.272 OA
BRANCH  26  28
ATOM     28  C   UNL     1       3.775   5.745  -1.618  0.00  0.00    +0.324 C 
BRANCH  28  29
ATOM     29  O   UNL     1       4.877   6.401  -2.187  0.00  0.00    -0.482 OA
BRANCH  29  30
ATOM     30  C   UNL     1       4.709   7.311  -3.188  0.00  0.00    +0.127 A 
ATOM     31  C   UNL     1       5.888   8.080  -3.380  0.00  0.00    -0.009 A 
ATOM     32  C   UNL     1       7.072   7.919  -2.455  0.00  0.00    +0.047 C 
ATOM     33  C   UNL     1       5.966   9.007  -4.424  0.00  0.00    +0.007 A 
ATOM     34  C   UNL     1       4.891   9.173  -5.284  0.00  0.00    +0.001 A 
ATOM     35  C   UNL     1       3.727   8.438  -5.084  0.00  0.00    +0.007 A 
ATOM     36  C   UNL     1       3.594   7.513  -4.025  0.00  0.00    -0.009 A 
ATOM     37  C   UNL     1       2.268   6.799  -4.002  0.00  0.00    +0.047 C 
ENDBRANCH  29  30
ENDBRANCH  28  29
ENDBRANCH  26  28
ENDBRANCH  23  24
BRANCH  23  38
ATOM     38  C   UNL     1       6.725   2.748   0.672  0.00  0.00    +0.060 C 
BRANCH  38  39
ATOM     39  C   UNL     1       7.748   3.859   0.757  0.00  0.00    -0.046 A 
ATOM     40  C   UNL     1       8.763   3.959  -0.218  0.00  0.00    +0.004 A 
ATOM     41  C   UNL     1       9.842   4.832  -0.054  0.00  0.00    +0.000 A 
ATOM     42  C   UNL     1       9.924   5.627   1.083  0.00  0.00    +0.000 A 
ATOM     43  C   UNL     1       8.912   5.571   2.037  0.00  0.00    +0.000 A 
ATOM     44  C   UNL     1       7.831   4.696   1.874  0.00  0.00    +0.004 A 
ENDBRANCH  38  39
ENDBRANCH  23  38
ENDBRANCH   1  23
TORSDOF 15
