REMARK  Name = 
REMARK  3 active torsions:
REMARK  status: ('A' for Active; 'I' for Inactive)
REMARK    1  A    between atoms: N_1  and  C_2
REMARK    2  A    between atoms: C_7  and  C_8
REMARK    3  A    between atoms: C_8  and  O_9
REMARK                            x       y       z     vdW  Elec       q    Type
REMARK                         _______ _______ _______ _____ _____    ______ ____
ROOT
ATOM      1  C   UNL     1       2.476   0.023  -0.086  0.00  0.00    +0.039 A 
ATOM      2  C   UNL     1       3.202  -1.182  -0.183  0.00  0.00    +0.079 A 
ATOM      3  C   UNL     1       4.599  -1.157  -0.340  0.00  0.00    +0.017 A 
ATOM      4  C   UNL     1       5.284   0.059  -0.335  0.00  0.00    +0.001 A 
ATOM      5  C   UNL     1       4.581   1.249  -0.182  0.00  0.00    +0.002 A 
ATOM      6  C   UNL     1       3.190   1.229  -0.040  0.00  0.00    +0.023 A 
ENDROOT
BRANCH   1   7
ATOM      7  N   UNL     1       1.098   0.054   0.203  0.00  0.00    -0.357 N 
ATOM      8  H   UNL     1       0.618  -0.794  -0.126  0.00  0.00    +0.142 HD
ATOM      9  H   UNL     1       0.627   0.891  -0.124  0.00  0.00    +0.142 HD
ENDBRANCH   1   7
BRANCH   2  10
ATOM     10  C   UNL     1       2.472  -2.478  -0.221  0.00  0.00    +0.339 C 
ATOM     11  O   UNL     1       1.358  -2.601  -0.705  0.00  0.00    -0.245 OA
BRANCH  10  12
ATOM     12  O   UNL     1       3.143  -3.508   0.343  0.00  0.00    -0.477 OA
ATOM     13  H   UNL     1       3.919  -3.244   0.870  0.00  0.00    +0.295 HD
ENDBRANCH  10  12
ENDBRANCH   2  10
TORSDOF 3
