REMARK  Name = 
REMARK  5 active torsions:
REMARK  status: ('A' for Active; 'I' for Inactive)
REMARK    1  A    between atoms: CA_2  and  CB_3
REMARK    2  A    between atoms: CA_2  and  N_10
REMARK    3  A    between atoms: CA_2  and  C_14
REMARK    4  A    between atoms: CB_3  and  CG_4
REMARK    5  A    between atoms: C_14  and  O_15
REMARK                            x       y       z     vdW  Elec       q    Type
REMARK                         _______ _______ _______ _____ _____    ______ ____
ROOT
ATOM      1  CA  PHE A   1       2.222   0.042   0.008  0.00  0.00    +0.187 C 
ENDROOT
BRANCH   1   2
ATOM      2  N   PHE A   1       2.946   0.141  -1.264  0.00  0.00    -0.286 N 
ATOM      3  H   PHE A   1       3.707   0.808  -1.310  0.00  0.00    +0.151 HD
ATOM      4  C   UNK A   0       2.871  -0.804  -2.228  0.00  0.00    +0.298 C 
ATOM      5  O   UNK A   0       2.175  -1.806  -2.177  0.00  0.00    -0.253 OA
ATOM      6  N   UNK A   0       3.667  -0.529  -3.291  0.00  0.00    -0.313 N 
ATOM      7  H   UNK A   0       3.550  -1.160  -4.074  0.00  0.00    +0.146 HD
ATOM      8  H   UNK A   0       3.831   0.437  -3.531  0.00  0.00    +0.146 HD
ENDBRANCH   1   2
BRANCH   1   9
ATOM      9  C   PHE A   1       2.430   1.403   0.676  0.00  0.00    +0.326 C 
ATOM     10  OXT PHE A   1       3.531   1.921   0.821  0.00  0.00    -0.249 OA
BRANCH   9  11
ATOM     11  O   PHE A   1       1.289   2.051   1.007  0.00  0.00    -0.479 OA
ATOM     12  H   PHE A   1       0.469   1.572   0.786  0.00  0.00    +0.295 HD
ENDBRANCH   9  11
ENDBRANCH   1   9
BRANCH   1  13
ATOM     13  CB  PHE A   1       2.741  -1.091   0.915  0.00  0.00    +0.069 C 
BRANCH  13  14
ATOM     14  CG  PHE A   1       2.070  -1.233   2.269  0.00  0.00    -0.045 A 
ATOM     15  CD2 PHE A   1       2.820  -1.721   3.352  0.00  0.00    +0.004 A 
ATOM     16  CE2 PHE A   1       2.246  -1.862   4.618  0.00  0.00    +0.000 A 
ATOM     17  CZ  PHE A   1       0.912  -1.520   4.821  0.00  0.00    +0.000 A 
ATOM     18  CE1 PHE A   1       0.145  -1.070   3.750  0.00  0.00    +0.000 A 
ATOM     19  CD1 PHE A   1       0.713  -0.951   2.479  0.00  0.00    +0.004 A 
ENDBRANCH  13  14
ENDBRANCH   1  13
TORSDOF 5
