REMARK  Name = 
REMARK  49 active torsions:
REMARK  status: ('A' for Active; 'I' for Inactive)
REMARK    1  A    between atoms: C_1  and  C_2
REMARK    2  A    between atoms: N_4  and  C_5
REMARK    3  A    between atoms: C_9  and  C_11
REMARK    4  A    between atoms: C_11  and  O_12
REMARK    5  A    between atoms: C_13  and  O_15
REMARK    6  A    between atoms: O_15  and  C_16
REMARK    7  A    between atoms: C_19  and  C_21
REMARK    8  A    between atoms: C_21  and  O_22
REMARK    9  A    between atoms: C_23  and  O_25
REMARK   10  A    between atoms: O_25  and  C_26
REMARK   11  A    between atoms: C_29  and  C_31
REMARK   12  A    between atoms: C_31  and  O_32
REMARK   13  A    between atoms: O_32  and  C_33
REMARK   14  A    between atoms: C_36  and  C_38
REMARK   15  A    between atoms: C_38  and  O_39
REMARK   16  A    between atoms: C_40  and  O_42
REMARK   17  A    between atoms: C_43  and  O_45
REMARK   18  A    between atoms: O_45  and  C_46
REMARK   19  A    between atoms: C_49  and  C_51
REMARK   20  A    between atoms: C_51  and  O_52
REMARK   21  A    between atoms: C_53  and  O_55
REMARK   22  A    between atoms: C_56  and  O_58
REMARK   23  A    between atoms: C_59  and  O_61
REMARK   24  A    between atoms: C_62  and  O_64
REMARK   25  A    between atoms: C_65  and  O_67
REMARK   26  A    between atoms: C_68  and  O_70
REMARK   27  A    between atoms: O_70  and  C_71
REMARK   28  A    between atoms: C_74  and  C_76
REMARK   29  A    between atoms: C_76  and  O_77
REMARK   30  A    between atoms: C_78  and  O_80
REMARK   31  A    between atoms: C_81  and  O_83
REMARK   32  A    between atoms: C_84  and  O_86
REMARK   33  A    between atoms: O_86  and  C_87
REMARK   34  A    between atoms: C_90  and  C_92
REMARK   35  A    between atoms: C_92  and  O_93
REMARK   36  A    between atoms: C_94  and  O_96
REMARK   37  A    between atoms: C_97  and  O_99
REMARK   38  A    between atoms: C_100  and  O_102
REMARK   39  A    between atoms: O_102  and  C_103
REMARK   40  A    between atoms: C_106  and  C_108
REMARK   41  A    between atoms: C_108  and  O_109
REMARK   42  A    between atoms: C_110  and  O_112
REMARK   43  A    between atoms: C_113  and  O_115
REMARK   44  A    between atoms: C_116  and  O_118
REMARK   45  A    between atoms: C_119  and  O_121
REMARK   46  A    between atoms: C_122  and  O_124
REMARK   47  A    between atoms: C_125  and  N_127
REMARK   48  A    between atoms: C_128  and  C_129
REMARK   49  A    between atoms: C_131  and  O_133
REMARK                            x       y       z     vdW  Elec       q    Type
REMARK                         _______ _______ _______ _____ _____    ______ ____
ROOT
ATOM      1  C   UNL     1       1.912  -7.142   2.664  0.00  0.00    +0.282 C 
ATOM      2  C   UNL     1       1.514  -8.682   2.771  0.00  0.00    +0.202 C 
ATOM      3  C   UNL     1       0.021  -8.927   3.131  0.00  0.00    +0.186 C 
ATOM      4  C   UNL     1      -0.307  -8.003   4.382  0.00  0.00    +0.177 C 
ATOM      5  C   UNL     1       0.118  -6.430   4.333  0.00  0.00    +0.178 C 
ATOM      6  O   UNL     1       1.355  -6.189   3.597  0.00  0.00    -0.341 OA
ENDROOT
BRANCH   4   7
ATOM      7  O   UNL     1       0.438  -8.551   5.508  0.00  0.00    -0.386 OA
ATOM      8  H   UNL     1       1.396  -8.461   5.316  0.00  0.00    +0.210 HD
ENDBRANCH   4   7
BRANCH   2   9
ATOM      9  O   UNL     1       2.375  -9.347   3.721  0.00  0.00    -0.384 OA
ATOM     10  H   UNL     1       2.163 -10.303   3.673  0.00  0.00    +0.210 HD
ENDBRANCH   2   9
BRANCH   1  11
ATOM     11  O   UNL     1       1.660  -6.670   1.343  0.00  0.00    -0.340 OA
BRANCH  11  15
ATOM     12  C   UNL     1       3.926  -3.541  -0.645  0.00  0.00    +0.274 C 
ATOM     13  C   UNL     1       2.429  -3.770  -0.994  0.00  0.00    +0.160 C 
ATOM     14  C   UNL     1       1.742  -4.543   0.171  0.00  0.00    +0.171 C 
ATOM     15  C   UNL     1       2.547  -5.787   0.616  0.00  0.00    +0.183 C 
ATOM     16  C   UNL     1       4.025  -5.416   0.949  0.00  0.00    +0.178 C 
ATOM     17  O   UNL     1       4.600  -4.728  -0.204  0.00  0.00    -0.341 OA
BRANCH  13  18
ATOM     18  N   UNL     1       2.224  -4.404  -2.310  0.00  0.00    -0.305 N 
ATOM     19  H   UNL     1       2.276  -5.413  -2.363  0.00  0.00    +0.149 HD
ATOM     20  C   UNL     1       2.209  -3.857  -3.557  0.00  0.00    +0.210 C 
ATOM     21  O   UNL     1       2.195  -4.652  -4.507  0.00  0.00    -0.276 OA
ATOM     22  C   UNL     1       2.220  -2.375  -3.799  0.00  0.00    +0.109 C 
ENDBRANCH  13  18
BRANCH  14  23
ATOM     23  O   UNL     1       1.567  -3.651   1.269  0.00  0.00    -0.387 OA
ATOM     24  H   UNL     1       1.159  -4.143   1.974  0.00  0.00    +0.210 HD
ENDBRANCH  14  23
BRANCH  12  25
ATOM     25  O   UNL     1       3.982  -2.489   0.313  0.00  0.00    -0.341 OA
BRANCH  25  28
ATOM     26  C   UNL     1       4.655   0.189  -0.848  0.00  0.00    +0.130 C 
ATOM     27  C   UNL     1       5.648  -0.994  -0.679  0.00  0.00    +0.168 C 
ATOM     28  C   UNL     1       5.246  -1.846   0.538  0.00  0.00    +0.183 C 
ATOM     29  C   UNL     1       5.050  -0.950   1.801  0.00  0.00    +0.175 C 
ATOM     30  O   UNL     1       4.263   0.228   1.553  0.00  0.00    -0.370 OA
ATOM     31  C   UNL     1       4.686   1.017   0.435  0.00  0.00    +0.185 C 
BRANCH  26  34
ATOM     32  C   UNL     1       2.368   1.648  -2.275  0.00  0.00    +0.109 C 
ATOM     33  C   UNL     1       2.181   0.407  -1.465  0.00  0.00    +0.210 C 
ATOM     34  N   UNL     1       3.280  -0.289  -1.061  0.00  0.00    -0.308 N 
ATOM     35  H   UNL     1       2.982  -1.003  -0.396  0.00  0.00    +0.149 HD
ATOM     36  O   UNL     1       1.064  -0.044  -1.222  0.00  0.00    -0.276 OA
ENDBRANCH  26  34
BRANCH  27  37
ATOM     37  O   UNL     1       6.986  -0.515  -0.539  0.00  0.00    -0.387 OA
ATOM     38  H   UNL     1       7.552  -1.264  -0.259  0.00  0.00    +0.210 HD
ENDBRANCH  27  37
BRANCH  29  39
ATOM     39  C   UNL     1       6.351  -0.587   2.524  0.00  0.00    +0.190 C 
BRANCH  39  40
ATOM     40  O   UNL     1       7.078  -1.755   2.892  0.00  0.00    -0.392 OA
ATOM     41  H   UNL     1       6.630  -2.141   3.668  0.00  0.00    +0.210 HD
ENDBRANCH  39  40
ENDBRANCH  29  39
ENDBRANCH  25  28
ENDBRANCH  12  25
BRANCH  16  42
ATOM     42  C   UNL     1       4.408  -4.641   2.225  0.00  0.00    +0.190 C 
BRANCH  42  43
ATOM     43  O   UNL     1       4.286  -5.387   3.422  0.00  0.00    -0.392 OA
ATOM     44  H   UNL     1       3.401  -5.200   3.789  0.00  0.00    +0.210 HD
ENDBRANCH  42  43
ENDBRANCH  16  42
ENDBRANCH  11  15
ENDBRANCH   1  11
BRANCH   3  45
ATOM     45  O   UNL     1      -0.249 -10.461   3.284  0.00  0.00    -0.340 OA
BRANCH  45  46
ATOM     46  C   UNL     1      -1.586 -10.889   2.823  0.00  0.00    +0.283 C 
ATOM     47  C   UNL     1      -2.282 -12.400   2.890  0.00  0.00    +0.208 C 
ATOM     48  C   UNL     1      -1.900 -13.367   1.733  0.00  0.00    +0.179 C 
ATOM     49  C   UNL     1      -1.928 -12.667   0.368  0.00  0.00    +0.177 C 
ATOM     50  C   UNL     1      -1.231 -11.295   0.415  0.00  0.00    +0.178 C 
ATOM     51  O   UNL     1      -1.726 -10.438   1.461  0.00  0.00    -0.341 OA
BRANCH  48  52
ATOM     52  O   UNL     1      -0.699 -14.122   1.900  0.00  0.00    -0.386 OA
ATOM     53  H   UNL     1       0.008 -13.552   2.250  0.00  0.00    +0.210 HD
ENDBRANCH  48  52
BRANCH  49  54
ATOM     54  O   UNL     1      -3.305 -12.463  -0.012  0.00  0.00    -0.386 OA
ATOM     55  H   UNL     1      -3.534 -13.181  -0.629  0.00  0.00    +0.210 HD
ENDBRANCH  49  54
BRANCH  50  56
ATOM     56  C   UNL     1       0.302 -11.402   0.354  0.00  0.00    +0.190 C 
BRANCH  56  57
ATOM     57  O   UNL     1       0.708 -12.126  -0.804  0.00  0.00    -0.392 OA
ATOM     58  H   UNL     1       1.674 -12.041  -0.889  0.00  0.00    +0.210 HD
ENDBRANCH  56  57
ENDBRANCH  50  56
BRANCH  47  59
ATOM     59  O   UNL     1      -2.500 -13.189   4.097  0.00  0.00    -0.338 OA
BRANCH  59  60
ATOM     60  C   UNL     1      -3.288 -12.585   5.144  0.00  0.00    +0.283 C 
ATOM     61  C   UNL     1      -3.680 -13.517   6.369  0.00  0.00    +0.208 C 
ATOM     62  C   UNL     1      -5.092 -14.180   6.241  0.00  0.00    +0.179 C 
ATOM     63  C   UNL     1      -6.188 -13.143   5.815  0.00  0.00    +0.177 C 
ATOM     64  C   UNL     1      -5.729 -12.175   4.695  0.00  0.00    +0.178 C 
ATOM     65  O   UNL     1      -4.348 -11.766   4.653  0.00  0.00    -0.341 OA
BRANCH  63  66
ATOM     66  O   UNL     1      -6.597 -12.354   6.950  0.00  0.00    -0.386 OA
ATOM     67  H   UNL     1      -7.453 -11.916   6.698  0.00  0.00    +0.210 HD
ENDBRANCH  63  66
BRANCH  62  68
ATOM     68  O   UNL     1      -5.114 -15.294   5.346  0.00  0.00    -0.386 OA
ATOM     69  H   UNL     1      -5.183 -14.969   4.433  0.00  0.00    +0.210 HD
ENDBRANCH  62  68
BRANCH  64  70
ATOM     70  C   UNL     1      -6.256 -12.564   3.303  0.00  0.00    +0.190 C 
BRANCH  70  71
ATOM     71  O   UNL     1      -7.681 -12.686   3.318  0.00  0.00    -0.392 OA
ATOM     72  H   UNL     1      -8.043 -12.110   2.618  0.00  0.00    +0.210 HD
ENDBRANCH  70  71
ENDBRANCH  64  70
BRANCH  61  73
ATOM     73  O   UNL     1      -2.591 -14.059   7.160  0.00  0.00    -0.338 OA
BRANCH  73  74
ATOM     74  C   UNL     1      -1.933 -15.344   7.190  0.00  0.00    +0.282 C 
ATOM     75  C   UNL     1      -1.046 -15.322   8.510  0.00  0.00    +0.201 C 
ATOM     76  C   UNL     1       0.472 -15.183   8.233  0.00  0.00    +0.179 C 
ATOM     77  C   UNL     1       0.904 -16.355   7.342  0.00  0.00    +0.177 C 
ATOM     78  C   UNL     1       0.038 -16.397   6.059  0.00  0.00    +0.178 C 
ATOM     79  O   UNL     1      -1.132 -15.546   6.024  0.00  0.00    -0.341 OA
BRANCH  75  80
ATOM     80  O   UNL     1      -1.280 -16.504   9.332  0.00  0.00    -0.384 OA
ATOM     81  H   UNL     1      -0.430 -17.001   9.392  0.00  0.00    +0.210 HD
ENDBRANCH  75  80
BRANCH  76  82
ATOM     82  O   UNL     1       0.806 -13.914   7.668  0.00  0.00    -0.386 OA
ATOM     83  H   UNL     1       1.724 -13.985   7.270  0.00  0.00    +0.210 HD
ENDBRANCH  76  82
BRANCH  77  84
ATOM     84  O   UNL     1       0.797 -17.587   8.089  0.00  0.00    -0.386 OA
ATOM     85  H   UNL     1       1.193 -18.309   7.561  0.00  0.00    +0.210 HD
ENDBRANCH  77  84
BRANCH  78  86
ATOM     86  C   UNL     1       0.906 -15.861   4.900  0.00  0.00    +0.190 C 
BRANCH  86  87
ATOM     87  O   UNL     1       1.264 -14.494   5.138  0.00  0.00    -0.392 OA
ATOM     88  H   UNL     1       0.461 -14.085   5.537  0.00  0.00    +0.210 HD
ENDBRANCH  86  87
ENDBRANCH  78  86
ENDBRANCH  73  74
ENDBRANCH  61  73
ENDBRANCH  59  60
ENDBRANCH  47  59
ENDBRANCH  45  46
ENDBRANCH   3  45
BRANCH   5  89
ATOM     89  C   UNL     1      -1.022  -5.151   4.223  0.00  0.00    +0.197 C 
BRANCH  89  90
ATOM     90  O   UNL     1      -0.835  -4.008   5.232  0.00  0.00    -0.346 OA
BRANCH  90  91
ATOM     91  C   UNL     1      -1.793  -2.840   5.244  0.00  0.00    +0.282 C 
ATOM     92  C   UNL     1      -1.360  -1.456   6.050  0.00  0.00    +0.202 C 
ATOM     93  C   UNL     1      -1.748  -1.253   7.578  0.00  0.00    +0.186 C 
ATOM     94  C   UNL     1      -3.204  -1.757   7.741  0.00  0.00    +0.177 C 
ATOM     95  C   UNL     1      -3.464  -3.112   7.030  0.00  0.00    +0.178 C 
ATOM     96  O   UNL     1      -3.137  -3.189   5.628  0.00  0.00    -0.341 OA
BRANCH  92  97
ATOM     97  O   UNL     1      -2.043  -0.342   5.354  0.00  0.00    -0.384 OA
ATOM     98  H   UNL     1      -2.761   0.018   5.928  0.00  0.00    +0.210 HD
ENDBRANCH  92  97
BRANCH  94  99
ATOM     99  O   UNL     1      -4.105  -0.751   7.225  0.00  0.00    -0.386 OA
ATOM    100  H   UNL     1      -5.022  -1.076   7.347  0.00  0.00    +0.210 HD
ENDBRANCH  94  99
BRANCH  95 101
ATOM    101  C   UNL     1      -2.771  -4.239   7.784  0.00  0.00    +0.190 C 
BRANCH 101 102
ATOM    102  O   UNL     1      -3.444  -5.472   7.547  0.00  0.00    -0.392 OA
ATOM    103  H   UNL     1      -3.143  -5.789   6.677  0.00  0.00    +0.210 HD
ENDBRANCH 101 102
ENDBRANCH  95 101
BRANCH  93 104
ATOM    104  O   UNL     1      -0.872  -1.785   8.630  0.00  0.00    -0.340 OA
BRANCH 104 105
ATOM    105  C   UNL     1       0.048  -0.802   9.302  0.00  0.00    +0.282 C 
ATOM    106  C   UNL     1       0.865  -1.509  10.462  0.00  0.00    +0.201 C 
ATOM    107  C   UNL     1       0.960  -0.807  11.839  0.00  0.00    +0.179 C 
ATOM    108  C   UNL     1       0.664   0.677  11.856  0.00  0.00    +0.177 C 
ATOM    109  C   UNL     1      -0.410   1.130  10.856  0.00  0.00    +0.178 C 
ATOM    110  O   UNL     1      -0.676   0.361   9.673  0.00  0.00    -0.341 OA
BRANCH 106 111
ATOM    111  O   UNL     1       2.229  -1.702   9.999  0.00  0.00    -0.384 OA
ATOM    112  H   UNL     1       2.740  -2.116  10.721  0.00  0.00    +0.210 HD
ENDBRANCH 106 111
BRANCH 107 113
ATOM    113  O   UNL     1       0.191  -1.472  12.846  0.00  0.00    -0.386 OA
ATOM    114  H   UNL     1      -0.674  -1.696  12.494  0.00  0.00    +0.210 HD
ENDBRANCH 107 113
BRANCH 108 115
ATOM    115  O   UNL     1       1.880   1.393  11.585  0.00  0.00    -0.386 OA
ATOM    116  H   UNL     1       2.466   1.296  12.358  0.00  0.00    +0.210 HD
ENDBRANCH 108 115
BRANCH 109 117
ATOM    117  C   UNL     1      -1.795   1.284  11.515  0.00  0.00    +0.190 C 
BRANCH 117 118
ATOM    118  O   UNL     1      -2.556   2.287  10.833  0.00  0.00    -0.392 OA
ATOM    119  H   UNL     1      -2.512   2.076   9.882  0.00  0.00    +0.210 HD
ENDBRANCH 117 118
ENDBRANCH 109 117
ENDBRANCH 104 105
ENDBRANCH  93 104
ENDBRANCH  90  91
ENDBRANCH  89  90
ENDBRANCH   5  89
TORSDOF 47
