REMARK  Name = 
REMARK  3 active torsions:
REMARK  status: ('A' for Active; 'I' for Inactive)
REMARK    1  A    between atoms: C_1  and  C_2
REMARK    2  A    between atoms: C_5  and  O_6
REMARK    3  A    between atoms: C_7  and  O_8
REMARK                            x       y       z     vdW  Elec       q    Type
REMARK                         _______ _______ _______ _____ _____    ______ ____
ROOT
ATOM      1  C   UNL     1       1.029  -0.093   0.010  0.00  0.00    +0.044 C 
ATOM      2  C   UNL     1       2.523  -0.117  -0.123  0.00  0.00    -0.047 A 
ATOM      3  C   UNL     1       3.194  -1.346  -0.194  0.00  0.00    +0.052 A 
ATOM      4  C   UNL     1       4.576  -1.365  -0.319  0.00  0.00    +0.158 A 
ATOM      5  C   UNL     1       5.305  -0.180  -0.373  0.00  0.00    +0.158 A 
ATOM      6  C   UNL     1       4.657   1.046  -0.296  0.00  0.00    +0.049 A 
ATOM      7  C   UNL     1       3.264   1.074  -0.169  0.00  0.00    +0.007 A 
ENDROOT
BRANCH   4   8
ATOM      8  O   UNL     1       5.223  -2.566  -0.393  0.00  0.00    -0.503 OA
ATOM      9  H   UNL     1       6.167  -2.328  -0.476  0.00  0.00    +0.292 HD
ENDBRANCH   4   8
BRANCH   5  10
ATOM     10  O   UNL     1       6.663  -0.274  -0.504  0.00  0.00    -0.503 OA
ATOM     11  H   UNL     1       7.022   0.629  -0.551  0.00  0.00    +0.292 HD
ENDBRANCH   5  10
TORSDOF 2
