REMARK  Name = 
REMARK  6 active torsions:
REMARK  status: ('A' for Active; 'I' for Inactive)
REMARK    1  A    between atoms: C_1  and  O_2
REMARK    2  A    between atoms: O_2  and  C_3
REMARK    3  A    between atoms: C_6  and  C_8
REMARK    4  A    between atoms: C_10  and  O_12
REMARK    5  A    between atoms: C_13  and  O_15
REMARK    6  A    between atoms: C_16  and  O_18
REMARK                            x       y       z     vdW  Elec       q    Type
REMARK                         _______ _______ _______ _____ _____    ______ ____
ROOT
ATOM      1  C   UNL     1       2.784   0.017  -1.505  0.00  0.00    +0.282 C 
ATOM      2  C   UNL     1       2.244   1.270  -2.240  0.00  0.00    +0.201 C 
ATOM      3  C   UNL     1       0.724   1.169  -2.464  0.00  0.00    +0.179 C 
ATOM      4  C   UNL     1       0.338  -0.186  -3.074  0.00  0.00    +0.179 C 
ATOM      5  C   UNL     1       0.960  -1.364  -2.298  0.00  0.00    +0.182 C 
ATOM      6  O   UNL     1       2.369  -1.207  -2.137  0.00  0.00    -0.338 OA
ENDROOT
BRANCH   1   8
ATOM      7  C   UNL     1       3.143   0.951   0.652  0.00  0.00    +0.197 C 
ATOM      8  O   UNL     1       2.456  -0.033  -0.115  0.00  0.00    -0.352 OA
ENDBRANCH   1   8
BRANCH   2   9
ATOM      9  O   UNL     1       2.967   1.436  -3.471  0.00  0.00    -0.384 OA
ATOM     10  H   UNL     1       2.377   1.858  -4.119  0.00  0.00    +0.210 HD
ENDBRANCH   2   9
BRANCH   3  11
ATOM     11  O   UNL     1       0.040   1.416  -1.234  0.00  0.00    -0.386 OA
ATOM     12  H   UNL     1      -0.901   1.183  -1.342  0.00  0.00    +0.210 HD
ENDBRANCH   3  11
BRANCH   4  13
ATOM     13  O   UNL     1       0.764  -0.183  -4.450  0.00  0.00    -0.386 OA
ATOM     14  H   UNL     1       0.867  -1.103  -4.747  0.00  0.00    +0.210 HD
ENDBRANCH   4  13
BRANCH   5  15
ATOM     15  C   UNL     1       0.293  -1.789  -0.986  0.00  0.00    +0.059 C 
ATOM     16  S   UNL     1      -1.353  -1.672  -0.672  0.00  0.00    -0.062 S 
ENDBRANCH   5  15
TORSDOF 5
