REMARK  Name = 
REMARK  9 active torsions:
REMARK  status: ('A' for Active; 'I' for Inactive)
REMARK    1  A    between atoms: O_1  and  C_2
REMARK    2  A    between atoms: C_2  and  C_4
REMARK    3  A    between atoms: C_4  and  C_5
REMARK    4  A    between atoms: C_5  and  C_6
REMARK    5  A    between atoms: C_6  and  N_7
REMARK    6  A    between atoms: C_10  and  O_13
REMARK    7  A    between atoms: O_13  and  C_14
REMARK    8  A    between atoms: C_14  and  C_15
REMARK    9  A    between atoms: C_14  and  C_22
REMARK                            x       y       z     vdW  Elec       q    Type
REMARK                         _______ _______ _______ _____ _____    ______ ____
ROOT
ATOM      1  O   UNL     1       9.360  -0.939  -4.343  0.00  0.00    -0.363 OA
ENDROOT
BRANCH   1   5
ATOM      2  N   UNL     1       6.693  -0.596  -1.789  0.00  0.00    -0.302 NA
ATOM      3  C   UNL     1       7.296   0.432  -2.661  0.00  0.00    +0.087 C 
ATOM      4  C   UNL     1       7.252   0.060  -4.153  0.00  0.00    +0.047 C 
ATOM      5  C   UNL     1       7.972  -1.268  -4.413  0.00  0.00    +0.122 C 
ATOM      6  C   UNL     1       7.461  -2.341  -3.434  0.00  0.00    +0.047 C 
ATOM      7  C   UNL     1       7.418  -1.862  -1.980  0.00  0.00    +0.087 C 
BRANCH   2   8
ATOM      8  C   UNL     1       5.239  -0.666  -1.996  0.00  0.00    +0.085 C 
BRANCH   8   9
ATOM      9  C   UNL     1       4.487  -1.610  -1.052  0.00  0.00    +0.026 C 
BRANCH   9  10
ATOM     10  C   UNL     1       2.993  -1.568  -1.366  0.00  0.00    +0.121 C 
BRANCH  10  11
ATOM     11  C   UNL     1       2.238  -2.539  -0.499  0.00  0.00    +0.305 C 
ATOM     12  O   UNL     1       2.032  -3.704  -0.801  0.00  0.00    -0.251 OA
BRANCH  11  13
ATOM     13  O   UNL     1       1.835  -2.003   0.675  0.00  0.00    -0.481 OA
ATOM     14  H   UNL     1       2.091  -1.068   0.794  0.00  0.00    +0.295 HD
ENDBRANCH  11  13
ENDBRANCH  10  11
ENDBRANCH   9  10
ENDBRANCH   8   9
ENDBRANCH   2   8
ENDBRANCH   1   5
BRANCH   1  15
ATOM     15  C   UNL     1      10.323  -1.988  -4.432  0.00  0.00    +0.197 C 
BRANCH  15  16
ATOM     16  C   UNL     1      10.447  -2.637  -5.815  0.00  0.00    -0.013 A 
ATOM     17  C   UNL     1      10.451  -4.039  -5.921  0.00  0.00    +0.008 A 
ATOM     18  C   UNL     1      10.834  -4.665  -7.112  0.00  0.00    +0.020 A 
ATOM     19  C   UNL     1      11.221  -3.896  -8.206  0.00  0.00    +0.041 A 
ATOM     20 CL   UNL     1      11.841  -4.661  -9.617  0.00  0.00    -0.084 Cl
ATOM     21  C   UNL     1      11.136  -2.509  -8.151  0.00  0.00    +0.020 A 
ATOM     22  C   UNL     1      10.718  -1.885  -6.972  0.00  0.00    +0.008 A 
ENDBRANCH  15  16
BRANCH  15  23
ATOM     23  C   UNL     1      11.666  -1.398  -3.969  0.00  0.00    +0.074 A 
ATOM     24  N   UNL     1      12.320  -2.034  -2.961  0.00  0.00    -0.257 NA
ATOM     25  C   UNL     1      13.522  -1.535  -2.588  0.00  0.00    +0.111 A 
ATOM     26  C   UNL     1      14.134  -0.448  -3.190  0.00  0.00    +0.020 A 
ATOM     27  C   UNL     1      13.456   0.202  -4.208  0.00  0.00    +0.003 A 
ATOM     28  C   UNL     1      12.197  -0.256  -4.580  0.00  0.00    +0.026 A 
ENDBRANCH  15  23
ENDBRANCH   1  15
TORSDOF 9
