REMARK  Name = 
REMARK  4 active torsions:
REMARK  status: ('A' for Active; 'I' for Inactive)
REMARK    1  A    between atoms: C_1  and  C_2
REMARK    2  A    between atoms: C_2  and  O_3
REMARK    3  A    between atoms: C_2  and  C_4
REMARK    4  A    between atoms: C_4  and  O_5
REMARK                            x       y       z     vdW  Elec       q    Type
REMARK                         _______ _______ _______ _____ _____    ______ ____
ROOT
ATOM      1  C   UNL     1       0.956   0.032   0.001  0.00  0.00    +0.049 C 
ATOM      2  C   UNL     1       2.471   0.101  -0.051  0.00  0.00    +0.219 C 
ENDROOT
BRANCH   2   3
ATOM      3  C   UNL     1       2.985   0.555  -1.418  0.00  0.00    +0.333 C 
ATOM      4  O   UNL     1       2.431   1.343  -2.165  0.00  0.00    -0.248 OA
BRANCH   3   5
ATOM      5  O   UNL     1       4.178  -0.033  -1.706  0.00  0.00    -0.479 OA
ATOM      6  H   UNL     1       4.418  -0.631  -0.960  0.00  0.00    +0.295 HD
ENDBRANCH   3   5
ENDBRANCH   2   3
BRANCH   2   7
ATOM      7  O   UNL     1       3.038  -1.189   0.233  0.00  0.00    -0.381 OA
ATOM      8  H   UNL     1       2.520  -1.848  -0.270  0.00  0.00    +0.210 HD
ENDBRANCH   2   7
TORSDOF 3
