REMARK  Name = 
REMARK  5 active torsions:
REMARK  status: ('A' for Active; 'I' for Inactive)
REMARK    1  A    between atoms: O_1  and  C_2
REMARK    2  A    between atoms: C_2  and  C_3
REMARK    3  A    between atoms: C_8  and  O_10
REMARK    4  A    between atoms: C_11  and  O_13
REMARK    5  A    between atoms: C_14  and  O_16
REMARK                            x       y       z     vdW  Elec       q    Type
REMARK                         _______ _______ _______ _____ _____    ______ ____
ROOT
ATOM      1  C   UNL     1       2.998  -0.972  -0.745  0.00  0.00    +0.233 C 
ATOM      2  C   UNL     1       1.983  -2.065  -1.100  0.00  0.00    +0.189 C 
ATOM      3  C   UNL     1       1.612  -2.867   0.149  0.00  0.00    +0.186 C 
ATOM      4  C   UNL     1       2.862  -3.416   0.834  0.00  0.00    +0.254 C 
ATOM      5  C   UNL     1       3.945  -2.356   1.013  0.00  0.00    +0.339 C 
ATOM      6  O   UNL     1       4.731  -2.402   1.955  0.00  0.00    -0.248 OA
ATOM      7  O   UNL     1       4.128  -1.477   0.001  0.00  0.00    -0.454 OA
ENDROOT
BRANCH   2   8
ATOM      8  O   UNL     1       2.546  -2.894  -2.126  0.00  0.00    -0.385 OA
ATOM      9  H   UNL     1       2.314  -3.825  -1.954  0.00  0.00    +0.210 HD
ENDBRANCH   2   8
BRANCH   3  10
ATOM     10  O   UNL     1       0.854  -2.090   1.076  0.00  0.00    -0.386 OA
ATOM     11  H   UNL     1       0.175  -1.600   0.578  0.00  0.00    +0.210 HD
ENDBRANCH   3  10
BRANCH   4  12
ATOM     12  O   UNL     1       3.372  -4.537   0.104  0.00  0.00    -0.378 OA
ATOM     13  H   UNL     1       4.184  -4.821   0.571  0.00  0.00    +0.211 HD
ENDBRANCH   4  12
BRANCH   1  14
ATOM     14  C   UNL     1       2.425   0.224   0.029  0.00  0.00    +0.203 C 
BRANCH  14  15
ATOM     15  O   UNL     1       1.216   0.696  -0.552  0.00  0.00    -0.391 OA
ATOM     16  H   UNL     1       1.055   1.583  -0.182  0.00  0.00    +0.210 HD
ENDBRANCH  14  15
ENDBRANCH   1  14
TORSDOF 5
