REMARK  Name = 
REMARK  7 active torsions:
REMARK  status: ('A' for Active; 'I' for Inactive)
REMARK    1  A    between atoms: S_1  and  C_2
REMARK    2  A    between atoms: C_2  and  C_3
REMARK    3  A    between atoms: C_3  and  C_4
REMARK    4  A    between atoms: C_4  and  S_6
REMARK    5  A    between atoms: S_6  and  C_7
REMARK    6  A    between atoms: C_7  and  C_8
REMARK    7  A    between atoms: C_8  and  C_9
REMARK                            x       y       z     vdW  Elec       q    Type
REMARK                         _______ _______ _______ _____ _____    ______ ____
ROOT
ATOM      1  C   UNL     1       4.861   1.338  -0.583  0.00  0.00    +0.190 C 
ATOM      2  O   UNL     1       5.557   0.389  -0.249  0.00  0.00    -0.285 OA
ENDROOT
BRANCH   1   3
ATOM      3  C   UNL     1       3.350   1.325  -0.587  0.00  0.00    +0.097 C 
BRANCH   3   4
ATOM      4  C   UNL     1       2.815   0.406   0.500  0.00  0.00    +0.074 C 
BRANCH   4   5
ATOM      5  S   UNL     1       0.996   0.434   0.490  0.00  0.00    -0.178 S 
ATOM      6  H   UNL     1       0.820  -0.416   1.514  0.00  0.00    +0.102 HD
ENDBRANCH   4   5
ENDBRANCH   3   4
ENDBRANCH   1   3
BRANCH   1   7
ATOM      7  S   UNL     1       5.561   2.852  -1.154  0.00  0.00    -0.088 S 
BRANCH   7   8
ATOM      8  C   UNL     1       7.122   2.230  -1.851  0.00  0.00    +0.084 C 
BRANCH   8   9
ATOM      9  C   UNL     1       7.899   3.405  -2.428  0.00  0.00    +0.082 C 
BRANCH   9  10
ATOM     10  C   UNL     1       9.198   2.967  -3.052  0.00  0.00    +0.224 C 
ATOM     11  O   UNL     1       9.578   1.804  -3.124  0.00  0.00    -0.301 OA
ENDBRANCH   9  10
ENDBRANCH   8   9
ENDBRANCH   7   8
ENDBRANCH   1   7
TORSDOF 7
