REMARK  Name = 
REMARK  5 active torsions:
REMARK  status: ('A' for Active; 'I' for Inactive)
REMARK    1  A    between atoms: C_1  and  C_2
REMARK    2  A    between atoms: C_2  and  CA_3
REMARK    3  A    between atoms: CA_3  and  N_5
REMARK    4  A    between atoms: CA_3  and  C_6
REMARK    5  A    between atoms: C_6  and  O_7
REMARK                            x       y       z     vdW  Elec       q    Type
REMARK                         _______ _______ _______ _____ _____    ______ ____
ROOT
ATOM      1  CA  UNL     1       3.109   0.867  -1.117  0.00  0.00    +0.160 C 
ENDROOT
BRANCH   1   2
ATOM      2  N   UNL     1       2.786   2.297  -0.844  0.00  0.00    -0.318 NA
ATOM      3  H1  UNL     1       3.058   2.840  -1.672  0.00  0.00    +0.119 HD
ATOM      4  H2  UNL     1       1.767   2.395  -0.813  0.00  0.00    +0.119 HD
ENDBRANCH   1   2
BRANCH   1   6
ATOM      5  C   UNL     1       1.032  -0.101   0.021  0.00  0.00    +0.006 C 
ATOM      6  C   UNL     1       2.553  -0.056  -0.028  0.00  0.00    +0.026 C 
ENDBRANCH   1   6
BRANCH   1   7
ATOM      7  C   UNL     1       4.638   0.720  -1.151  0.00  0.00    +0.322 C 
ATOM      8  OXT UNL     1       5.246  -0.182  -1.703  0.00  0.00    -0.249 OA
BRANCH   7   9
ATOM      9  O   UNL     1       5.240   1.716  -0.448  0.00  0.00    -0.480 OA
ATOM     10  H   UNL     1       4.510   2.301  -0.124  0.00  0.00    +0.295 HD
ENDBRANCH   7   9
ENDBRANCH   1   7
TORSDOF 4
