REMARK  Name = 
REMARK  30 active torsions:
REMARK  status: ('A' for Active; 'I' for Inactive)
REMARK    1  A    between atoms: C_1  and  C_2
REMARK    2  A    between atoms: C_2  and  C_3
REMARK    3  A    between atoms: C_2  and  C_4
REMARK    4  A    between atoms: C_2  and  C_40
REMARK    5  A    between atoms: C_4  and  O_5
REMARK    6  A    between atoms: O_5  and  P_6
REMARK    7  A    between atoms: P_6  and  O_7
REMARK    8  A    between atoms: P_6  and  O_9
REMARK    9  A    between atoms: O_9  and  P_10
REMARK   10  A    between atoms: P_10  and  O_11
REMARK   11  A    between atoms: P_10  and  O_13
REMARK   12  A    between atoms: O_13  and  C_14
REMARK   13  A    between atoms: C_14  and  C_15
REMARK   14  A    between atoms: C_18  and  N_30
REMARK   15  A    between atoms: C_20  and  O_22
REMARK   16  A    between atoms: C_23  and  O_25
REMARK   17  A    between atoms: O_25  and  P_26
REMARK   18  A    between atoms: P_26  and  O_27
REMARK   19  A    between atoms: P_26  and  O_28
REMARK   20  A    between atoms: C_40  and  O_42
REMARK   21  A    between atoms: C_40  and  C_43
REMARK   22  A    between atoms: N_45  and  C_46
REMARK   23  A    between atoms: C_46  and  C_47
REMARK   24  A    between atoms: C_47  and  C_48
REMARK   25  A    between atoms: N_50  and  C_51
REMARK   26  A    between atoms: C_51  and  C_52
REMARK   27  A    between atoms: C_52  and  S_53
REMARK   28  A    between atoms: S_53  and  C_54
REMARK   29  A    between atoms: C_54  and  C_55
REMARK   30  A    between atoms: C_58  and  O_59
REMARK                            x       y       z     vdW  Elec       q    Type
REMARK                         _______ _______ _______ _____ _____    ______ ____
ROOT
ATOM      1  P   UNL     1      -2.724  -1.365   3.184  0.00  0.00    +0.483 P 
ATOM      2  O   UNL     1      -2.784  -2.621   2.311  0.00  0.00    -0.227 OA
ENDROOT
BRANCH   1   3
ATOM      3  O   UNL     1      -2.298  -2.398   4.505  0.00  0.00    -0.302 OA
ATOM      4  H   UNL     1      -2.212  -3.256   4.039  0.00  0.00    +0.222 HD
ENDBRANCH   1   3
BRANCH   1   5
ATOM      5  O   UNL     1      -1.175  -0.798   3.235  0.00  0.00    -0.286 OA
BRANCH   5   6
ATOM      6  C   UNL     1      -0.952   0.576   3.480  0.00  0.00    +0.181 C 
BRANCH   6   8
ATOM      7  C   UNL     1       0.461   2.591   3.649  0.00  0.00    +0.016 C 
ATOM      8  C   UNL     1       0.535   1.043   3.545  0.00  0.00    +0.024 C 
ATOM      9  C   UNL     1       1.256   0.494   4.783  0.00  0.00    +0.016 C 
BRANCH   8  10
ATOM     10  C   UNL     1       1.373   0.700   2.292  0.00  0.00    +0.208 C 
BRANCH  10  11
ATOM     11  C   UNL     1       1.387  -0.771   1.871  0.00  0.00    +0.242 C 
ATOM     12  N   UNL     1       2.622  -1.371   1.744  0.00  0.00    -0.313 N 
ATOM     13  H   UNL     1       3.410  -0.804   2.032  0.00  0.00    +0.149 HD
ATOM     14  O   UNL     1       0.360  -1.336   1.527  0.00  0.00    -0.273 OA
BRANCH  12  15
ATOM     15  C   UNL     1       2.832  -2.760   1.330  0.00  0.00    +0.113 C 
BRANCH  15  16
ATOM     16  C   UNL     1       1.607  -3.625   1.004  0.00  0.00    +0.114 C 
BRANCH  16  17
ATOM     17  C   UNL     1       0.755  -3.224  -0.211  0.00  0.00    +0.215 C 
ATOM     18  N   UNL     1       1.172  -2.112  -0.928  0.00  0.00    -0.314 N 
ATOM     19  H   UNL     1       1.814  -1.500  -0.448  0.00  0.00    +0.149 HD
ATOM     20  O   UNL     1      -0.231  -3.887  -0.534  0.00  0.00    -0.276 OA
BRANCH  18  21
ATOM     21  C   UNL     1       0.324  -1.490  -1.930  0.00  0.00    +0.115 C 
BRANCH  21  22
ATOM     22  C   UNL     1      -0.576  -0.348  -1.439  0.00  0.00    +0.088 C 
BRANCH  22  23
ATOM     23  S   UNL     1       0.145   1.290  -0.969  0.00  0.00    -0.155 S 
BRANCH  23  24
ATOM     24  C   UNL     1       1.562   1.495  -2.087  0.00  0.00    +0.104 C 
BRANCH  24  25
ATOM     25  C   UNL     1       2.476   2.617  -1.628  0.00  0.00    -0.037 A 
ATOM     26  C   UNL     1       2.413   3.890  -2.215  0.00  0.00    +0.008 A 
ATOM     27  C   UNL     1       3.276   4.913  -1.803  0.00  0.00    +0.046 A 
ATOM     28  C   UNL     1       4.196   4.675  -0.787  0.00  0.00    +0.117 A 
ATOM     29  C   UNL     1       4.276   3.429  -0.185  0.00  0.00    +0.046 A 
ATOM     30  C   UNL     1       3.424   2.400  -0.612  0.00  0.00    +0.008 A 
BRANCH  28  31
ATOM     31  O   UNL     1       5.007   5.705  -0.410  0.00  0.00    -0.507 OA
ATOM     32  H   UNL     1       5.602   5.392   0.294  0.00  0.00    +0.292 HD
ENDBRANCH  28  31
ENDBRANCH  24  25
ENDBRANCH  23  24
ENDBRANCH  22  23
ENDBRANCH  21  22
ENDBRANCH  18  21
ENDBRANCH  16  17
ENDBRANCH  15  16
ENDBRANCH  12  15
ENDBRANCH  10  11
BRANCH  10  33
ATOM     33  O   UNL     1       2.707   1.225   2.377  0.00  0.00    -0.382 OA
ATOM     34  H   UNL     1       2.648   2.133   2.023  0.00  0.00    +0.210 HD
ENDBRANCH  10  33
ENDBRANCH   8  10
ENDBRANCH   6   8
ENDBRANCH   5   6
ENDBRANCH   1   5
BRANCH   1  35
ATOM     35  O   UNL     1      -3.151  -0.332   1.863  0.00  0.00    -0.186 OA
BRANCH  35  36
ATOM     36  P   UNL     1      -4.514   0.637   2.305  0.00  0.00    +0.483 P 
ATOM     37  O   UNL     1      -3.844   1.061   3.610  0.00  0.00    -0.227 OA
BRANCH  36  38
ATOM     38  O   UNL     1      -5.398  -0.697   2.609  0.00  0.00    -0.302 OA
ATOM     39  H   UNL     1      -5.902  -1.036   1.847  0.00  0.00    +0.222 HD
ENDBRANCH  36  38
BRANCH  36  40
ATOM     40  O   UNL     1      -5.877   1.606   2.748  0.00  0.00    -0.284 OA
BRANCH  40  41
ATOM     41  C   UNL     1      -6.296   2.458   1.680  0.00  0.00    +0.206 C 
BRANCH  41  42
ATOM     42  C   UNL     1      -7.552   3.273   2.042  0.00  0.00    +0.179 C 
ATOM     43  C   UNL     1      -8.712   2.387   2.511  0.00  0.00    +0.194 C 
ATOM     44  C   UNL     1      -8.683   2.499   4.031  0.00  0.00    +0.196 C 
ATOM     45  C   UNL     1      -7.512   3.435   4.353  0.00  0.00    +0.253 C 
ATOM     46  O   UNL     1      -7.236   4.155   3.134  0.00  0.00    -0.346 OA
BRANCH  45  47
ATOM     47  N   UNL     1      -7.811   4.385   5.413  0.00  0.00    -0.286 N 
ATOM     48  C   UNL     1      -8.280   4.056   6.656  0.00  0.00    +0.167 A 
ATOM     49  N   UNL     1      -8.544   2.829   7.148  0.00  0.00    -0.216 NA
ATOM     50  C   UNL     1      -9.007   2.921   8.406  0.00  0.00    +0.225 A 
ATOM     51  N   UNL     1      -9.237   4.022   9.147  0.00  0.00    -0.219 NA
ATOM     52  C   UNL     1      -8.978   5.231   8.595  0.00  0.00    +0.147 A 
ATOM     53  N   UNL     1      -9.242   6.368   9.348  0.00  0.00    -0.341 N 
ATOM     54  H   UNL     1      -8.727   7.187   9.046  0.00  0.00    +0.144 HD
ATOM     55  H   UNL     1      -9.276   6.174  10.342  0.00  0.00    +0.144 HD
ATOM     56  C   UNL     1      -8.455   5.275   7.302  0.00  0.00    +0.147 A 
ATOM     57  N   UNL     1      -8.051   6.330   6.498  0.00  0.00    -0.231 NA
ATOM     58  C   UNL     1      -7.652   5.751   5.375  0.00  0.00    +0.203 A 
ENDBRANCH  45  47
BRANCH  44  59
ATOM     59  O   UNL     1      -8.560   1.205   4.625  0.00  0.00    -0.385 OA
ATOM     60  H   UNL     1      -8.547   1.353   5.594  0.00  0.00    +0.210 HD
ENDBRANCH  44  59
BRANCH  43  61
ATOM     61  O   UNL     1     -10.013   2.850   2.147  0.00  0.00    -0.278 OA
BRANCH  61  62
ATOM     62  P   UNL     1     -10.401   3.171   0.639  0.00  0.00    +0.473 P 
ATOM     63  O   UNL     1      -9.650   2.427  -0.408  0.00  0.00    -0.228 OA
BRANCH  62  64
ATOM     64  O   UNL     1     -10.277   4.759   0.602  0.00  0.00    -0.303 OA
ATOM     65  H   UNL     1     -10.855   5.159   1.281  0.00  0.00    +0.222 HD
ENDBRANCH  62  64
BRANCH  62  66
ATOM     66  O   UNL     1     -11.981   2.976   0.599  0.00  0.00    -0.303 OA
ATOM     67  H   UNL     1     -12.234   2.044   0.461  0.00  0.00    +0.222 HD
ENDBRANCH  62  66
ENDBRANCH  61  62
ENDBRANCH  43  61
ENDBRANCH  41  42
ENDBRANCH  40  41
ENDBRANCH  36  40
ENDBRANCH  35  36
ENDBRANCH   1  35
TORSDOF 28
