REMARK  Name = 
REMARK  4 active torsions:
REMARK  status: ('A' for Active; 'I' for Inactive)
REMARK    1  A    between atoms: C_1  and  C_2
REMARK    2  A    between atoms: C_15  and  O_16
REMARK    3  A    between atoms: O_16  and  S_17
REMARK    4  A    between atoms: S_17  and  O_18
REMARK                            x       y       z     vdW  Elec       q    Type
REMARK                         _______ _______ _______ _____ _____    ______ ____
ROOT
ATOM      1  C   UNL     1       0.747   0.984  -0.699  0.00  0.00    +0.019 C 
ATOM      2  C   UNL     1       2.222   0.663  -0.367  0.00  0.00    +0.029 C 
ATOM      3  C   UNL     1       2.607   1.364   0.913  0.00  0.00    +0.139 C 
ATOM      4  O   UNL     1       3.253   2.401   0.979  0.00  0.00    -0.297 OA
ATOM      5  C   UNL     1       2.126   0.579   2.110  0.00  0.00    +0.075 C 
ATOM      6  C   UNL     1       1.741  -0.787   1.479  0.00  0.00    +0.012 C 
ATOM      7  C   UNL     1       2.468  -0.785   0.112  0.00  0.00    +0.006 C 
ATOM      8  C   UNL     1       2.159  -1.811  -1.005  0.00  0.00    +0.001 C 
ATOM      9  C   UNL     1       2.690  -3.232  -0.709  0.00  0.00    +0.009 C 
ATOM     10  C   UNL     1       2.322  -4.240  -1.823  0.00  0.00    +0.036 C 
ATOM     11  C   UNL     1       2.177  -3.672  -3.222  0.00  0.00    -0.040 A 
ATOM     12  C   UNL     1       1.800  -4.523  -4.283  0.00  0.00    +0.052 A 
ATOM     13  C   UNL     1       1.646  -4.019  -5.579  0.00  0.00    +0.159 A 
ATOM     14  C   UNL     1       1.879  -2.675  -5.832  0.00  0.00    +0.049 A 
ATOM     15  C   UNL     1       2.257  -1.832  -4.795  0.00  0.00    +0.008 A 
ATOM     16  C   UNL     1       2.405  -2.308  -3.481  0.00  0.00    -0.041 A 
ATOM     17  C   UNL     1       2.866  -1.402  -2.350  0.00  0.00    +0.023 C 
ATOM     18  C   UNL     1       2.811   0.094  -2.708  0.00  0.00    +0.009 C 
ATOM     19  C   UNL     1       3.143   0.997  -1.529  0.00  0.00    +0.015 C 
ENDROOT
BRANCH  13  20
ATOM     20  O   UNL     1       1.358  -4.773  -6.684  0.00  0.00    -0.325 OA
BRANCH  20  21
ATOM     21  S   UNL     1       0.216  -5.925  -6.639  0.00  0.00    +0.251 S 
ATOM     22  O   UNL     1      -1.034  -5.372  -6.176  0.00  0.00    -0.108 OA
ATOM     23  O   UNL     1       0.796  -7.125  -6.080  0.00  0.00    -0.108 OA
BRANCH  21  24
ATOM     24  O   UNL     1       0.034  -6.250  -8.220  0.00  0.00    -0.222 OA
ATOM     25  H   UNL     1       0.799  -6.798  -8.497  0.00  0.00    +0.248 HD
ENDBRANCH  21  24
ENDBRANCH  20  21
ENDBRANCH  13  20
TORSDOF 3
