REMARK  Name = 
REMARK  7 active torsions:
REMARK  status: ('A' for Active; 'I' for Inactive)
REMARK    1  A    between atoms: C_1  and  N_2
REMARK    2  A    between atoms: N_2  and  C_3
REMARK    3  A    between atoms: N_2  and  S_4
REMARK    4  A    between atoms: S_4  and  N_7
REMARK    5  A    between atoms: N_10  and  C_13
REMARK    6  A    between atoms: C_17  and  C_18
REMARK    7  A    between atoms: C_18  and  O_19
REMARK                            x       y       z     vdW  Elec       q    Type
REMARK                         _______ _______ _______ _____ _____    ______ ____
ROOT
ATOM      1  N   UNL     1       4.571   1.139   1.130  0.00  0.00    -0.163 NA
ATOM      2  C   UNL     1       5.272   2.210   0.364  0.00  0.00    +0.129 C 
ATOM      3  C   UNL     1       5.374   1.868  -1.143  0.00  0.00    +0.123 C 
ATOM      4  N   UNL     1       5.992   0.537  -1.339  0.00  0.00    -0.313 N 
ATOM      5  C   UNL     1       5.342  -0.552  -0.571  0.00  0.00    +0.123 C 
ATOM      6  C   UNL     1       5.247  -0.177   0.921  0.00  0.00    +0.129 C 
ENDROOT
BRANCH   4   7
ATOM      7  C   UNL     1       6.551   0.175  -2.566  0.00  0.00    +0.125 A 
ATOM      8  N   UNL     1       6.722  -1.136  -2.838  0.00  0.00    -0.215 NA
ATOM      9  C   UNL     1       7.368  -1.489  -3.970  0.00  0.00    +0.156 A 
ATOM     10  N   UNL     1       7.876  -0.625  -4.870  0.00  0.00    -0.238 NA
ATOM     11  C   UNL     1       7.688   0.668  -4.587  0.00  0.00    +0.116 A 
ATOM     12  C   UNL     1       7.028   1.117  -3.463  0.00  0.00    +0.063 A 
BRANCH   9  13
ATOM     13  C   UNL     1       7.554  -2.964  -4.267  0.00  0.00    +0.231 C 
BRANCH  13  14
ATOM     14  O   UNL     1       8.305  -3.191  -5.470  0.00  0.00    -0.387 OA
ATOM     15  H   UNL     1       8.494  -2.296  -5.821  0.00  0.00    +0.210 HD
ENDBRANCH  13  14
ENDBRANCH   9  13
ENDBRANCH   4   7
BRANCH   1  16
ATOM     16  S   UNL     1       2.886   1.137   1.058  0.00  0.00    +0.099 S 
ATOM     17  O   UNL     1       2.455   2.011  -0.007  0.00  0.00    -0.141 OA
ATOM     18  O   UNL     1       2.417  -0.227   1.159  0.00  0.00    -0.141 OA
BRANCH  16  20
ATOM     19  C   UNL     1       1.045   2.043   2.721  0.00  0.00    +0.132 C 
ATOM     20  N   UNL     1       2.512   1.901   2.533  0.00  0.00    -0.172 NA
ATOM     21  C   UNL     1       3.132   1.302   3.736  0.00  0.00    +0.132 C 
ENDBRANCH  16  20
ENDBRANCH   1  16
TORSDOF 5
