REMARK  Name = 
REMARK  7 active torsions:
REMARK  status: ('A' for Active; 'I' for Inactive)
REMARK    1  A    between atoms: O5*_1  and  C5*_2
REMARK    2  A    between atoms: C5*_2  and  C4*_3
REMARK    3  A    between atoms: C1*_6  and  N_14
REMARK    4  A    between atoms: C2*_8  and  O2*_10
REMARK    5  A    between atoms: C3*_11  and  O3*_13
REMARK    6  A    between atoms: C_18  and  N_19
REMARK    7  A    between atoms: N_19  and  C_20
REMARK                            x       y       z     vdW  Elec       q    Type
REMARK                         _______ _______ _______ _____ _____    ______ ____
ROOT
ATOM      1  N   UNL     1       1.873   7.737  -3.666  0.00  0.00    -0.286 N 
ATOM      2  C   UNL     1       2.446   8.943  -3.355  0.00  0.00    +0.167 A 
ATOM      3  C   UNL     1       1.670   9.454  -2.326  0.00  0.00    +0.147 A 
ATOM      4  C   UNL     1       2.033  10.716  -1.810  0.00  0.00    +0.150 A 
ATOM      5  N   UNL     1       3.105  11.337  -2.372  0.00  0.00    -0.219 NA
ATOM      6  C   UNL     1       3.777  10.712  -3.365  0.00  0.00    +0.225 A 
ATOM      7  N   UNL     1       0.643   8.586  -2.012  0.00  0.00    -0.231 NA
ATOM      8  N   UNL     1       3.530   9.504  -3.921  0.00  0.00    -0.216 NA
ATOM      9  C   UNL     1       0.801   7.566  -2.834  0.00  0.00    +0.203 A 
ENDROOT
BRANCH   1  13
ATOM     10  C4* UNL     1       2.253   4.701  -5.497  0.00  0.00    +0.177 C 
ATOM     11  C3* UNL     1       3.687   4.864  -4.995  0.00  0.00    +0.178 C 
ATOM     12  C2* UNL     1       3.740   6.284  -4.432  0.00  0.00    +0.195 C 
ATOM     13  C1* UNL     1       2.343   6.849  -4.711  0.00  0.00    +0.253 C 
ATOM     14  O4* UNL     1       1.468   5.716  -4.840  0.00  0.00    -0.346 OA
BRANCH  11  15
ATOM     15  O3* UNL     1       4.615   4.668  -6.063  0.00  0.00    -0.386 OA
ATOM     16  H3* UNL     1       5.293   5.368  -5.948  0.00  0.00    +0.210 HD
ENDBRANCH  11  15
BRANCH  12  17
ATOM     17  O2* UNL     1       4.796   7.036  -5.044  0.00  0.00    -0.385 OA
ATOM     18  H2* UNL     1       4.697   7.962  -4.733  0.00  0.00    +0.210 HD
ENDBRANCH  12  17
BRANCH  10  19
ATOM     19  C5* UNL     1       1.675   3.309  -5.245  0.00  0.00    +0.190 C 
BRANCH  19  20
ATOM     20  O5* UNL     1       1.751   2.963  -3.863  0.00  0.00    -0.392 OA
ATOM     21  H5* UNL     1       1.386   2.064  -3.779  0.00  0.00    +0.210 HD
ENDBRANCH  19  20
ENDBRANCH  10  19
ENDBRANCH   1  13
BRANCH   4  22
ATOM     22  N   UNL     1       1.316  11.312  -0.769  0.00  0.00    -0.322 N 
ATOM     23  H   UNL     1       0.405  10.865  -0.677  0.00  0.00    +0.148 HD
BRANCH  22  24
ATOM     24  C   UNL     1       1.341  12.773  -0.692  0.00  0.00    +0.100 C 
ATOM     25  C   UNL     1       0.561  13.447  -1.821  0.00  0.00    +0.182 C 
ATOM     26  O   UNL     1      -0.786  13.671  -1.363  0.00  0.00    -0.378 OA
ATOM     27  C   UNL     1      -0.855  13.317   0.021  0.00  0.00    +0.162 C 
ATOM     28  C   UNL     1       0.567  13.231   0.530  0.00  0.00    +0.052 C 
ENDBRANCH  22  24
ENDBRANCH   4  22
TORSDOF 7
