REMARK  Name = 
REMARK  14 active torsions:
REMARK  status: ('A' for Active; 'I' for Inactive)
REMARK    1  A    between atoms: C_1  and  C_2
REMARK    2  A    between atoms: C_2  and  C_3
REMARK    3  A    between atoms: C_2  and  C_4
REMARK    4  A    between atoms: C_4  and  C_5
REMARK    5  A    between atoms: C_5  and  C_7
REMARK    6  A    between atoms: C_5  and  C_25
REMARK    7  A    between atoms: N_9  and  C_10
REMARK    8  A    between atoms: C_10  and  C_11
REMARK    9  A    between atoms: C_11  and  O_13
REMARK   10  A    between atoms: C_11  and  C_14
REMARK   11  A    between atoms: C_14  and  N_15
REMARK   12  A    between atoms: N_15  and  S_16
REMARK   13  A    between atoms: S_16  and  C_19
REMARK   14  A    between atoms: C_29  and  C_31
REMARK                            x       y       z     vdW  Elec       q    Type
REMARK                         _______ _______ _______ _____ _____    ______ ____
ROOT
ATOM      1  C   UNL     1       5.182  -1.307   3.184  0.00  0.00    +0.221 C 
ATOM      2  N   UNL     1       6.345  -2.012   3.384  0.00  0.00    -0.312 N 
ATOM      3  H   UNL     1       7.223  -1.537   3.533  0.00  0.00    +0.149 HD
ATOM      4  O   UNL     1       4.113  -1.872   2.963  0.00  0.00    -0.275 OA
ENDROOT
BRANCH   1   5
ATOM      5  C   UNL     1       5.280   0.228   3.236  0.00  0.00    +0.105 C 
BRANCH   5   6
ATOM      6  C   UNL     1       5.739   0.722   4.613  0.00  0.00    -0.035 A 
ATOM      7  C   UNL     1       4.794   1.244   5.520  0.00  0.00    +0.013 A 
ATOM      8  C   UNL     1       5.165   1.743   6.786  0.00  0.00    -0.018 A 
ATOM      9  C   UNL     1       6.526   1.670   7.131  0.00  0.00    +0.008 A 
ATOM     10  C   UNL     1       7.473   1.136   6.259  0.00  0.00    +0.001 A 
ATOM     11  C   UNL     1       7.085   0.681   5.004  0.00  0.00    +0.004 A 
BRANCH   8  12
ATOM     12  C   UNL     1       4.177   2.343   7.718  0.00  0.00    -0.018 A 
ATOM     13  C   UNL     1       4.321   2.225   9.114  0.00  0.00    +0.008 A 
ATOM     14  C   UNL     1       3.426   2.833  10.000  0.00  0.00    +0.001 A 
ATOM     15  C   UNL     1       2.349   3.562   9.510  0.00  0.00    +0.000 A 
ATOM     16  C   UNL     1       2.168   3.681   8.136  0.00  0.00    +0.001 A 
ATOM     17  C   UNL     1       3.074   3.082   7.252  0.00  0.00    +0.008 A 
ENDBRANCH   8  12
ENDBRANCH   5   6
BRANCH   5  18
ATOM     18  C   UNL     1       6.121   0.861   2.106  0.00  0.00    +0.020 C 
BRANCH  18  20
ATOM     19  C   UNL     1       4.255   0.958   0.340  0.00  0.00    +0.007 C 
ATOM     20  C   UNL     1       5.694   0.550   0.657  0.00  0.00    -0.016 C 
ATOM     21  C   UNL     1       6.642   1.264  -0.319  0.00  0.00    +0.007 C 
ENDBRANCH  18  20
ENDBRANCH   5  18
ENDBRANCH   1   5
BRANCH   2  22
ATOM     22  C   UNL     1       6.378  -3.465   3.526  0.00  0.00    +0.136 C 
BRANCH  22  23
ATOM     23  C   UNL     1       7.230  -4.144   2.447  0.00  0.00    +0.147 C 
BRANCH  23  24
ATOM     24  O   UNL     1       8.594  -3.714   2.571  0.00  0.00    -0.389 OA
ATOM     25  H   UNL     1       9.037  -3.997   1.747  0.00  0.00    +0.210 HD
ENDBRANCH  23  24
BRANCH  23  26
ATOM     26  C   UNL     1       6.695  -3.836   1.042  0.00  0.00    +0.138 C 
BRANCH  26  27
ATOM     27  N   UNL     1       7.476  -4.579   0.032  0.00  0.00    -0.186 NA
ATOM     28  H   UNL     1       7.649  -5.571   0.185  0.00  0.00    +0.148 HD
BRANCH  27  29
ATOM     29  S   UNL     1       7.018  -4.322  -1.585  0.00  0.00    +0.076 S 
ATOM     30  O   UNL     1       5.606  -4.001  -1.603  0.00  0.00    -0.152 OA
ATOM     31  O   UNL     1       7.537  -5.466  -2.307  0.00  0.00    -0.152 OA
BRANCH  29  32
ATOM     32  C   UNL     1       7.923  -2.889  -2.155  0.00  0.00    +0.194 A 
ATOM     33  N   UNL     1       8.831  -2.362  -1.293  0.00  0.00    -0.236 NA
ATOM     34  C   UNL     1       9.521  -1.297  -1.759  0.00  0.00    +0.113 A 
ATOM     35  C   UNL     1       9.339  -0.747  -3.023  0.00  0.00    +0.020 A 
ATOM     36  C   UNL     1       8.389  -1.312  -3.871  0.00  0.00    +0.005 A 
ATOM     37  C   UNL     1       7.656  -2.409  -3.432  0.00  0.00    +0.049 A 
ENDBRANCH  29  32
ENDBRANCH  27  29
ENDBRANCH  26  27
ENDBRANCH  23  26
ENDBRANCH  22  23
ENDBRANCH   2  22
TORSDOF 12
