REMARK  Name = 
REMARK  11 active torsions:
REMARK  status: ('A' for Active; 'I' for Inactive)
REMARK    1  A    between atoms: C_1  and  C_2
REMARK    2  A    between atoms: C_2  and  C_3
REMARK    3  A    between atoms: C_3  and  C_4
REMARK    4  A    between atoms: C_4  and  N_5
REMARK    5  A    between atoms: C_6  and  C_7
REMARK    6  A    between atoms: C_7  and  C_8
REMARK    7  A    between atoms: C_9  and  O_10
REMARK    8  A    between atoms: O_10  and  C_11
REMARK    9  A    between atoms: C_14  and  O_15
REMARK   10  A    between atoms: O_15  and  C_16
REMARK   11  A    between atoms: C_20  and  N_21
REMARK                            x       y       z     vdW  Elec       q    Type
REMARK                         _______ _______ _______ _____ _____    ______ ____
ROOT
ATOM      1  N   UNL     1       4.384  -0.351   2.840  0.00  0.00    -0.312 N 
ATOM      2  C   UNL     1       4.663  -1.560   3.423  0.00  0.00    +0.168 A 
ATOM      3  C   UNL     1       5.414  -1.264   4.545  0.00  0.00    +0.148 A 
ATOM      4  C   UNL     1       5.794  -2.351   5.351  0.00  0.00    +0.150 A 
ATOM      5  N   UNL     1       5.443  -3.597   4.969  0.00  0.00    -0.185 NA
ATOM      6  C   UNL     1       4.751  -3.747   3.821  0.00  0.00    +0.313 A 
ATOM      7  F   UNL     1       4.475  -5.009   3.456  0.00  0.00    -0.161 F 
ATOM      8  N   UNL     1       5.655   0.093   4.613  0.00  0.00    -0.227 NA
ATOM      9  N   UNL     1       4.304  -2.781   2.996  0.00  0.00    -0.182 NA
ATOM     10  C   UNL     1       5.131   0.604   3.506  0.00  0.00    +0.116 A 
ENDROOT
BRANCH   4  11
ATOM     11  N   UNL     1       6.517  -2.222   6.531  0.00  0.00    -0.341 N 
ATOM     12  H   UNL     1       6.431  -3.041   7.121  0.00  0.00    +0.144 HD
ATOM     13  H   UNL     1       6.430  -1.313   6.970  0.00  0.00    +0.144 HD
ENDBRANCH   4  11
BRANCH   1  14
ATOM     14  C   UNL     1       3.568  -0.166   1.656  0.00  0.00    +0.125 C 
BRANCH  14  15
ATOM     15  C   UNL     1       2.165  -0.796   1.699  0.00  0.00    +0.021 C 
BRANCH  15  17
ATOM     16  C   UNL     1      -0.152  -0.747   2.700  0.00  0.00    +0.004 C 
ATOM     17  C   UNL     1       1.261  -0.181   2.766  0.00  0.00    -0.002 C 
ENDBRANCH  15  17
ENDBRANCH  14  15
ENDBRANCH   1  14
BRANCH  10  18
ATOM     18  C   UNL     1       5.436   1.979   2.971  0.00  0.00    +0.113 C 
BRANCH  18  19
ATOM     19  C   UNL     1       4.483   3.089   3.374  0.00  0.00    +0.005 A 
ATOM     20  C   UNL     1       3.905   3.116   4.660  0.00  0.00    +0.053 A 
ATOM     21  C   UNL     1       3.052   4.154   5.035  0.00  0.00    +0.121 A 
ATOM     22  C   UNL     1       2.763   5.170   4.130  0.00  0.00    +0.049 A 
ATOM     23  C   UNL     1       3.372   5.195   2.876  0.00  0.00    +0.049 A 
ATOM     24  C   UNL     1       4.234   4.163   2.492  0.00  0.00    +0.124 A 
BRANCH  21  25
ATOM     25  O   UNL     1       2.430   4.267   6.247  0.00  0.00    -0.495 OA
ATOM     26  C   UNL     1       3.133   3.710   7.352  0.00  0.00    +0.277 C 
ENDBRANCH  21  25
BRANCH  24  27
ATOM     27  O   UNL     1       4.892   4.126   1.289  0.00  0.00    -0.495 OA
ATOM     28  C   UNL     1       4.445   5.022   0.277  0.00  0.00    +0.277 C 
ENDBRANCH  24  27
ENDBRANCH  18  19
ENDBRANCH  10  18
TORSDOF 8
