REMARK  Name = 
REMARK  6 active torsions:
REMARK  status: ('A' for Active; 'I' for Inactive)
REMARK    1  A    between atoms: O_1  and  CU_2
REMARK    2  A    between atoms: CU_2  and  O_3
REMARK    3  A    between atoms: CU_2  and  N_4
REMARK    4  A    between atoms: CU_2  and  N_9
REMARK    5  A    between atoms: CU_2  and  N_14
REMARK    6  A    between atoms: CU_2  and  N_19
REMARK                            x       y       z     vdW  Elec       q    Type
REMARK                         _______ _______ _______ _____ _____    ______ ____
ROOT
ATOM      1 CU   UNL     1       2.911   0.020   0.069  0.00  0.00    +0.000 Cu
ENDROOT
BRANCH   1   2
ATOM      2  N   UNL     1       2.911   1.770   1.098  0.00  0.00    +0.000 N 
ATOM      3  C   UNL     1       3.869   2.148   1.974  0.00  0.00    +0.000 A 
ATOM      4  N   UNL     1       3.621   3.349   2.531  0.00  0.00    +0.000 NA
ATOM      5  C   UNL     1       2.454   3.739   1.995  0.00  0.00    +0.000 A 
ATOM      6  C   UNL     1       2.009   2.770   1.124  0.00  0.00    +0.000 A 
ENDBRANCH   1   2
BRANCH   1   7
ATOM      7  N   UNL     1       2.911   1.049  -1.681  0.00  0.00    +0.000 N 
ATOM      8  C   UNL     1       3.795   1.045  -2.704  0.00  0.00    +0.000 A 
ATOM      9  N   UNL     1       3.427   1.859  -3.715  0.00  0.00    +0.000 NA
ATOM     10  C   UNL     1       2.260   2.392  -3.319  0.00  0.00    +0.000 A 
ATOM     11  C   UNL     1       1.940   1.893  -2.080  0.00  0.00    +0.000 A 
ENDBRANCH   1   7
BRANCH   1  12
ATOM     12  N   UNL     1       4.941   0.020   0.069  0.00  0.00    +0.000 N 
ATOM     13  C   UNL     1       5.749   1.041  -0.287  0.00  0.00    +0.000 A 
ATOM     14  N   UNL     1       7.055   0.722  -0.206  0.00  0.00    +0.000 NA
ATOM     15  C   UNL     1       7.068  -0.553   0.222  0.00  0.00    +0.000 A 
ATOM     16  C   UNL     1       5.772  -0.984   0.399  0.00  0.00    +0.000 A 
ENDBRANCH   1  12
BRANCH   1  17
ATOM     17  N   UNL     1       2.911  -1.730  -0.959  0.00  0.00    +0.000 N 
ATOM     18  C   UNL     1       1.975  -2.701  -0.906  0.00  0.00    +0.000 A 
ATOM     19  N   UNL     1       2.266  -3.747  -1.705  0.00  0.00    +0.000 NA
ATOM     20  C   UNL     1       3.435  -3.421  -2.284  0.00  0.00    +0.000 A 
ATOM     21  C   UNL     1       3.833  -2.188  -1.828  0.00  0.00    +0.000 A 
ENDBRANCH   1  17
BRANCH   1  22
ATOM     22  O   UNL     1       0.931   0.020   0.069  0.00  0.00    +0.000 OA
ATOM     23  H   UNL     1       0.633  -0.295  -0.820  0.00  0.00    +0.000 HD
ENDBRANCH   1  22
BRANCH   1  24
ATOM     24  O   UNL     1       2.911  -0.983   1.776  0.00  0.00    +0.000 OA
ATOM     25  H   UNL     1       2.934  -1.951   1.574  0.00  0.00    +0.000 HD
ENDBRANCH   1  24
TORSDOF 6
