REMARK  Name = 
REMARK  26 active torsions:
REMARK  status: ('A' for Active; 'I' for Inactive)
REMARK    1  A    between atoms: C_1  and  C_2
REMARK    2  A    between atoms: N_4  and  C_5
REMARK    3  A    between atoms: C_7  and  O_9
REMARK    4  A    between atoms: O_9  and  P_10
REMARK    5  A    between atoms: P_10  and  O_11
REMARK    6  A    between atoms: P_10  and  O_13
REMARK    7  A    between atoms: O_13  and  P_14
REMARK    8  A    between atoms: P_14  and  O_15
REMARK    9  A    between atoms: P_14  and  O_17
REMARK   10  A    between atoms: O_17  and  C_18
REMARK   11  A    between atoms: C_18  and  C_19
REMARK   12  A    between atoms: C_22  and  N_30
REMARK   13  A    between atoms: C_24  and  O_26
REMARK   14  A    between atoms: C_27  and  O_29
REMARK   15  A    between atoms: C_39  and  C_41
REMARK   16  A    between atoms: C_41  and  O_42
REMARK   17  A    between atoms: C_43  and  O_45
REMARK   18  A    between atoms: C_46  and  O_48
REMARK   19  A    between atoms: O_48  and  C_49
REMARK   20  A    between atoms: C_49  and  C_50
REMARK   21  A    between atoms: C_49  and  O_51
REMARK   22  A    between atoms: C_49  and  C_56
REMARK   23  A    between atoms: O_51  and  P_52
REMARK   24  A    between atoms: P_52  and  O_53
REMARK   25  A    between atoms: P_52  and  O_54
REMARK   26  A    between atoms: C_56  and  O_57
REMARK                            x       y       z     vdW  Elec       q    Type
REMARK                         _______ _______ _______ _____ _____    ______ ____
ROOT
ATOM      1  C   UNL     1      14.355  -1.844  11.161  0.00  0.00    +0.161 C 
ATOM      2  C   UNL     1      15.217  -2.898  11.940  0.00  0.00    +0.178 C 
ATOM      3  C   UNL     1      16.655  -2.688  11.452  0.00  0.00    +0.176 C 
ATOM      4  C   UNL     1      16.769  -2.890   9.932  0.00  0.00    +0.178 C 
ATOM      5  O   UNL     1      15.814  -2.104   9.188  0.00  0.00    -0.341 OA
ATOM      6  C   UNL     1      14.442  -2.113   9.649  0.00  0.00    +0.285 C 
ENDROOT
BRANCH   1   9
ATOM      7  C   UNL     1      14.411   1.671  12.602  0.00  0.00    +0.109 C 
ATOM      8  C   UNL     1      14.204   0.184  12.562  0.00  0.00    +0.210 C 
ATOM      9  N   UNL     1      14.682  -0.435  11.431  0.00  0.00    -0.305 N 
ATOM     10  H   UNL     1      15.037   0.142  10.676  0.00  0.00    +0.149 HD
ATOM     11  O   UNL     1      13.633  -0.436  13.454  0.00  0.00    -0.276 OA
ENDBRANCH   1   9
BRANCH   3  12
ATOM     12  O   UNL     1      17.583  -3.467  12.184  0.00  0.00    -0.387 OA
ATOM     13  H   UNL     1      18.359  -2.933  12.420  0.00  0.00    +0.210 HD
ENDBRANCH   3  12
BRANCH   4  14
ATOM     14  C   UNL     1      16.770  -4.336   9.423  0.00  0.00    +0.190 C 
BRANCH  14  15
ATOM     15  O   UNL     1      17.334  -4.373   8.104  0.00  0.00    -0.392 OA
ATOM     16  H   UNL     1      16.978  -3.597   7.633  0.00  0.00    +0.210 HD
ENDBRANCH  14  15
ENDBRANCH   4  14
BRANCH   6  17
ATOM     17  O   UNL     1      13.711  -3.256   9.269  0.00  0.00    -0.254 OA
BRANCH  17  18
ATOM     18  P   UNL     1      12.137  -3.461   9.774  0.00  0.00    +0.486 P 
ATOM     19  O   UNL     1      11.543  -4.122   8.513  0.00  0.00    -0.227 OA
BRANCH  18  20
ATOM     20  O   UNL     1      12.570  -5.061  10.272  0.00  0.00    -0.302 OA
ATOM     21  H   UNL     1      12.072  -5.664   9.670  0.00  0.00    +0.222 HD
ENDBRANCH  18  20
BRANCH  18  22
ATOM     22  O   UNL     1      11.704  -1.862   9.277  0.00  0.00    -0.186 OA
BRANCH  22  23
ATOM     23  P   UNL     1      10.066  -1.892   8.723  0.00  0.00    +0.483 P 
ATOM     24  O   UNL     1       9.301  -0.893   9.596  0.00  0.00    -0.227 OA
BRANCH  23  25
ATOM     25  O   UNL     1      10.401  -0.571   7.658  0.00  0.00    -0.302 OA
ATOM     26  H   UNL     1       9.844   0.153   8.014  0.00  0.00    +0.222 HD
ENDBRANCH  23  25
BRANCH  23  27
ATOM     27  O   UNL     1       9.730  -3.214   9.787  0.00  0.00    -0.284 OA
BRANCH  27  28
ATOM     28  C   UNL     1       8.358  -3.523  10.056  0.00  0.00    +0.206 C 
BRANCH  28  29
ATOM     29  C   UNL     1       8.136  -4.740  11.003  0.00  0.00    +0.178 C 
ATOM     30  C   UNL     1       8.629  -6.075  10.449  0.00  0.00    +0.178 C 
ATOM     31  C   UNL     1       9.637  -6.606  11.459  0.00  0.00    +0.195 C 
ATOM     32  C   UNL     1       9.861  -5.439  12.435  0.00  0.00    +0.255 C 
ATOM     33  O   UNL     1       8.737  -4.550  12.301  0.00  0.00    -0.346 OA
BRANCH  32  34
ATOM     34  N   UNL     1      10.116  -5.821  13.841  0.00  0.00    -0.271 N 
ATOM     35  C   UNL     1      11.235  -6.618  14.092  0.00  0.00    +0.331 A 
ATOM     36  O   UNL     1      11.826  -7.230  13.203  0.00  0.00    -0.246 OA
ATOM     37  N   UNL     1      11.680  -6.665  15.386  0.00  0.00    -0.275 N 
ATOM     38  H   UNL     1      12.597  -7.069  15.538  0.00  0.00    +0.173 HD
ATOM     39  C   UNL     1      11.152  -5.967  16.429  0.00  0.00    +0.254 A 
ATOM     40  O   UNL     1      11.680  -5.881  17.531  0.00  0.00    -0.268 OA
ATOM     41  C   UNL     1       9.868  -5.306  16.152  0.00  0.00    +0.088 A 
ATOM     42  C   UNL     1       9.434  -5.232  14.890  0.00  0.00    +0.098 A 
ENDBRANCH  32  34
BRANCH  31  43
ATOM     43  O   UNL     1      10.836  -6.977  10.768  0.00  0.00    -0.385 OA
ATOM     44  H   UNL     1      11.440  -7.321  11.467  0.00  0.00    +0.210 HD
ENDBRANCH  31  43
BRANCH  30  45
ATOM     45  O   UNL     1       7.527  -6.991  10.328  0.00  0.00    -0.386 OA
ATOM     46  H   UNL     1       7.200  -7.212  11.219  0.00  0.00    +0.210 HD
ENDBRANCH  30  45
ENDBRANCH  28  29
ENDBRANCH  27  28
ENDBRANCH  23  27
ENDBRANCH  22  23
ENDBRANCH  18  22
ENDBRANCH  17  18
ENDBRANCH   6  17
BRANCH   2  47
ATOM     47  O   UNL     1      14.675  -4.209  11.647  0.00  0.00    -0.332 OA
BRANCH  47  48
ATOM     48  C   UNL     1      15.091  -5.405  12.387  0.00  0.00    +0.276 C 
ATOM     49  C   UNL     1      14.452  -6.579  11.622  0.00  0.00    +0.087 C 
BRANCH  48  50
ATOM     50  C   UNL     1      14.428  -5.316  13.791  0.00  0.00    +0.365 C 
ATOM     51  O   UNL     1      14.836  -5.821  14.823  0.00  0.00    -0.245 OA
BRANCH  50  52
ATOM     52  O   UNL     1      13.276  -4.582  13.755  0.00  0.00    -0.477 OA
ATOM     53  H   UNL     1      13.147  -4.272  12.834  0.00  0.00    +0.295 HD
ENDBRANCH  50  52
ENDBRANCH  48  50
BRANCH  48  54
ATOM     54  O   UNL     1      16.460  -5.610  12.322  0.00  0.00    -0.243 OA
BRANCH  54  55
ATOM     55  P   UNL     1      17.162  -6.883  12.973  0.00  0.00    +0.475 P 
ATOM     56  O   UNL     1      16.391  -7.970  13.612  0.00  0.00    -0.227 OA
BRANCH  55  57
ATOM     57  O   UNL     1      17.974  -7.366  11.675  0.00  0.00    -0.303 OA
ATOM     58  H   UNL     1      17.393  -7.391  10.898  0.00  0.00    +0.222 HD
ENDBRANCH  55  57
BRANCH  55  59
ATOM     59  O   UNL     1      18.399  -6.276  13.772  0.00  0.00    -0.303 OA
ATOM     60  H   UNL     1      19.194  -6.782  13.531  0.00  0.00    +0.222 HD
ENDBRANCH  55  59
ENDBRANCH  54  55
ENDBRANCH  48  54
ENDBRANCH  47  48
ENDBRANCH   2  47
TORSDOF 24
