REMARK  Name = 
REMARK  7 active torsions:
REMARK  status: ('A' for Active; 'I' for Inactive)
REMARK    1  A    between atoms: C_1  and  O_2
REMARK    2  A    between atoms: O_2  and  C_3
REMARK    3  A    between atoms: C_6  and  C_8
REMARK    4  A    between atoms: C_8  and  O_9
REMARK    5  A    between atoms: C_10  and  O_12
REMARK    6  A    between atoms: C_13  and  O_15
REMARK    7  A    between atoms: C_16  and  O_18
REMARK                            x       y       z     vdW  Elec       q    Type
REMARK                         _______ _______ _______ _____ _____    ______ ____
ROOT
ATOM      1  C   UNL     1       2.810   0.980  -1.205  0.00  0.00    +0.281 C 
ATOM      2  C   UNL     1       3.477   1.945  -0.193  0.00  0.00    +0.201 C 
ATOM      3  C   UNL     1       2.400   2.732   0.568  0.00  0.00    +0.179 C 
ATOM      4  C   UNL     1       1.385   3.378  -0.378  0.00  0.00    +0.177 C 
ATOM      5  C   UNL     1       0.814   2.278  -1.285  0.00  0.00    +0.178 C 
ATOM      6  O   UNL     1       1.865   1.656  -2.038  0.00  0.00    -0.341 OA
ENDROOT
BRANCH   1   8
ATOM      7  C   UNL     1       3.295  -0.698  -2.799  0.00  0.00    +0.197 C 
ATOM      8  O   UNL     1       3.815   0.383  -2.035  0.00  0.00    -0.352 OA
ENDBRANCH   1   8
BRANCH   2   9
ATOM      9  O   UNL     1       4.251   1.214   0.777  0.00  0.00    -0.384 OA
ATOM     10  H   UNL     1       4.433   1.848   1.499  0.00  0.00    +0.210 HD
ENDBRANCH   2   9
BRANCH   3  11
ATOM     11  O   UNL     1       3.022   3.727   1.396  0.00  0.00    -0.386 OA
ATOM     12  H   UNL     1       3.070   4.536   0.846  0.00  0.00    +0.210 HD
ENDBRANCH   3  11
BRANCH   4  13
ATOM     13  O   UNL     1       2.072   4.415  -1.093  0.00  0.00    -0.386 OA
ATOM     14  H   UNL     1       1.496   4.762  -1.792  0.00  0.00    +0.210 HD
ENDBRANCH   4  13
BRANCH   5  15
ATOM     15  C   UNL     1      -0.214   2.804  -2.284  0.00  0.00    +0.190 C 
BRANCH  15  16
ATOM     16  O   UNL     1      -0.797   1.705  -2.984  0.00  0.00    -0.392 OA
ATOM     17  H   UNL     1      -0.049   1.217  -3.381  0.00  0.00    +0.210 HD
ENDBRANCH  15  16
ENDBRANCH   5  15
TORSDOF 6
