REMARK  Name = 
REMARK  8 active torsions:
REMARK  status: ('A' for Active; 'I' for Inactive)
REMARK    1  A    between atoms: O_1  and  C_2
REMARK    2  A    between atoms: C_2  and  C_4
REMARK    3  A    between atoms: C_4  and  C_5
REMARK    4  A    between atoms: C_5  and  C_6
REMARK    5  A    between atoms: C_8  and  N_9
REMARK    6  A    between atoms: N_9  and  C_10
REMARK    7  A    between atoms: C_18  and  N_19
REMARK    8  A    between atoms: N_19  and  C_20
REMARK                            x       y       z     vdW  Elec       q    Type
REMARK                         _______ _______ _______ _____ _____    ______ ____
ROOT
ATOM      1  C   UNL     1      15.222   3.692  12.256  0.00  0.00    -0.045 A 
ATOM      2  C   UNL     1      15.258   2.374  12.704  0.00  0.00    +0.005 A 
ATOM      3  C   UNL     1      14.553   1.377  12.028  0.00  0.00    +0.025 A 
ATOM      4  C   UNL     1      13.778   1.658  10.890  0.00  0.00    +0.052 A 
ATOM      5  C   UNL     1      13.715   3.000  10.426  0.00  0.00    +0.053 A 
ATOM      6  C   UNL     1      14.453   3.984  11.117  0.00  0.00    +0.028 A 
ENDROOT
BRANCH   4   7
ATOM      7  N   UNL     1      12.989   0.649  10.295  0.00  0.00    -0.318 N 
ATOM      8  H   UNL     1      12.794   0.743   9.295  0.00  0.00    +0.152 HD
BRANCH   7   9
ATOM      9  C   UNL     1      12.535  -0.519  10.865  0.00  0.00    +0.083 C 
ATOM     10  C   UNL     1      11.871  -1.536  10.289  0.00  0.00    +0.035 C 
ATOM     11  C   UNL     1      11.565  -1.490   8.819  0.00  0.00    +0.187 C 
ATOM     12  O   UNL     1      11.914  -0.578   8.077  0.00  0.00    -0.287 OA
ATOM     13  C   UNL     1      10.810  -2.648   8.270  0.00  0.00    +0.051 C 
ATOM     14  C   UNL     1      10.453  -3.671   9.058  0.00  0.00    +0.004 C 
ATOM     15  C   UNL     1      10.767  -3.699  10.467  0.00  0.00    +0.001 C 
ATOM     16  C   UNL     1      11.433  -2.696  11.053  0.00  0.00    +0.013 C 
ENDBRANCH   7   9
ENDBRANCH   4   7
BRANCH   5  17
ATOM     17  N   UNL     1      12.933   3.321   9.291  0.00  0.00    -0.318 N 
ATOM     18  H   UNL     1      12.345   2.565   8.930  0.00  0.00    +0.152 HD
BRANCH  17  19
ATOM     19  C   UNL     1      12.745   4.527   8.660  0.00  0.00    +0.083 C 
ATOM     20  C   UNL     1      11.959   4.804   7.601  0.00  0.00    +0.035 C 
ATOM     21  C   UNL     1      11.157   3.706   6.960  0.00  0.00    +0.187 C 
ATOM     22  O   UNL     1      11.137   2.549   7.368  0.00  0.00    -0.287 OA
ATOM     23  C   UNL     1      10.351   4.090   5.771  0.00  0.00    +0.051 C 
ATOM     24  C   UNL     1      10.334   5.356   5.335  0.00  0.00    +0.004 C 
ATOM     25  C   UNL     1      11.094   6.400   5.978  0.00  0.00    +0.001 C 
ATOM     26  C   UNL     1      11.864   6.145   7.047  0.00  0.00    +0.013 C 
ENDBRANCH  17  19
ENDBRANCH   5  17
BRANCH   1  27
ATOM     27  C   UNL     1      15.893   4.826  13.000  0.00  0.00    +0.046 C 
BRANCH  27  28
ATOM     28  C   UNL     1      17.182   4.440  13.724  0.00  0.00    +0.125 C 
BRANCH  28  29
ATOM     29  C   UNL     1      17.800   5.619  14.432  0.00  0.00    +0.305 C 
ATOM     30  O   UNL     1      17.352   6.754  14.445  0.00  0.00    -0.251 OA
BRANCH  29  31
ATOM     31  O   UNL     1      18.936   5.280  15.086  0.00  0.00    -0.481 OA
ATOM     32  H   UNL     1      19.176   4.338  14.993  0.00  0.00    +0.295 HD
ENDBRANCH  29  31
ENDBRANCH  28  29
ENDBRANCH  27  28
ENDBRANCH   1  27
TORSDOF 8
