REMARK  Name = 
REMARK  17 active torsions:
REMARK  status: ('A' for Active; 'I' for Inactive)
REMARK    1  A    between atoms: N_8  and  C_9
REMARK    2  A    between atoms: C_12  and  C_14
REMARK    3  A    between atoms: C_14  and  O_15
REMARK    4  A    between atoms: O_15  and  P_16
REMARK    5  A    between atoms: P_16  and  O_17
REMARK    6  A    between atoms: P_16  and  O_19
REMARK    7  A    between atoms: O_19  and  P_20
REMARK    8  A    between atoms: P_20  and  O_21
REMARK    9  A    between atoms: P_20  and  O_22
REMARK   10  A    between atoms: C_24  and  O_26
REMARK   11  A    between atoms: O_26  and  P_27
REMARK   12  A    between atoms: P_27  and  O_28
REMARK   13  A    between atoms: P_27  and  O_30
REMARK   14  A    between atoms: O_30  and  P_31
REMARK   15  A    between atoms: P_31  and  O_32
REMARK   16  A    between atoms: P_31  and  O_33
REMARK   17  A    between atoms: C_35  and  O_37
REMARK                            x       y       z     vdW  Elec       q    Type
REMARK                         _______ _______ _______ _____ _____    ______ ____
ROOT
ATOM      1  C   UNL     1       7.107 -16.091   4.675  0.00  0.00    +0.253 C 
ATOM      2  C   UNL     1       7.237 -14.929   5.662  0.00  0.00    +0.196 C 
ATOM      3  C   UNL     1       7.932 -13.804   4.883  0.00  0.00    +0.194 C 
ATOM      4  C   UNL     1       7.849 -14.267   3.407  0.00  0.00    +0.179 C 
ATOM      5  O   UNL     1       6.964 -15.426   3.403  0.00  0.00    -0.346 OA
ENDROOT
BRANCH   1  17
ATOM      6  N   UNL     1       9.438 -18.124   9.030  0.00  0.00    -0.329 N 
ATOM      7  H   UNL     1       9.831 -18.871   9.587  0.00  0.00    +0.145 HD
ATOM      8  H   UNL     1       8.561 -17.748   9.388  0.00  0.00    +0.145 HD
ATOM      9  C   UNL     1       9.507 -18.190   7.676  0.00  0.00    +0.195 A 
ATOM     10  N   UNL     1      10.563 -18.929   7.165  0.00  0.00    -0.293 N 
ATOM     11  H   UNL     1      11.226 -19.356   7.782  0.00  0.00    +0.172 HD
ATOM     12  C   UNL     1      10.850 -19.049   5.821  0.00  0.00    +0.280 A 
ATOM     13  O   UNL     1      11.829 -19.676   5.427  0.00  0.00    -0.265 OA
ATOM     14  C   UNL     1       9.900 -18.350   4.988  0.00  0.00    +0.172 A 
ATOM     15  N   UNL     1       9.847 -18.230   3.627  0.00  0.00    -0.229 NA
ATOM     16  C   UNL     1       8.809 -17.451   3.416  0.00  0.00    +0.203 A 
ATOM     17  N   UNL     1       8.223 -17.021   4.587  0.00  0.00    -0.285 N 
ATOM     18  C   UNL     1       8.880 -17.657   5.605  0.00  0.00    +0.171 A 
ATOM     19  N   UNL     1       8.634 -17.557   6.936  0.00  0.00    -0.196 NA
ENDBRANCH   1  17
BRANCH   2  20
ATOM     20  O   UNL     1       5.968 -14.446   6.135  0.00  0.00    -0.385 OA
ATOM     21  H   UNL     1       5.397 -14.267   5.364  0.00  0.00    +0.210 HD
ENDBRANCH   2  20
BRANCH   4  22
ATOM     22  C   UNL     1       7.267 -13.331   2.315  0.00  0.00    +0.206 C 
BRANCH  22  23
ATOM     23  O   UNL     1       7.924 -12.086   2.169  0.00  0.00    -0.284 OA
BRANCH  23  24
ATOM     24  P   UNL     1       7.781 -11.221   0.806  0.00  0.00    +0.483 P 
ATOM     25  O   UNL     1       8.750 -10.098   0.665  0.00  0.00    -0.227 OA
BRANCH  24  26
ATOM     26  O   UNL     1       8.010 -12.301  -0.362  0.00  0.00    -0.302 OA
ATOM     27  H   UNL     1       8.953 -12.360  -0.613  0.00  0.00    +0.222 HD
ENDBRANCH  24  26
BRANCH  24  28
ATOM     28  O   UNL     1       6.261 -10.775   0.589  0.00  0.00    -0.186 OA
BRANCH  28  29
ATOM     29  P   UNL     1       6.037  -9.841  -0.849  0.00  0.00    +0.481 P 
ATOM     30  O   UNL     1       5.836  -9.005  -2.137  0.00  0.00    -0.227 OA
BRANCH  29  31
ATOM     31  O   UNL     1       4.508 -10.436  -0.846  0.00  0.00    -0.302 OA
ATOM     32  H   UNL     1       4.338 -10.974  -1.637  0.00  0.00    +0.222 HD
ENDBRANCH  29  31
BRANCH  29  33
ATOM     33  O   UNL     1       5.738  -8.582   0.159  0.00  0.00    -0.302 OA
ATOM     34  H   UNL     1       6.549  -8.094   0.386  0.00  0.00    +0.222 HD
ENDBRANCH  29  33
ENDBRANCH  28  29
ENDBRANCH  24  28
ENDBRANCH  23  24
ENDBRANCH  22  23
ENDBRANCH   4  22
BRANCH   3  35
ATOM     35  O   UNL     1       9.282 -13.704   5.373  0.00  0.00    -0.278 OA
BRANCH  35  36
ATOM     36  P   UNL     1       9.478 -12.957   6.853  0.00  0.00    +0.484 P 
ATOM     37  O   UNL     1      10.975 -12.711   7.035  0.00  0.00    -0.227 OA
BRANCH  36  38
ATOM     38  O   UNL     1       9.389 -11.433   6.040  0.00  0.00    -0.302 OA
ATOM     39  H   UNL     1      10.277 -11.049   6.204  0.00  0.00    +0.222 HD
ENDBRANCH  36  38
BRANCH  36  40
ATOM     40  O   UNL     1       9.566 -14.481   7.667  0.00  0.00    -0.186 OA
BRANCH  40  41
ATOM     41  P   UNL     1       9.216 -14.362   9.218  0.00  0.00    +0.481 P 
ATOM     42  O   UNL     1       8.805 -13.001   9.660  0.00  0.00    -0.227 OA
BRANCH  41  43
ATOM     43  O   UNL     1       8.078 -15.460   9.458  0.00  0.00    -0.302 OA
ATOM     44  H   UNL     1       7.187 -15.062   9.402  0.00  0.00    +0.222 HD
ENDBRANCH  41  43
BRANCH  41  45
ATOM     45  O   UNL     1      10.487 -15.000   9.932  0.00  0.00    -0.302 OA
ATOM     46  H   UNL     1      10.847 -15.732   9.396  0.00  0.00    +0.222 HD
ENDBRANCH  41  45
ENDBRANCH  40  41
ENDBRANCH  36  40
ENDBRANCH  35  36
ENDBRANCH   3  35
TORSDOF 17
