REMARK  Name = 
REMARK  2 active torsions:
REMARK  status: ('A' for Active; 'I' for Inactive)
REMARK    1  A    between atoms: C_1  and  C_2
REMARK    2  A    between atoms: C_11  and  C_12
REMARK                            x       y       z     vdW  Elec       q    Type
REMARK                         _______ _______ _______ _____ _____    ______ ____
ROOT
ATOM      1  C   UNL     1       1.052  -0.017  -0.041  0.00  0.00    +0.044 C 
ATOM      2  C   UNL     1       2.554   0.060  -0.044  0.00  0.00    -0.045 A 
ATOM      3  C   UNL     1       3.225   1.292  -0.042  0.00  0.00    -0.045 A 
ATOM      4  C   UNL     1       2.481   2.599  -0.032  0.00  0.00    +0.044 C 
ATOM      5  C   UNL     1       4.628   1.301  -0.048  0.00  0.00    +0.033 A 
ATOM      6  C   UNL     1       5.373   0.131  -0.054  0.00  0.00    +0.090 A 
ATOM      7  C   UNL     1       4.699  -1.118  -0.054  0.00  0.00    +0.092 A 
ATOM      8  N   UNL     1       5.378  -2.288  -0.058  0.00  0.00    -0.226 NA
ATOM      9  C   UNL     1       6.723  -2.198  -0.062  0.00  0.00    +0.166 A 
ATOM     10  N   UNL     1       7.446  -3.384  -0.065  0.00  0.00    -0.291 N 
ATOM     11  H   UNL     1       6.933  -4.254  -0.063  0.00  0.00    +0.172 HD
ATOM     12  C   UNL     1       8.805  -3.427  -0.069  0.00  0.00    +0.328 A 
ATOM     13  O   UNL     1       9.420  -4.488  -0.071  0.00  0.00    -0.247 OA
ATOM     14  N   UNL     1       9.449  -2.222  -0.071  0.00  0.00    -0.273 N 
ATOM     15  H   UNL     1      10.459  -2.243  -0.075  0.00  0.00    +0.173 HD
ATOM     16  C   UNL     1       8.853  -0.979  -0.068  0.00  0.00    +0.282 A 
ATOM     17  O   UNL     1       9.525   0.046  -0.071  0.00  0.00    -0.265 OA
ATOM     18  C   UNL     1       7.373  -0.975  -0.063  0.00  0.00    +0.171 A 
ATOM     19  N   UNL     1       6.715   0.209  -0.059  0.00  0.00    -0.237 NA
ATOM     20  C   UNL     1       3.309  -1.126  -0.050  0.00  0.00    +0.033 A 
ENDROOT
TORSDOF 0
