REMARK  Name = 
REMARK  2 active torsions:
REMARK  status: ('A' for Active; 'I' for Inactive)
REMARK    1  A    between atoms: C_1  and  S_2
REMARK    2  A    between atoms: S_2  and  C_3
REMARK                            x       y       z     vdW  Elec       q    Type
REMARK                         _______ _______ _______ _____ _____    ______ ____
ROOT
ATOM      1  C   UNL     1       3.321   1.184   1.293  0.00  0.00    +0.167 A 
ATOM      2  N   UNL     1       3.014   2.494   1.093  0.00  0.00    -0.332 N 
ATOM      3  H   UNL     1       2.553   2.869   0.277  0.00  0.00    +0.168 HD
ATOM      4  C   UNL     1       3.453   3.201   2.189  0.00  0.00    +0.083 A 
ATOM      5  C   UNL     1       3.409   4.560   2.512  0.00  0.00    +0.058 A 
ATOM      6  C   UNL     1       3.969   4.952   3.746  0.00  0.00    +0.049 A 
ATOM      7  C   UNL     1       4.548   3.994   4.611  0.00  0.00    +0.049 A 
ATOM      8  C   UNL     1       4.574   2.627   4.252  0.00  0.00    +0.060 A 
ATOM      9 BR   UNL     1       5.329   1.263   5.345  0.00  0.00    -0.047 Br
ATOM     10 BR   UNL     1       5.312   4.532   6.289  0.00  0.00    -0.048 Br
ATOM     11 BR   UNL     1       3.930   6.809   4.230  0.00  0.00    -0.048 Br
ATOM     12 BR   UNL     1       2.607   5.751   1.268  0.00  0.00    -0.047 Br
ATOM     13  C   UNL     1       4.015   2.237   3.019  0.00  0.00    +0.106 A 
ATOM     14  N   UNL     1       3.919   0.988   2.440  0.00  0.00    -0.221 NA
ENDROOT
BRANCH   1  16
ATOM     15  C   UNL     1       3.590  -1.481   0.863  0.00  0.00    +0.093 C 
ATOM     16  S   UNL     1       2.925   0.015   0.094  0.00  0.00    -0.091 S 
ENDBRANCH   1  16
TORSDOF 1
