REMARK  Name = 
REMARK  9 active torsions:
REMARK  status: ('A' for Active; 'I' for Inactive)
REMARK    1  A    between atoms: O_1  and  C_2
REMARK    2  A    between atoms: C_2  and  C_4
REMARK    3  A    between atoms: C_4  and  C_5
REMARK    4  A    between atoms: C_5  and  O_6
REMARK    5  A    between atoms: C_5  and  C_7
REMARK    6  A    between atoms: C_5  and  C_11
REMARK    7  A    between atoms: C_7  and  C_8
REMARK    8  A    between atoms: C_8  and  O_9
REMARK    9  A    between atoms: C_11  and  O_12
REMARK                            x       y       z     vdW  Elec       q    Type
REMARK                         _______ _______ _______ _____ _____    ______ ____
ROOT
ATOM      1  C   UNL     1       4.655   1.168   0.061  0.00  0.00    +0.182 C 
ENDROOT
BRANCH   1   2
ATOM      2  C   UNL     1       5.467   2.458   0.138  0.00  0.00    +0.338 C 
ATOM      3  O   UNL     1       5.099   3.530  -0.327  0.00  0.00    -0.248 OA
BRANCH   2   4
ATOM      4  O   UNL     1       6.626   2.304   0.823  0.00  0.00    -0.479 OA
ATOM      5  H   UNL     1       6.610   1.421   1.264  0.00  0.00    +0.295 HD
ENDBRANCH   2   4
ENDBRANCH   1   2
BRANCH   1   6
ATOM      6  O   UNL     1       5.052   0.382   1.209  0.00  0.00    -0.376 OA
ATOM      7  H   UNL     1       4.853  -0.559   1.036  0.00  0.00    +0.211 HD
ENDBRANCH   1   6
BRANCH   1   8
ATOM      8  C   UNL     1       3.150   1.466   0.083  0.00  0.00    +0.167 C 
BRANCH   8   9
ATOM      9  C   UNL     1       2.656   2.212   1.300  0.00  0.00    +0.308 C 
ATOM     10  O   UNL     1       1.933   1.698   2.137  0.00  0.00    -0.251 OA
BRANCH   9  11
ATOM     11  O   UNL     1       3.012   3.512   1.360  0.00  0.00    -0.481 OA
ATOM     12  H   UNL     1       3.577   3.856   0.628  0.00  0.00    +0.295 HD
ENDBRANCH   9  11
ENDBRANCH   8   9
ENDBRANCH   1   8
BRANCH   1  13
ATOM     13  C   UNL     1       5.091   0.386  -1.181  0.00  0.00    +0.167 C 
BRANCH  13  14
ATOM     14  C   UNL     1       4.931   1.142  -2.468  0.00  0.00    +0.308 C 
ATOM     15  O   UNL     1       3.886   1.574  -2.919  0.00  0.00    -0.251 OA
BRANCH  14  16
ATOM     16  O   UNL     1       6.089   1.280  -3.132  0.00  0.00    -0.481 OA
ATOM     17  H   UNL     1       5.857   1.771  -3.951  0.00  0.00    +0.295 HD
ENDBRANCH  14  16
ENDBRANCH  13  14
ENDBRANCH   1  13
TORSDOF 9
