REMARK  Name = 
REMARK  7 active torsions:
REMARK  status: ('A' for Active; 'I' for Inactive)
REMARK    1  A    between atoms: C_2  and  C_3
REMARK    2  A    between atoms: C_3  and  O_4
REMARK    3  A    between atoms: O_4  and  P_5
REMARK    4  A    between atoms: P_5  and  O_6
REMARK    5  A    between atoms: P_5  and  O_7
REMARK    6  A    between atoms: C_10  and  N_14
REMARK    7  A    between atoms: C_16  and  C_17
REMARK                            x       y       z     vdW  Elec       q    Type
REMARK                         _______ _______ _______ _____ _____    ______ ____
ROOT
ATOM      1  C   UNL     1       2.012  -0.158   0.109  0.00  0.00    +0.170 C 
ATOM      2  C   UNL     1       2.406   0.978   0.995  0.00  0.00    +0.007 C 
ATOM      3  C   UNL     1       2.863   0.498   2.153  0.00  0.00    +0.025 C 
ATOM      4  C   UNL     1       2.795  -0.989   2.137  0.00  0.00    +0.248 C 
ATOM      5  O   UNL     1       2.594  -1.318   0.748  0.00  0.00    -0.343 OA
ENDROOT
BRANCH   4   6
ATOM      6  N   UNL     1       4.028  -1.586   2.637  0.00  0.00    -0.270 N 
ATOM      7  C   UNL     1       4.036  -1.966   3.972  0.00  0.00    +0.332 A 
ATOM      8  O   UNL     1       3.095  -1.798   4.753  0.00  0.00    -0.246 OA
ATOM      9  N   UNL     1       5.188  -2.577   4.400  0.00  0.00    -0.275 N 
ATOM     10  H   UNL     1       5.202  -2.888   5.357  0.00  0.00    +0.173 HD
ATOM     11  C   UNL     1       6.286  -2.847   3.644  0.00  0.00    +0.257 A 
ATOM     12  O   UNL     1       7.259  -3.445   4.097  0.00  0.00    -0.267 OA
ATOM     13  C   UNL     1       6.250  -2.383   2.236  0.00  0.00    +0.030 A 
ATOM     14  C   UNL     1       7.443  -2.628   1.389  0.00  0.00    +0.051 C 
ATOM     15  C   UNL     1       5.125  -1.772   1.816  0.00  0.00    +0.102 A 
ENDBRANCH   4   6
BRANCH   1  16
ATOM     16  C   UNL     1       2.519  -0.036  -1.334  0.00  0.00    +0.208 C 
BRANCH  16  17
ATOM     17  O   UNL     1       2.069  -1.151  -2.103  0.00  0.00    -0.284 OA
BRANCH  17  18
ATOM     18  P   UNL     1       2.490  -1.076  -3.779  0.00  0.00    +0.472 P 
ATOM     19  O   UNL     1       2.867  -1.008  -5.279  0.00  0.00    -0.228 OA
BRANCH  18  20
ATOM     20  O   UNL     1       1.681  -2.487  -3.895  0.00  0.00    -0.303 OA
ATOM     21  H   UNL     1       1.959  -3.054  -3.153  0.00  0.00    +0.222 HD
ENDBRANCH  18  20
BRANCH  18  22
ATOM     22  O   UNL     1       3.940  -1.708  -3.370  0.00  0.00    -0.303 OA
ATOM     23  H   UNL     1       4.475  -1.702  -4.190  0.00  0.00    +0.222 HD
ENDBRANCH  18  22
ENDBRANCH  17  18
ENDBRANCH  16  17
ENDBRANCH   1  16
TORSDOF 6
