REMARK  Name = 
REMARK  6 active torsions:
REMARK  status: ('A' for Active; 'I' for Inactive)
REMARK    1  A    between atoms: N_1  and  CA_2
REMARK    2  A    between atoms: CA_2  and  C_4
REMARK    3  A    between atoms: CA_2  and  C_16
REMARK    4  A    between atoms: C_4  and  O_6
REMARK    5  A    between atoms: C_4  and  C_7
REMARK    6  A    between atoms: C_16  and  O_17
REMARK                            x       y       z     vdW  Elec       q    Type
REMARK                         _______ _______ _______ _____ _____    ______ ____
ROOT
ATOM      1  C   UNL     1       3.042   1.071  -0.857  0.00  0.00    +0.174 C 
ENDROOT
BRANCH   1   2
ATOM      2  C   UNL     1       2.586   0.986  -2.286  0.00  0.00    +0.008 A 
ATOM      3  C   UNL     1       2.220   2.076  -3.151  0.00  0.00    +0.005 A 
ATOM      4  C   UNL     1       1.813   1.524  -4.369  0.00  0.00    +0.047 A 
ATOM      5  C   UNL     1       1.358   2.299  -5.444  0.00  0.00    +0.026 A 
ATOM      6  C   UNL     1       1.313   3.684  -5.274  0.00  0.00    +0.002 A 
ATOM      7  C   UNL     1       1.715   4.268  -4.075  0.00  0.00    +0.001 A 
ATOM      8  N   UNL     1       1.950   0.161  -4.263  0.00  0.00    -0.360 N 
ATOM      9  H   UNL     1       1.711  -0.499  -4.991  0.00  0.00    +0.165 HD
ATOM     10  C   UNL     1       2.172   3.478  -3.014  0.00  0.00    +0.010 A 
ATOM     11  C   UNL     1       2.428  -0.173  -3.028  0.00  0.00    +0.089 A 
ENDBRANCH   1   2
BRANCH   1  12
ATOM     12  O   UNL     1       3.496  -0.203  -0.367  0.00  0.00    -0.385 OA
ATOM     13  H   UNL     1       4.140  -0.046   0.338  0.00  0.00    +0.210 HD
ENDBRANCH   1  12
BRANCH   1  14
ATOM     14  CA  UNL     1       1.992   1.658   0.120  0.00  0.00    +0.194 C 
BRANCH  14  15
ATOM     15  N   UNL     1       2.551   1.846   1.520  0.00  0.00    -0.316 NA
ATOM     16  H1  UNL     1       3.128   1.031   1.744  0.00  0.00    +0.119 HD
ATOM     17  H2  UNL     1       3.208   2.632   1.486  0.00  0.00    +0.119 HD
ENDBRANCH  14  15
BRANCH  14  18
ATOM     18  C   UNL     1       0.729   0.777   0.225  0.00  0.00    +0.325 C 
ATOM     19  OXT UNL     1       0.030   0.385  -0.693  0.00  0.00    -0.249 OA
BRANCH  18  20
ATOM     20  O   UNL     1       0.412   0.539   1.531  0.00  0.00    -0.479 OA
ATOM     21  H   UNL     1       1.077   1.038   2.065  0.00  0.00    +0.295 HD
ENDBRANCH  18  20
ENDBRANCH  14  18
ENDBRANCH   1  14
TORSDOF 6
