REMARK  Name = 
REMARK  28 active torsions:
REMARK  status: ('A' for Active; 'I' for Inactive)
REMARK    1  A    between atoms: C_1  and  N_2
REMARK    2  A    between atoms: N_2  and  CA_3
REMARK    3  A    between atoms: CA_3  and  CB_5
REMARK    4  A    between atoms: CA_3  and  C_9
REMARK    5  A    between atoms: CB_5  and  CG_6
REMARK    6  A    between atoms: CG_6  and  CD1_7
REMARK    7  A    between atoms: CG_6  and  CD2_8
REMARK    8  A    between atoms: N_11  and  C_12
REMARK    9  A    between atoms: C_14  and  O_16
REMARK   10  A    between atoms: C_24  and  O_25
REMARK   11  A    between atoms: O_25  and  C_26
REMARK   12  A    between atoms: C_29  and  C_31
REMARK   13  A    between atoms: C_31  and  O_32
REMARK   14  A    between atoms: C_33  and  O_35
REMARK   15  A    between atoms: C_36  and  O_38
REMARK   16  A    between atoms: C_39  and  O_41
REMARK   17  A    between atoms: CA_51  and  CB_53
REMARK   18  A    between atoms: CB_53  and  CG_54
REMARK   19  A    between atoms: C_68  and  O_69
REMARK   20  A    between atoms: C_75  and  O_76
REMARK   21  A    between atoms: C_78  and  O_79
REMARK   22  A    between atoms: C_80  and  C_113
REMARK   23  A    between atoms: C_90  and  O_92
REMARK   24  A    between atoms: O_92  and  C_93
REMARK   25  A    between atoms: C_96  and  C_97
REMARK   26  A    between atoms: C_96  and  N_98
REMARK   27  A    between atoms: C_101  and  C_103
REMARK   28  A    between atoms: C_113  and  O_114
REMARK                            x       y       z     vdW  Elec       q    Type
REMARK                         _______ _______ _______ _____ _____    ______ ____
ROOT
ATOM      1  C   UNK A   2      -1.598  19.144  -6.420  0.00  0.00    +0.192 C 
ATOM      2  C   UNK A   2      -0.295  18.034  -6.217  0.00  0.00    +0.237 C 
ATOM      3  O   UNK A   2      -0.099  17.557  -5.095  0.00  0.00    -0.274 OA
ATOM      4  N   ASN A   3       0.696  17.858  -7.217  0.00  0.00    -0.302 N 
ATOM      5  H   ASN A   3       0.293  17.874  -8.153  0.00  0.00    +0.150 HD
ATOM      6  CA  ASN A   3       2.088  17.106  -7.184  0.00  0.00    +0.168 C 
ATOM      7  C   ASN A   3       1.833  15.685  -7.760  0.00  0.00    +0.235 C 
ATOM      8  O   ASN A   3       1.267  15.533  -8.840  0.00  0.00    -0.274 OA
ATOM      9  N   UNK A   4       2.370  14.650  -6.994  0.00  0.00    -0.299 N 
ATOM     10  H   UNK A   4       3.351  14.688  -6.750  0.00  0.00    +0.150 HD
ATOM     11  C   UNK A   4       1.896  13.286  -6.955  0.00  0.00    +0.190 C 
ATOM     12  C   UNK A   4       2.213  12.717  -5.516  0.00  0.00    +0.239 C 
ATOM     13  N   UNK A   5       3.426  12.050  -5.405  0.00  0.00    -0.299 N 
ATOM     14  H   UNK A   5       4.131  12.273  -6.103  0.00  0.00    +0.150 HD
ATOM     15  C   UNK A   5       3.282  10.628  -5.128  0.00  0.00    +0.190 C 
ATOM     16  C   UNK A   5       3.159   9.830  -6.604  0.00  0.00    +0.239 C 
ATOM     17  O   UNK A   5       2.855   8.635  -6.643  0.00  0.00    -0.273 OA
ATOM     18  N   UNK A   6       3.310  10.518  -7.862  0.00  0.00    -0.300 N 
ATOM     19  H   UNK A   6       2.363  10.624  -8.211  0.00  0.00    +0.150 HD
ATOM     20  C   UNK A   6       4.095   9.887  -9.078  0.00  0.00    +0.192 C 
ATOM     21  C   UNK A   6       3.906  10.330 -10.648  0.00  0.00    +0.180 C 
ATOM     22  C   UNK A   6       2.478  10.544 -11.113  0.00  0.00    -0.015 A 
ATOM     23  C   UNK A   6       2.155  11.649 -11.918  0.00  0.00    +0.010 A 
ATOM     24  C   UNK A   6       0.847  12.182 -11.923  0.00  0.00    +0.048 A 
ATOM     25  C   UNK A   6      -0.142  11.590 -11.139  0.00  0.00    +0.147 A 
ATOM     26  O   UNK A   6      -1.251  12.347 -10.662  0.00  0.00    -0.451 OA
ATOM     27  C   UNK A   6      -1.140  12.918  -9.350  0.00  0.00    +0.174 A 
ATOM     28  C   UNK A   6       0.171  12.934  -8.776  0.00  0.00    +0.056 A 
ATOM     29  C   UNK A   6      -2.218  13.373  -8.515  0.00  0.00    +0.208 A 
ATOM     30  C   UNK A   6      -1.897  13.447  -7.084  0.00  0.00    +0.174 A 
ATOM     31  C   UNK A   6      -0.599  13.353  -6.565  0.00  0.00    +0.056 A 
ATOM     32  O   UNK A   6      -2.814  13.676  -6.042  0.00  0.00    -0.451 OA
ATOM     33  C   UNK A   6      -2.964  15.002  -5.693  0.00  0.00    +0.147 A 
ATOM     34  C   UNK A   6      -3.012  15.880  -6.759  0.00  0.00    +0.048 A 
ATOM     35  C   UNK A   6      -3.590  17.089  -6.638  0.00  0.00    +0.010 A 
ATOM     36  C   UNK A   6      -3.455  17.663  -5.398  0.00  0.00    -0.015 A 
ATOM     37  C   UNK A   6      -3.384  16.877  -4.239  0.00  0.00    +0.030 A 
ATOM     38  C   UNK A   6      -3.197  15.497  -4.400  0.00  0.00    +0.083 A 
ATOM     39 CL   UNK A   6      -3.071  14.524  -2.982  0.00  0.00    -0.080 Cl
ATOM     40  C   UNK A   6       0.090  10.234 -10.865  0.00  0.00    +0.083 A 
ATOM     41 CL   UNK A   6      -1.166   9.089 -11.190  0.00  0.00    -0.080 Cl
ATOM     42  C   UNK A   6       1.411   9.719 -10.788  0.00  0.00    +0.030 A 
ATOM     43  C   UNK A   6       5.541  10.326  -8.822  0.00  0.00    +0.237 C 
ATOM     44  O   UNK A   6       6.155  11.190  -9.442  0.00  0.00    -0.274 OA
ATOM     45  N   UNK A   7       6.088   9.793  -7.701  0.00  0.00    -0.297 N 
ATOM     46  H   UNK A   7       5.532   9.136  -7.160  0.00  0.00    +0.150 HD
ATOM     47  C   UNK A   7       7.006  10.633  -6.975  0.00  0.00    +0.213 C 
ATOM     48  C   UNK A   7       8.079   9.764  -6.341  0.00  0.00    -0.002 A 
ATOM     49  C   UNK A   7       9.139   9.491  -7.259  0.00  0.00    +0.052 A 
ATOM     50  C   UNK A   7       9.904   8.389  -7.070  0.00  0.00    +0.121 A 
ATOM     51  C   UNK A   7       9.763   7.549  -6.000  0.00  0.00    +0.091 A 
ATOM     52  C   UNK A   7       8.761   7.838  -5.052  0.00  0.00    +0.128 A 
ATOM     53  C   UNK A   7       7.900   8.970  -5.137  0.00  0.00    +0.033 A 
ATOM     54  C   UNK A   7       6.738   9.206  -4.134  0.00  0.00    +0.028 A 
ATOM     55  C   UNK A   7       6.531   8.722  -2.849  0.00  0.00    +0.125 A 
ATOM     56  C   UNK A   7       5.318   9.006  -2.171  0.00  0.00    +0.046 A 
ATOM     57  C   UNK A   7       4.213   9.615  -2.836  0.00  0.00    +0.009 A 
ATOM     58  C   UNK A   7       5.688  10.077  -4.503  0.00  0.00    +0.018 A 
ATOM     59  C   UNK A   7       4.353  10.058  -4.145  0.00  0.00    -0.018 A 
ATOM     60  O   UNK A   4       1.505  12.868  -4.516  0.00  0.00    -0.273 OA
ATOM     61  C   UNK A   4       0.463  13.148  -7.411  0.00  0.00    -0.011 A 
ATOM     62  C   UNK A   6      -2.958  19.066  -5.505  0.00  0.00    +0.174 C 
ENDROOT
BRANCH   1  64
ATOM     63  C   LEU A   1      -1.122  20.624  -8.236  0.00  0.00    +0.231 C 
ATOM     64  N   UNK A   2      -1.977  19.651  -7.772  0.00  0.00    -0.300 N 
ATOM     65  H   UNK A   2      -2.963  19.903  -7.857  0.00  0.00    +0.150 HD
ATOM     66  O   LEU A   1       0.077  20.543  -7.956  0.00  0.00    -0.274 OA
BRANCH  63  67
ATOM     67  CA  LEU A   1      -1.724  21.922  -8.836  0.00  0.00    +0.140 C 
BRANCH  67  69
ATOM     68  C   ACE A   0      -1.887  21.536 -11.287  0.00  0.00    +0.101 C 
ATOM     69  N   LEU A   1      -2.592  21.716 -10.017  0.00  0.00    -0.309 NA
ATOM     70  H   LEU A   1      -3.166  22.558 -10.114  0.00  0.00    +0.122 HD
ENDBRANCH  67  69
BRANCH  67  71
ATOM     71  CB  LEU A   1      -0.515  22.862  -9.008  0.00  0.00    +0.031 C 
BRANCH  71  72
ATOM     72  CG  LEU A   1      -0.748  24.219  -9.664  0.00  0.00    -0.015 C 
ATOM     73  CD2 LEU A   1       0.628  24.818  -9.967  0.00  0.00    +0.007 C 
ATOM     74  CD1 LEU A   1      -1.583  25.121  -8.764  0.00  0.00    +0.007 C 
ENDBRANCH  71  72
ENDBRANCH  67  71
ENDBRANCH  63  67
ENDBRANCH   1  64
BRANCH  62  75
ATOM     75  O   UNK A   6      -4.045  19.816  -6.134  0.00  0.00    -0.385 OA
ATOM     76  H   UNK A   6      -4.878  19.515  -5.718  0.00  0.00    +0.210 HD
ENDBRANCH  62  75
BRANCH  55  77
ATOM     77  O   UNK A   7       7.459   8.017  -2.136  0.00  0.00    -0.506 OA
ATOM     78  H   UNK A   7       8.079   7.629  -2.783  0.00  0.00    +0.292 HD
ENDBRANCH  55  77
BRANCH  50  79
ATOM     79  O   UNK A   7      10.863   8.006  -8.002  0.00  0.00    -0.507 OA
ATOM     80  H   UNK A   7      10.682   8.473  -8.859  0.00  0.00    +0.292 HD
ENDBRANCH  50  79
BRANCH  52  81
ATOM     81  O   UNK A   7       8.609   6.901  -4.057  0.00  0.00    -0.506 OA
ATOM     82  H   UNK A   7       9.112   6.098  -4.298  0.00  0.00    +0.292 HD
ENDBRANCH  52  81
BRANCH  47  83
ATOM     83  C   UNK A   7       7.018  12.181  -7.049  0.00  0.00    +0.330 C 
ATOM     84  O   UNK A   7       5.970  12.828  -6.935  0.00  0.00    -0.249 OA
BRANCH  83  85
ATOM     85  O   UNK A   7       8.207  12.791  -7.154  0.00  0.00    -0.479 OA
ATOM     86  H   UNK A   7       8.969  12.196  -7.251  0.00  0.00    +0.295 HD
ENDBRANCH  83  85
ENDBRANCH  47  83
BRANCH  21  87
ATOM     87  O   UNK A   6       4.610   9.344 -11.457  0.00  0.00    -0.341 OA
BRANCH  87  88
ATOM     88  C   UNK A   6       5.150   9.751 -12.744  0.00  0.00    +0.254 C 
ATOM     89  O   UNK A   6       5.873  10.981 -12.678  0.00  0.00    -0.341 OA
ATOM     90  C   UNK A   6       6.480  11.357 -13.917  0.00  0.00    +0.186 C 
ATOM     91  C   UNK A   6       7.104  12.742 -13.778  0.00  0.00    +0.046 C 
ATOM     92  C   UNK A   6       7.498  10.316 -14.383  0.00  0.00    +0.181 C 
ATOM     93  O   UNK A   6       8.605  10.620 -14.835  0.00  0.00    -0.293 OA
ATOM     94  C   UNK A   6       6.946   8.879 -14.459  0.00  0.00    +0.080 C 
ATOM     95  C   UNK A   6       8.088   7.846 -14.549  0.00  0.00    +0.036 C 
ATOM     96  C   UNK A   6       6.110   8.622 -13.183  0.00  0.00    +0.090 C 
BRANCH  94  97
ATOM     97  N   UNK A   6       6.137   8.731 -15.703  0.00  0.00    -0.319 NA
ATOM     98  H   UNK A   6       6.713   8.403 -16.485  0.00  0.00    +0.119 HD
ATOM     99  H   UNK A   6       5.801   9.628 -16.044  0.00  0.00    +0.119 HD
ENDBRANCH  94  97
ENDBRANCH  87  88
ENDBRANCH  21  87
BRANCH  29 100
ATOM    100  O   UNK A   6      -3.533  13.744  -8.806  0.00  0.00    -0.453 OA
BRANCH 100 101
ATOM    101  C   UNK A   6      -4.099  14.658  -9.853  0.00  0.00    +0.340 C 
ATOM    102  C   UNK A   6      -5.630  15.034  -9.493  0.00  0.00    +0.214 C 
ATOM    103  C   UNK A   6      -6.313  15.943 -10.558  0.00  0.00    +0.180 C 
ATOM    104  C   UNK A   6      -5.469  17.141 -10.940  0.00  0.00    +0.177 C 
ATOM    105  C   UNK A   6      -4.017  16.705 -11.181  0.00  0.00    +0.179 C 
ATOM    106  O   UNK A   6      -3.435  15.938 -10.076  0.00  0.00    -0.331 OA
BRANCH 104 107
ATOM    107  O   UNK A   6      -6.045  17.791 -12.094  0.00  0.00    -0.386 OA
ATOM    108  H   UNK A   6      -6.656  17.198 -12.567  0.00  0.00    +0.210 HD
ENDBRANCH 104 107
BRANCH 103 109
ATOM    109  O   UNK A   6      -7.597  16.436 -10.105  0.00  0.00    -0.386 OA
ATOM    110  H   UNK A   6      -7.796  17.261 -10.602  0.00  0.00    +0.210 HD
ENDBRANCH 103 109
BRANCH 102 111
ATOM    111  O   UNK A   6      -6.473  13.880  -9.359  0.00  0.00    -0.383 OA
ATOM    112  H   UNK A   6      -7.370  14.229  -9.178  0.00  0.00    +0.210 HD
ENDBRANCH 102 111
BRANCH 105 113
ATOM    113  C   UNK A   6      -3.205  17.990 -11.446  0.00  0.00    +0.190 C 
BRANCH 113 114
ATOM    114  O   UNK A   6      -1.861  17.710 -11.817  0.00  0.00    -0.392 OA
ATOM    115  H   UNK A   6      -1.769  16.748 -11.907  0.00  0.00    +0.210 HD
ENDBRANCH 113 114
ENDBRANCH 105 113
ENDBRANCH 100 101
ENDBRANCH  29 100
BRANCH   6 116
ATOM    116  CB  ASN A   3       3.681  17.103  -7.471  0.00  0.00    +0.127 C 
BRANCH 116 117
ATOM    117  CG  ASN A   3       4.731  18.074  -7.038  0.00  0.00    +0.213 C 
ATOM    118  OD1 ASN A   3       5.738  18.279  -7.712  0.00  0.00    -0.276 OA
ATOM    119  ND2 ASN A   3       4.668  18.508  -5.760  0.00  0.00    -0.329 N 
ATOM    120 HD21 ASN A   3       5.453  19.062  -5.443  0.00  0.00    +0.145 HD
ATOM    121 HD22 ASN A   3       3.826  18.485  -5.205  0.00  0.00    +0.145 HD
ENDBRANCH 116 117
ENDBRANCH   6 116
TORSDOF 23
