REMARK  Name = 
REMARK  7 active torsions:
REMARK  status: ('A' for Active; 'I' for Inactive)
REMARK    1  A    between atoms: C_2  and  N_3
REMARK    2  A    between atoms: N_3  and  C_4
REMARK    3  A    between atoms: N_3  and  C_9
REMARK    4  A    between atoms: C_4  and  S_5
REMARK    5  A    between atoms: C_10  and  C_11
REMARK    6  A    between atoms: N_12  and  C_13
REMARK    7  A    between atoms: N_14  and  C_17
REMARK                            x       y       z     vdW  Elec       q    Type
REMARK                         _______ _______ _______ _____ _____    ______ ____
ROOT
ATOM      1 NA   UNL     1       0.750   1.977  -1.235  0.00  0.00    +0.000 Na
ENDROOT
TORSDOF 0
REMARK  Name = 
REMARK  7 active torsions:
REMARK  status: ('A' for Active; 'I' for Inactive)
REMARK    1  A    between atoms: C_2  and  N_3
REMARK    2  A    between atoms: N_3  and  C_4
REMARK    3  A    between atoms: N_3  and  C_9
REMARK    4  A    between atoms: C_4  and  S_5
REMARK    5  A    between atoms: C_10  and  C_11
REMARK    6  A    between atoms: N_12  and  C_13
REMARK    7  A    between atoms: N_14  and  C_17
REMARK                            x       y       z     vdW  Elec       q    Type
REMARK                         _______ _______ _______ _____ _____    ______ ____
ROOT
ATOM      1  C   UNL     1       3.121  -1.059  -0.969  0.00  0.00    +0.000 A 
ATOM      2  C   UNL     1       2.958  -2.566  -0.688  0.00  0.00    +0.000 A 
ATOM      3  O   UNL     1       2.291  -3.050   0.217  0.00  0.00    +0.000 OA
ATOM      4  N   UNL     1       3.684  -3.244  -1.659  0.00  0.00    +0.000 N 
ATOM      5  N   UNL     1       4.169  -2.317  -2.584  0.00  0.00    +0.000 N 
ATOM      6  C   UNL     1       5.288  -2.724  -3.430  0.00  0.00    +0.000 C 
ATOM      7  C   UNL     1       3.974  -1.045  -2.025  0.00  0.00    +0.000 A 
ATOM      8  C   UNL     1       4.661   0.130  -2.644  0.00  0.00    +0.000 C 
ENDROOT
BRANCH   4   9
ATOM      9  C   UNL     1       3.570  -4.620  -1.908  0.00  0.00    +0.000 A 
ATOM     10  C   UNL     1       3.914  -5.523  -0.893  0.00  0.00    +0.000 A 
ATOM     11  C   UNL     1       3.870  -6.899  -1.128  0.00  0.00    +0.000 A 
ATOM     12  C   UNL     1       3.438  -7.379  -2.363  0.00  0.00    +0.000 A 
ATOM     13  C   UNL     1       3.057  -6.486  -3.365  0.00  0.00    +0.000 A 
ATOM     14  C   UNL     1       3.136  -5.110  -3.142  0.00  0.00    +0.000 A 
ENDBRANCH   4   9
BRANCH   1  16
ATOM     15  C   UNL     1       1.463  -0.514   0.789  0.00  0.00    +0.000 C 
ATOM     16  N   UNL     1       2.487  -0.060  -0.192  0.00  0.00    +0.000 N 
BRANCH  16  17
ATOM     17  C   UNL     1       3.338   1.071   0.385  0.00  0.00    +0.000 C 
BRANCH  17  18
ATOM     18  S   UNL     1       2.533   2.386   1.370  0.00  0.00    +0.000 S 
ATOM     19  O   UNL     1       3.539   3.439   1.446  0.00  0.00    +0.000 OA
ATOM     20  O   UNL     1       2.180   1.743   2.632  0.00  0.00    +0.000 OA
ATOM     21  O   UNL     1       1.384   2.729   0.525  0.00  0.00    -1.000 OA
ENDBRANCH  17  18
ENDBRANCH  16  17
ENDBRANCH   1  16
TORSDOF 4
