REMARK  Name = 
REMARK  12 active torsions:
REMARK  status: ('A' for Active; 'I' for Inactive)
REMARK    1  A    between atoms: C_6  and  C_7
REMARK    2  A    between atoms: C_7  and  O_8
REMARK    3  A    between atoms: C_10  and  O_11
REMARK    4  A    between atoms: C_14  and  C_15
REMARK    5  A    between atoms: C_19  and  O_20
REMARK    6  A    between atoms: C_21  and  C_23
REMARK    7  A    between atoms: C_24  and  O_26
REMARK    8  A    between atoms: C_27  and  O_28
REMARK    9  A    between atoms: O_28  and  C_29
REMARK   10  A    between atoms: C_29  and  C_30
REMARK   11  A    between atoms: C_32  and  C_33
REMARK   12  A    between atoms: C_32  and  C_34
REMARK                            x       y       z     vdW  Elec       q    Type
REMARK                         _______ _______ _______ _____ _____    ______ ____
ROOT
ATOM      1  C   UNL     1      -0.000  -0.000  -0.000  0.00  0.00    +0.055 C 
ATOM      2  C   UNL     1      -0.000  -0.000  -0.000  0.00  0.00    +0.015 C 
ATOM      3  C   UNL     1      -0.000  -0.000   0.000  0.00  0.00    +0.015 C 
ATOM      4  C   UNL     1      -0.000  -0.000   0.000  0.00  0.00    +0.015 C 
ATOM      5  C   UNL     1      -0.000  -0.000  -0.000  0.00  0.00    +0.149 C 
ATOM      6  C   UNL     1      -0.000  -0.000  -0.000  0.00  0.00    +0.165 C 
ATOM      7  C   UNL     1      -0.000  -0.000  -0.000  0.00  0.00    +0.051 C 
ATOM      8  C   UNL     1       0.000  -0.000   0.000  0.00  0.00    +0.013 C 
ATOM      9  C   UNL     1      -0.000  -0.000   0.000  0.00  0.00    +0.087 C 
ATOM     10  C   UNL     1      -0.000  -0.000  -0.000  0.00  0.00    +0.084 C 
ATOM     11  C   UNL     1      -0.000  -0.000  -0.000  0.00  0.00    +0.140 C 
ATOM     12  C   UNL     1      -0.000  -0.000  -0.000  0.00  0.00    +0.191 C 
ATOM     13  O   UNL     1      -0.000  -0.000   0.000  0.00  0.00    -0.289 OA
ATOM     14  C   UNL     1      -0.000  -0.000  -0.000  0.00  0.00    -0.009 C 
ATOM     15  C   UNL     1      -0.000  -0.000   0.000  0.00  0.00    +0.047 C 
ATOM     16  C   UNL     1      -0.000  -0.000   0.000  0.00  0.00    +0.076 C 
ATOM     17  C   UNL     1      -0.000  -0.000  -0.000  0.00  0.00    -0.045 C 
ATOM     18  C   UNL     1      -0.000  -0.000   0.000  0.00  0.00    -0.019 C 
ATOM     19  C   UNL     1      -0.000  -0.000  -0.000  0.00  0.00    -0.011 C 
ATOM     20  C   UNL     1      -0.000  -0.000  -0.000  0.00  0.00    +0.052 C 
ENDROOT
BRANCH   6  21
ATOM     21  O   UNL     1      -0.000  -0.000  -0.000  0.00  0.00    -0.387 OA
ATOM     22  H   UNL     1       0.000   0.000   0.000  0.00  0.00    +0.210 HD
ENDBRANCH   6  21
BRANCH   9  23
ATOM     23  O   UNL     1      -0.000  -0.000  -0.000  0.00  0.00    -0.387 OA
ATOM     24  H   UNL     1       0.000   0.000   0.000  0.00  0.00    +0.210 HD
ENDBRANCH   9  23
BRANCH  11  25
ATOM     25  O   UNL     1      -0.000  -0.000  -0.000  0.00  0.00    -0.380 OA
ATOM     26  H   UNL     1       0.000   0.000   0.000  0.00  0.00    +0.211 HD
ENDBRANCH  11  25
BRANCH   5  27
ATOM     27  O   UNL     1      -0.000  -0.000  -0.000  0.00  0.00    -0.455 OA
BRANCH  27  28
ATOM     28  C   UNL     1      -0.000  -0.000  -0.000  0.00  0.00    +0.305 C 
ATOM     29  O   UNL     1      -0.000  -0.000  -0.000  0.00  0.00    -0.251 OA
ATOM     30  C   UNL     1      -0.000  -0.000  -0.000  0.00  0.00    +0.136 C 
ENDBRANCH  27  28
ENDBRANCH   5  27
BRANCH  17  31
ATOM     31  C   UNL     1      -0.000  -0.000  -0.000  0.00  0.00    +0.186 C 
BRANCH  31  32
ATOM     32  O   UNL     1      -0.000  -0.000  -0.000  0.00  0.00    -0.391 OA
ATOM     33  H   UNL     1      -0.000  -0.000  -0.000  0.00  0.00    +0.210 HD
ENDBRANCH  31  32
ENDBRANCH  17  31
TORSDOF 7
