REMARK  Name = 
REMARK  12 active torsions:
REMARK  status: ('A' for Active; 'I' for Inactive)
REMARK    1  A    between atoms: C_1  and  C_2
REMARK    2  A    between atoms: N_4  and  C_5
REMARK    3  A    between atoms: C_7  and  O_9
REMARK    4  A    between atoms: C_11  and  P_24
REMARK    5  A    between atoms: C_14  and  C_16
REMARK    6  A    between atoms: C_16  and  O_18
REMARK    7  A    between atoms: C_16  and  C_19
REMARK    8  A    between atoms: C_19  and  O_21
REMARK    9  A    between atoms: C_19  and  C_22
REMARK   10  A    between atoms: C_22  and  O_23
REMARK   11  A    between atoms: P_24  and  O_25
REMARK   12  A    between atoms: P_24  and  O_26
REMARK                            x       y       z     vdW  Elec       q    Type
REMARK                         _______ _______ _______ _____ _____    ______ ____
ROOT
ATOM      1  C   UNL     1       4.304  -0.064  -1.280  0.00  0.00    +0.133 C 
ATOM      2  C   UNL     1       5.028  -0.934  -0.238  0.00  0.00    +0.173 C 
ATOM      3  O   UNL     1       4.801  -0.409   1.080  0.00  0.00    -0.357 OA
ATOM      4  C   UNL     1       5.263   0.962   1.281  0.00  0.00    +0.234 C 
ATOM      5  C   UNL     1       4.631   1.906   0.264  0.00  0.00    +0.077 C 
ATOM      6  C   UNL     1       4.853   1.380  -1.150  0.00  0.00    +0.140 C 
ENDROOT
BRANCH   1   9
ATOM      7  C   UNL     1       0.520   0.186  -1.615  0.00  0.00    +0.109 C 
ATOM      8  C   UNL     1       1.955   0.450  -1.969  0.00  0.00    +0.210 C 
ATOM      9  N   UNL     1       2.855  -0.112  -1.097  0.00  0.00    -0.308 N 
ATOM     10  H   UNL     1       2.510  -0.870  -0.500  0.00  0.00    +0.149 HD
ATOM     11  O   UNL     1       2.291   1.131  -2.930  0.00  0.00    -0.276 OA
ENDBRANCH   1   9
BRANCH   4  12
ATOM     12  P   UNL     1       7.093   0.964   1.264  0.00  0.00    +0.356 P 
ATOM     13  O   UNL     1       8.641   0.966   1.249  0.00  0.00    -0.256 OA
BRANCH  12  14
ATOM     14  O   UNL     1       7.013  -0.019   2.591  0.00  0.00    -0.322 OA
ATOM     15  H   UNL     1       7.766   0.157   3.183  0.00  0.00    +0.220 HD
ENDBRANCH  12  14
BRANCH  12  16
ATOM     16  O   UNL     1       7.035   2.376   2.111  0.00  0.00    -0.322 OA
ATOM     17  H   UNL     1       7.958   2.658   2.272  0.00  0.00    +0.220 HD
ENDBRANCH  12  16
ENDBRANCH   4  12
BRANCH   6  18
ATOM     18  O   UNL     1       6.272   1.368  -1.385  0.00  0.00    -0.390 OA
ATOM     19  H   UNL     1       6.406   1.108  -2.317  0.00  0.00    +0.210 HD
ENDBRANCH   6  18
BRANCH   2  20
ATOM     20  C   UNL     1       4.562  -2.411  -0.302  0.00  0.00    +0.176 C 
BRANCH  20  21
ATOM     21  O   UNL     1       3.189  -2.465   0.125  0.00  0.00    -0.387 OA
ATOM     22  H   UNL     1       3.232  -2.554   1.100  0.00  0.00    +0.210 HD
ENDBRANCH  20  21
BRANCH  20  23
ATOM     23  C   UNL     1       5.441  -3.344   0.569  0.00  0.00    +0.171 C 
BRANCH  23  24
ATOM     24  O   UNL     1       5.294  -3.015   1.959  0.00  0.00    -0.387 OA
ATOM     25  H   UNL     1       5.634  -2.102   2.085  0.00  0.00    +0.210 HD
ENDBRANCH  23  24
BRANCH  23  26
ATOM     26  C   UNL     1       5.079  -4.831   0.417  0.00  0.00    +0.189 C 
BRANCH  26  27
ATOM     27  O   UNL     1       3.774  -5.109   0.918  0.00  0.00    -0.392 OA
ATOM     28  H   UNL     1       3.749  -4.707   1.807  0.00  0.00    +0.210 HD
ENDBRANCH  26  27
ENDBRANCH  23  26
ENDBRANCH  20  23
ENDBRANCH   2  20
TORSDOF 11
