REMARK  Name = 
REMARK  11 active torsions:
REMARK  status: ('A' for Active; 'I' for Inactive)
REMARK    1  A    between atoms: C_8  and  N_10
REMARK    2  A    between atoms: C_11  and  C_12
REMARK    3  A    between atoms: C_15  and  C_16
REMARK    4  A    between atoms: C_16  and  C_17
REMARK    5  A    between atoms: C_16  and  C_18
REMARK    6  A    between atoms: N_19  and  C_20
REMARK    7  A    between atoms: C_20  and  C_21
REMARK    8  A    between atoms: C_21  and  C_22
REMARK    9  A    between atoms: C_22  and  N_24
REMARK   10  A    between atoms: C_22  and  C_35
REMARK   11  A    between atoms: C_25  and  C_27
REMARK                            x       y       z     vdW  Elec       q    Type
REMARK                         _______ _______ _______ _____ _____    ______ ____
ROOT
ATOM      1  C   UNL     1       1.587  -3.462   3.278  0.00  0.00    +0.042 C 
ENDROOT
BRANCH   1   2
ATOM      2  C   UNL     1       0.596  -4.413   2.602  0.00  0.00    +0.087 C 
BRANCH   2   4
ATOM      3  C   UNL     1       2.276  -5.349   0.975  0.00  0.00    +0.059 C 
ATOM      4  N   UNL     1       1.216  -5.572   1.961  0.00  0.00    -0.296 NA
ATOM      5  C   UNL     1       0.283  -6.458   1.257  0.00  0.00    +0.059 C 
ATOM      6  C   UNL     1      -0.430  -5.759   0.076  0.00  0.00    +0.044 C 
ATOM      7  C   UNL     1       0.375  -4.624  -0.619  0.00  0.00    +0.093 C 
ATOM      8  C   UNL     1       1.264  -7.539   0.806  0.00  0.00    +0.020 C 
ATOM      9  C   UNL     1       1.834  -4.421  -0.160  0.00  0.00    +0.044 C 
ATOM     10  C   UNL     1       2.530  -6.769   0.447  0.00  0.00    +0.020 C 
BRANCH   7  11
ATOM     11  N   UNL     1       0.231  -4.506  -2.069  0.00  0.00    -0.312 N 
ATOM     12  C   UNL     1      -0.090  -3.345  -2.765  0.00  0.00    +0.136 A 
ATOM     13  N   UNL     1      -0.041  -3.603  -4.055  0.00  0.00    -0.134 NA
ATOM     14  N   UNL     1       0.310  -4.905  -4.225  0.00  0.00    -0.135 NA
ATOM     15  C   UNL     1       0.484  -5.452  -3.040  0.00  0.00    +0.131 A 
ATOM     16  C   UNL     1       0.911  -6.854  -2.862  0.00  0.00    +0.088 C 
BRANCH  12  17
ATOM     17  C   UNL     1      -0.403  -1.995  -2.184  0.00  0.00    +0.051 C 
ATOM     18  C   UNL     1      -1.394  -1.236  -3.074  0.00  0.00    +0.015 C 
ATOM     19  C   UNL     1       0.875  -1.169  -2.026  0.00  0.00    +0.015 C 
ENDBRANCH  12  17
ENDBRANCH   7  11
ENDBRANCH   2   4
ENDBRANCH   1   2
BRANCH   1  20
ATOM     20  C   UNL     1       0.938  -2.259   4.000  0.00  0.00    +0.104 C 
BRANCH  20  21
ATOM     21  C   UNL     1       0.315  -1.185   3.120  0.00  0.00    -0.027 A 
ATOM     22  C   UNL     1      -0.896  -1.371   2.433  0.00  0.00    +0.005 A 
ATOM     23  C   UNL     1      -1.512  -0.309   1.766  0.00  0.00    +0.000 A 
ATOM     24  C   UNL     1      -0.935   0.957   1.787  0.00  0.00    +0.000 A 
ATOM     25  C   UNL     1       0.276   1.156   2.442  0.00  0.00    +0.000 A 
ATOM     26  C   UNL     1       0.902   0.091   3.093  0.00  0.00    +0.005 A 
ENDBRANCH  20  21
BRANCH  20  27
ATOM     27  N   UNL     1      -0.016  -2.675   5.017  0.00  0.00    -0.308 N 
ATOM     28  H   UNL     1      -1.000  -2.499   4.864  0.00  0.00    +0.149 HD
ATOM     29  C   UNL     1       0.409  -3.138   6.234  0.00  0.00    +0.217 C 
ATOM     30  O   UNL     1       1.595  -3.177   6.550  0.00  0.00    -0.275 OA
BRANCH  29  31
ATOM     31  C   UNL     1      -0.712  -3.613   7.159  0.00  0.00    +0.075 C 
ATOM     32  C   UNL     1      -0.154  -4.035   8.529  0.00  0.00    +0.018 C 
ATOM     33  C   UNL     1       0.640  -5.342   8.468  0.00  0.00    +0.076 C 
ATOM     34  C   UNL     1      -0.144  -6.452   7.794  0.00  0.00    +0.249 C 
ATOM     35  F   UNL     1      -1.169  -6.822   8.607  0.00  0.00    -0.206 F 
ATOM     36  F   UNL     1       0.643  -7.545   7.647  0.00  0.00    -0.206 F 
ATOM     37  C   UNL     1      -0.714  -6.054   6.443  0.00  0.00    +0.076 C 
ATOM     38  C   UNL     1      -1.522  -4.759   6.533  0.00  0.00    +0.018 C 
ENDBRANCH  29  31
ENDBRANCH  20  27
ENDBRANCH   1  20
TORSDOF 8
