REMARK  Name = 
REMARK  5 active torsions:
REMARK  status: ('A' for Active; 'I' for Inactive)
REMARK    1  A    between atoms: O_1  and  C_2
REMARK    2  A    between atoms: C_2  and  C_3
REMARK    3  A    between atoms: C_6  and  O_8
REMARK    4  A    between atoms: C_10  and  O_12
REMARK    5  A    between atoms: C_13  and  O_15
REMARK                            x       y       z     vdW  Elec       q    Type
REMARK                         _______ _______ _______ _____ _____    ______ ____
ROOT
ATOM      1  C   UNL     1       2.725   1.478   0.116  0.00  0.00    +0.177 C 
ATOM      2  C   UNL     1       2.925   2.451  -1.056  0.00  0.00    +0.174 C 
ATOM      3  C   UNL     1       2.982   1.656  -2.375  0.00  0.00    +0.150 C 
ATOM      4  C   UNL     1       4.007   0.543  -2.288  0.00  0.00    +0.095 C 
ATOM      5  C   UNL     1       3.757  -0.309  -1.049  0.00  0.00    +0.250 C 
ATOM      6  O   UNL     1       3.773   0.495   0.120  0.00  0.00    -0.343 OA
ENDROOT
BRANCH   2   7
ATOM      7  O   UNL     1       1.880   3.426  -1.063  0.00  0.00    -0.387 OA
ATOM      8  H   UNL     1       1.232   3.178  -1.747  0.00  0.00    +0.210 HD
ENDBRANCH   2   7
BRANCH   3   9
ATOM      9  O   UNL     1       3.283   2.535  -3.460  0.00  0.00    -0.389 OA
ATOM     10  H   UNL     1       3.445   1.997  -4.255  0.00  0.00    +0.210 HD
ENDBRANCH   3   9
BRANCH   5  11
ATOM     11  O   UNL     1       4.796  -1.267  -0.955  0.00  0.00    -0.367 OA
ATOM     12  H   UNL     1       4.579  -1.781  -0.158  0.00  0.00    +0.212 HD
ENDBRANCH   5  11
BRANCH   1  13
ATOM     13  C   UNL     1       2.717   2.231   1.451  0.00  0.00    +0.190 C 
BRANCH  13  14
ATOM     14  O   UNL     1       2.349   1.349   2.513  0.00  0.00    -0.392 OA
ATOM     15  H   UNL     1       2.453   1.850   3.338  0.00  0.00    +0.210 HD
ENDBRANCH  13  14
ENDBRANCH   1  13
TORSDOF 5
