REMARK  Name = 
REMARK  2 active torsions:
REMARK  status: ('A' for Active; 'I' for Inactive)
REMARK    1  A    between atoms: O_1  and  C_2
REMARK    2  A    between atoms: C_15  and  O_16
REMARK                            x       y       z     vdW  Elec       q    Type
REMARK                         _______ _______ _______ _____ _____    ______ ____
ROOT
ATOM      1  C   UNL     1       2.326   0.210  -0.014  0.00  0.00    +0.128 A 
ATOM      2  C   UNL     1       2.935  -1.059  -0.013  0.00  0.00    +0.075 A 
ATOM      3  C   UNL     1       2.144  -2.322  -0.008  0.00  0.00    +0.202 C 
ATOM      4  C   UNL     1       2.848  -3.635  -0.012  0.00  0.00    +0.075 A 
ATOM      5  C   UNL     1       2.155  -4.860  -0.014  0.00  0.00    +0.128 A 
ATOM      6  C   UNL     1       2.842  -6.079  -0.015  0.00  0.00    +0.046 A 
ATOM      7  C   UNL     1       4.233  -6.094  -0.015  0.00  0.00    +0.004 A 
ATOM      8  C   UNL     1       4.934  -4.891  -0.015  0.00  0.00    +0.012 A 
ATOM      9  C   UNL     1       4.243  -3.667  -0.013  0.00  0.00    +0.037 A 
ATOM     10  C   UNL     1       5.027  -2.419  -0.013  0.00  0.00    +0.195 C 
ATOM     11  O   UNL     1       6.254  -2.461  -0.013  0.00  0.00    -0.287 OA
ATOM     12  O   UNL     1       0.921  -2.281   0.002  0.00  0.00    -0.286 OA
ATOM     13  C   UNL     1       4.330  -1.122  -0.014  0.00  0.00    +0.037 A 
ATOM     14  C   UNL     1       5.101   0.053  -0.014  0.00  0.00    +0.012 A 
ATOM     15  C   UNL     1       4.483   1.300  -0.014  0.00  0.00    +0.004 A 
ATOM     16  C   UNL     1       3.094   1.379  -0.014  0.00  0.00    +0.046 A 
ENDROOT
BRANCH   1  17
ATOM     17  O   UNL     1       0.966   0.340  -0.017  0.00  0.00    -0.506 OA
ATOM     18  H   UNL     1       0.705   1.273  -0.011  0.00  0.00    +0.292 HD
ENDBRANCH   1  17
BRANCH   5  19
ATOM     19  O   UNL     1       0.789  -4.898  -0.015  0.00  0.00    -0.506 OA
ATOM     20  H   UNL     1       0.466  -5.811  -0.010  0.00  0.00    +0.292 HD
ENDBRANCH   5  19
TORSDOF 2
