REMARK  Name = 
REMARK  45 active torsions:
REMARK  status: ('A' for Active; 'I' for Inactive)
REMARK    1  A    between atoms: C_1  and  O_2
REMARK    2  A    between atoms: O_2  and  C_3
REMARK    3  A    between atoms: C_3  and  C_4
REMARK    4  A    between atoms: C_4  and  N_6
REMARK    5  A    between atoms: C_4  and  C_9
REMARK    6  A    between atoms: N_6  and  C_7
REMARK    7  A    between atoms: N_6  and  C_8
REMARK    8  A    between atoms: C_9  and  O_11
REMARK    9  A    between atoms: O_11  and  C_12
REMARK   10  A    between atoms: C_22  and  C_54
REMARK   11  A    between atoms: C_27  and  O_29
REMARK   12  A    between atoms: O_29  and  C_30
REMARK   13  A    between atoms: C_32  and  C_34
REMARK   14  A    between atoms: C_37  and  C_38
REMARK   15  A    between atoms: C_39  and  O_41
REMARK   16  A    between atoms: O_41  and  C_42
REMARK   17  A    between atoms: C_45  and  C_47
REMARK   18  A    between atoms: C_48  and  O_50
REMARK   19  A    between atoms: C_51  and  C_53
REMARK   20  A    between atoms: C_54  and  C_56
REMARK   21  A    between atoms: C_54  and  C_57
REMARK   22  A    between atoms: C_57  and  O_59
REMARK   23  A    between atoms: C_57  and  C_60
REMARK   24  A    between atoms: C_60  and  C_62
REMARK   25  A    between atoms: C_60  and  C_63
REMARK   26  A    between atoms: C_63  and  C_64
REMARK   27  A    between atoms: C_64  and  C_65
REMARK   28  A    between atoms: C_65  and  O_67
REMARK   29  A    between atoms: C_65  and  C_76
REMARK   30  A    between atoms: O_67  and  C_68
REMARK   31  A    between atoms: C_68  and  C_70
REMARK   32  A    between atoms: C_70  and  C_72
REMARK   33  A    between atoms: C_70  and  N_73
REMARK   34  A    between atoms: N_73  and  C_74
REMARK   35  A    between atoms: N_73  and  C_75
REMARK   36  A    between atoms: C_76  and  C_78
REMARK   37  A    between atoms: C_76  and  C_79
REMARK   38  A    between atoms: C_79  and  O_81
REMARK   39  A    between atoms: C_79  and  C_85
REMARK   40  A    between atoms: O_81  and  C_82
REMARK   41  A    between atoms: C_82  and  C_83
REMARK   42  A    between atoms: C_85  and  C_87
REMARK   43  A    between atoms: C_85  and  C_88
REMARK   44  A    between atoms: C_89  and  N_90
REMARK   45  A    between atoms: N_90  and  C_91
REMARK                            x       y       z     vdW  Elec       q    Type
REMARK                         _______ _______ _______ _____ _____    ______ ____
ROOT
ATOM      1  C   UNL     1      -0.007  27.059  -7.464  0.00  0.00    +0.185 C 
ATOM      2  C   UNL     1       0.514  27.666  -9.237  0.00  0.00    +0.056 C 
ATOM      3  C   UNL     1       1.787  26.834  -9.346  0.00  0.00    +0.014 C 
ATOM      4  C   UNL     1       0.190  28.570 -10.940  0.00  0.00    +0.124 C 
ATOM      5  C   UNL     1       1.094  29.225 -12.493  0.00  0.00    +0.015 C 
ATOM      6  C   UNL     1       0.728  30.583 -13.332  0.00  0.00    +0.010 C 
ATOM      7  C   UNL     1       1.216  28.302 -13.919  0.00  0.00    +0.008 C 
ATOM      8  C   UNL     1       2.572  28.515 -14.771  0.00  0.00    +0.036 C 
ATOM      9  C   UNL     1       3.553  27.548 -14.168  0.00  0.00    +0.143 C 
ATOM     10  C   UNL     1       5.034  27.494 -14.393  0.00  0.00    -0.048 C 
ATOM     11  C   UNL     1       5.814  28.773 -14.447  0.00  0.00    +0.041 C 
ATOM     12  C   UNL     1       5.527  26.353 -13.867  0.00  0.00    -0.025 C 
ATOM     13  C   UNL     1       6.306  26.380 -12.589  0.00  0.00    +0.030 C 
ATOM     14  C   UNL     1       5.799  25.402 -11.505  0.00  0.00    -0.008 C 
ATOM     15  C   UNL     1       5.030  24.147 -11.969  0.00  0.00    +0.008 C 
ATOM     16  C   UNL     1       7.027  25.145 -10.661  0.00  0.00    +0.039 C 
ATOM     17  C   UNL     1       6.851  23.981  -9.731  0.00  0.00    +0.141 C 
ATOM     18  C   UNL     1       8.022  23.929  -8.838  0.00  0.00    -0.000 C 
ATOM     19  C   UNL     1       8.124  22.807  -8.116  0.00  0.00    -0.025 C 
ATOM     20  C   UNL     1       9.267  22.630  -7.232  0.00  0.00    +0.072 C 
ATOM     21  C   UNL     1       8.902  21.591  -6.167  0.00  0.00    +0.186 C 
ATOM     22  O   UNL     1       7.846  22.201  -5.273  0.00  0.00    -0.458 OA
ATOM     23  C   UNL     1       6.497  22.070  -5.595  0.00  0.00    +0.332 C 
ATOM     24  O   UNL     1       6.071  21.218  -6.367  0.00  0.00    -0.246 OA
ATOM     25  C   UNL     1       5.560  23.153  -4.995  0.00  0.00    +0.091 C 
ATOM     26  C   UNL     1       4.423  23.568  -5.657  0.00  0.00    +0.007 C 
ATOM     27  C   UNL     1       3.363  24.669  -5.418  0.00  0.00    -0.004 C 
ATOM     28  C   UNL     1       2.370  25.048  -6.335  0.00  0.00    -0.023 C 
ATOM     29  C   UNL     1       1.153  26.204  -6.303  0.00  0.00    +0.072 C 
ENDROOT
BRANCH   4  30
ATOM     30  O   UNL     1      -0.917  29.459 -10.792  0.00  0.00    -0.391 OA
ATOM     31  H   UNL     1      -1.128  29.782 -11.687  0.00  0.00    +0.210 HD
ENDBRANCH   4  30
BRANCH   9  32
ATOM     32  O   UNL     1       3.537  27.907 -12.788  0.00  0.00    -0.376 OA
ATOM     33  C   UNL     1       3.024  26.906 -11.966  0.00  0.00    +0.194 C 
ENDBRANCH   9  32
BRANCH  17  34
ATOM     34  O   UNL     1       6.668  22.718 -10.390  0.00  0.00    -0.376 OA
ATOM     35  C   UNL     1       7.640  22.348 -11.360  0.00  0.00    +0.194 C 
ENDBRANCH  17  34
BRANCH  21  36
ATOM     36  C   UNL     1      10.260  21.108  -5.511  0.00  0.00    +0.056 C 
ATOM     37  C   UNL     1      11.225  20.492  -6.581  0.00  0.00    +0.014 C 
BRANCH  36  38
ATOM     38  C   UNL     1      11.059  22.195  -4.739  0.00  0.00    +0.124 C 
BRANCH  38  39
ATOM     39  C   UNL     1      10.258  22.890  -3.622  0.00  0.00    +0.015 C 
ATOM     40  C   UNL     1       9.750  21.871  -2.596  0.00  0.00    +0.010 C 
BRANCH  39  41
ATOM     41  C   UNL     1      11.042  23.982  -2.873  0.00  0.00    +0.009 C 
BRANCH  41  42
ATOM     42  C   UNL     1      11.425  25.226  -3.669  0.00  0.00    +0.045 C 
BRANCH  42  43
ATOM     43  C   UNL     1      10.323  26.012  -4.449  0.00  0.00    +0.183 C 
BRANCH  43  44
ATOM     44  C   UNL     1      11.099  26.764  -5.651  0.00  0.00    +0.068 C 
ATOM     45  C   UNL     1      12.287  27.606  -5.131  0.00  0.00    +0.015 C 
BRANCH  44  46
ATOM     46  C   UNL     1      10.323  27.631  -6.698  0.00  0.00    +0.189 C 
BRANCH  46  47
ATOM     47  C   UNL     1      11.201  28.114  -7.932  0.00  0.00    +0.051 C 
ATOM     48  C   UNL     1      10.481  29.216  -8.729  0.00  0.00    +0.015 C 
BRANCH  47  49
ATOM     49  C   UNL     1      11.645  27.010  -8.935  0.00  0.00    -0.005 C 
ATOM     50  C   UNL     1      12.900  26.724  -9.293  0.00  0.00    +0.073 C 
BRANCH  50  51
ATOM     51  N   UNL     1      13.275  25.833 -10.230  0.00  0.00    -0.284 N 
ATOM     52  C   UNL     1      14.612  25.534 -10.467  0.00  0.00    +0.332 C 
ATOM     53  O   UNL     1      15.031  24.761 -11.339  0.00  0.00    -0.279 OA
ATOM     54  C   UNL     1      12.338  25.158 -11.157  0.00  0.00    +0.137 C 
ENDBRANCH  50  51
ENDBRANCH  47  49
ENDBRANCH  46  47
BRANCH  46  55
ATOM     55  O   UNL     1       9.163  26.947  -7.251  0.00  0.00    -0.461 OA
BRANCH  55  56
ATOM     56  C   UNL     1       7.992  27.178  -6.609  0.00  0.00    +0.304 C 
ATOM     57  O   UNL     1       7.885  27.662  -5.483  0.00  0.00    -0.251 OA
ATOM     58  C   UNL     1       6.811  26.855  -7.453  0.00  0.00    +0.136 C 
ENDBRANCH  55  56
ENDBRANCH  46  55
ENDBRANCH  44  46
ENDBRANCH  43  44
BRANCH  43  59
ATOM     59  O   UNL     1       9.569  26.879  -3.512  0.00  0.00    -0.460 OA
BRANCH  59  60
ATOM     60  C   UNL     1       8.468  26.341  -2.824  0.00  0.00    +0.324 C 
ATOM     61  O   UNL     1       8.166  25.153  -2.891  0.00  0.00    -0.249 OA
BRANCH  60  62
ATOM     62  C   UNL     1       7.572  27.432  -2.092  0.00  0.00    +0.163 C 
ATOM     63  C   UNL     1       8.388  28.489  -1.344  0.00  0.00    +0.036 C 
BRANCH  62  64
ATOM     64  N   UNL     1       6.400  26.964  -1.267  0.00  0.00    -0.296 NA
ATOM     65  C   UNL     1       6.327  27.136   0.176  0.00  0.00    +0.105 C 
ATOM     66  C   UNL     1       5.598  25.857  -1.748  0.00  0.00    +0.105 C 
ENDBRANCH  62  64
ENDBRANCH  60  62
ENDBRANCH  59  60
ENDBRANCH  43  59
ENDBRANCH  42  43
ENDBRANCH  41  42
ENDBRANCH  39  41
ENDBRANCH  38  39
BRANCH  38  67
ATOM     67  O   UNL     1      11.546  23.171  -5.665  0.00  0.00    -0.391 OA
ATOM     68  H   UNL     1      12.504  23.038  -5.774  0.00  0.00    +0.210 HD
ENDBRANCH  38  67
ENDBRANCH  36  38
ENDBRANCH  21  36
BRANCH   1  69
ATOM     69  O   UNL     1      -1.008  27.726  -6.280  0.00  0.00    -0.460 OA
BRANCH  69  70
ATOM     70  C   UNL     1      -2.283  27.228  -5.879  0.00  0.00    +0.327 C 
ATOM     71  O   UNL     1      -3.015  26.754  -6.761  0.00  0.00    -0.249 OA
BRANCH  70  72
ATOM     72  C   UNL     1      -2.922  27.146  -4.237  0.00  0.00    +0.192 C 
BRANCH  72  73
ATOM     73  N   UNL     1      -1.975  26.957  -3.053  0.00  0.00    -0.294 NA
ATOM     74  C   UNL     1      -1.840  28.061  -2.095  0.00  0.00    +0.105 C 
ATOM     75  C   UNL     1      -2.108  25.682  -2.304  0.00  0.00    +0.105 C 
ENDBRANCH  72  73
BRANCH  72  76
ATOM     76  C   UNL     1      -4.402  27.748  -3.893  0.00  0.00    +0.189 C 
BRANCH  76  78
ATOM     77  C   UNL     1      -5.728  29.401  -2.695  0.00  0.00    +0.194 C 
ATOM     78  O   UNL     1      -4.437  28.995  -3.171  0.00  0.00    -0.381 OA
ENDBRANCH  76  78
ENDBRANCH  72  76
ENDBRANCH  70  72
ENDBRANCH  69  70
ENDBRANCH   1  69
TORSDOF 27
