REMARK  Name = 
REMARK  10 active torsions:
REMARK  status: ('A' for Active; 'I' for Inactive)
REMARK    1  A    between atoms: O_1  and  N_2
REMARK    2  A    between atoms: C_3  and  C_5
REMARK    3  A    between atoms: C_5  and  O_7
REMARK    4  A    between atoms: C_5  and  C_8
REMARK    5  A    between atoms: C_8  and  O_10
REMARK    6  A    between atoms: C_8  and  C_11
REMARK    7  A    between atoms: C_11  and  O_12
REMARK    8  A    between atoms: O_12  and  P_13
REMARK    9  A    between atoms: P_13  and  O_14
REMARK   10  A    between atoms: P_13  and  O_15
REMARK                            x       y       z     vdW  Elec       q    Type
REMARK                         _______ _______ _______ _____ _____    ______ ____
ROOT
ATOM      1  C   UNL     1       5.106  -1.815  -1.701  0.00  0.00    +0.178 C 
ENDROOT
BRANCH   1   2
ATOM      2  O   UNL     1       4.643  -1.554  -3.039  0.00  0.00    -0.386 OA
ATOM      3  H   UNL     1       3.674  -1.612  -3.035  0.00  0.00    +0.210 HD
ENDBRANCH   1   2
BRANCH   1   4
ATOM      4  C   UNL     1       4.546  -0.770  -0.704  0.00  0.00    +0.232 C 
BRANCH   4   7
ATOM      5  N   UNL     1       5.644  -0.215   1.383  0.00  0.00    -0.195 N 
ATOM      6  H   UNL     1       6.244   0.336   0.774  0.00  0.00    +0.182 HD
ATOM      7  C   UNL     1       4.860  -1.174   0.753  0.00  0.00    +0.267 C 
ATOM      8  O   UNL     1       4.433  -2.212   1.257  0.00  0.00    -0.271 OA
BRANCH   5   9
ATOM      9  O   UNL     1       6.239  -0.627   2.599  0.00  0.00    -0.295 OA
ATOM     10  H   UNL     1       6.018   0.110   3.197  0.00  0.00    +0.241 HD
ENDBRANCH   5   9
ENDBRANCH   4   7
BRANCH   4  11
ATOM     11  O   UNL     1       5.019   0.539  -1.050  0.00  0.00    -0.380 OA
ATOM     12  H   UNL     1       4.386   1.177  -0.674  0.00  0.00    +0.211 HD
ENDBRANCH   4  11
ENDBRANCH   1   4
BRANCH   1  13
ATOM     13  C   UNL     1       6.635  -1.825  -1.747  0.00  0.00    +0.206 C 
BRANCH  13  14
ATOM     14  O   UNL     1       7.157  -2.263  -0.509  0.00  0.00    -0.284 OA
BRANCH  14  15
ATOM     15  P   UNL     1       8.887  -2.282  -0.506  0.00  0.00    +0.472 P 
ATOM     16  O   UNL     1      10.435  -2.299  -0.503  0.00  0.00    -0.228 OA
BRANCH  15  17
ATOM     17  O   UNL     1       8.729  -3.481   0.597  0.00  0.00    -0.303 OA
ATOM     18  H   UNL     1       8.497  -4.330   0.179  0.00  0.00    +0.222 HD
ENDBRANCH  15  17
BRANCH  15  19
ATOM     19  O   UNL     1       8.722  -1.087   0.601  0.00  0.00    -0.303 OA
ATOM     20  H   UNL     1       8.533  -1.540   1.449  0.00  0.00    +0.222 HD
ENDBRANCH  15  19
ENDBRANCH  14  15
ENDBRANCH  13  14
ENDBRANCH   1  13
TORSDOF 10
