REMARK  Name = 
REMARK  16 active torsions:
REMARK  status: ('A' for Active; 'I' for Inactive)
REMARK    1  A    between atoms: C_2  and  C_3
REMARK    2  A    between atoms: C_2  and  C_7
REMARK    3  A    between atoms: C_2  and  C_12
REMARK    4  A    between atoms: C_3  and  C_4
REMARK    5  A    between atoms: C_4  and  C_5
REMARK    6  A    between atoms: C_5  and  C_6
REMARK    7  A    between atoms: C_7  and  N_8
REMARK    8  A    between atoms: N_8  and  O_9
REMARK    9  A    between atoms: N_14  and  C_15
REMARK   10  A    between atoms: C_15  and  C_17
REMARK   11  A    between atoms: C_15  and  C_22
REMARK   12  A    between atoms: N_19  and  C_20
REMARK   13  A    between atoms: N_19  and  C_21
REMARK   14  A    between atoms: C_22  and  C_23
REMARK   15  A    between atoms: C_22  and  C_24
REMARK   16  A    between atoms: C_22  and  C_25
REMARK                            x       y       z     vdW  Elec       q    Type
REMARK                         _______ _______ _______ _____ _____    ______ ____
ROOT
ATOM      1  C   UNL     1       3.270  -1.727   3.048  0.00  0.00    +0.218 C 
ATOM      2  N   UNL     1       3.953  -2.843   2.623  0.00  0.00    -0.303 N 
ATOM      3  H   UNL     1       3.982  -3.676   3.200  0.00  0.00    +0.149 HD
ATOM      4  O   UNL     1       3.004  -0.792   2.290  0.00  0.00    -0.275 OA
ENDROOT
BRANCH   1   5
ATOM      5  C   UNL     1       2.876  -1.704   4.526  0.00  0.00    +0.095 C 
BRANCH   5   6
ATOM      6  C   UNL     1       2.977  -0.229   4.982  0.00  0.00    +0.152 C 
BRANCH   6   7
ATOM      7  N   UNL     1       2.755  -0.020   6.413  0.00  0.00    -0.186 N 
ATOM      8  C   UNL     1       3.760  -0.295   7.323  0.00  0.00    +0.352 C 
ATOM      9  O   UNL     1       4.718  -1.040   7.135  0.00  0.00    -0.277 OA
BRANCH   7  10
ATOM     10  O   UNL     1       2.160   1.243   6.671  0.00  0.00    -0.293 OA
ATOM     11  H   UNL     1       1.243   0.990   6.883  0.00  0.00    +0.242 HD
ENDBRANCH   7  10
ENDBRANCH   6   7
ENDBRANCH   5   6
BRANCH   5  12
ATOM     12  C   UNL     1       1.450  -2.243   4.757  0.00  0.00    +0.014 C 
BRANCH  12  13
ATOM     13  C   UNL     1       1.253  -3.704   4.344  0.00  0.00    +0.001 C 
BRANCH  13  14
ATOM     14  C   UNL     1      -0.170  -4.183   4.642  0.00  0.00    -0.003 C 
ATOM     15  C   UNL     1      -0.376  -5.623   4.196  0.00  0.00    +0.004 C 
ENDBRANCH  13  14
ENDBRANCH  12  13
ENDBRANCH   5  12
ENDBRANCH   1   5
BRANCH   2  16
ATOM     16  C   UNL     1       4.522  -2.955   1.261  0.00  0.00    +0.164 C 
BRANCH  16  17
ATOM     17  C   UNL     1       3.952  -4.238   0.581  0.00  0.00    +0.236 C 
ATOM     18  N   UNL     1       3.868  -4.287  -0.812  0.00  0.00    -0.306 N 
ATOM     19  C   UNL     1       3.716  -3.125  -1.678  0.00  0.00    +0.131 C 
ATOM     20  C   UNL     1       3.582  -5.564  -1.452  0.00  0.00    +0.131 C 
ATOM     21  O   UNL     1       3.684  -5.226   1.277  0.00  0.00    -0.274 OA
ENDBRANCH  16  17
BRANCH  16  22
ATOM     22  C   UNL     1       6.094  -2.946   1.302  0.00  0.00    -0.011 C 
ATOM     23  C   UNL     1       6.655  -4.151   2.084  0.00  0.00    +0.013 C 
ATOM     24  C   UNL     1       6.601  -1.654   1.982  0.00  0.00    +0.013 C 
ATOM     25  C   UNL     1       6.703  -2.970  -0.116  0.00  0.00    +0.013 C 
ENDBRANCH  16  22
ENDBRANCH   2  16
TORSDOF 10
