REMARK  Name = 
REMARK  3 active torsions:
REMARK  status: ('A' for Active; 'I' for Inactive)
REMARK    1  A    between atoms: O_1  and  C_2
REMARK    2  A    between atoms: C_2  and  C_4
REMARK    3  A    between atoms: C_2  and  C_6
REMARK                            x       y       z     vdW  Elec       q    Type
REMARK                         _______ _______ _______ _____ _____    ______ ____
ROOT
ATOM      1  C   UNL     1       2.829   0.976  -1.162  0.00  0.00    -0.005 A 
ATOM      2  C   UNL     1       3.188   0.549  -2.453  0.00  0.00    +0.007 A 
ATOM      3  C   UNL     1       3.467   1.479  -3.457  0.00  0.00    +0.000 A 
ATOM      4  C   UNL     1       3.394   2.843  -3.186  0.00  0.00    +0.000 A 
ATOM      5  C   UNL     1       3.046   3.281  -1.911  0.00  0.00    +0.000 A 
ATOM      6  C   UNL     1       2.770   2.355  -0.904  0.00  0.00    +0.007 A 
ENDROOT
BRANCH   1   7
ATOM      7  C   UNL     1       2.498  -0.014  -0.061  0.00  0.00    +0.246 C 
BRANCH   7   8
ATOM      8  O   UNL     1       3.665  -0.769   0.284  0.00  0.00    -0.373 OA
ATOM      9  H   UNL     1       4.004  -1.170  -0.534  0.00  0.00    +0.212 HD
ENDBRANCH   7   8
BRANCH   7  10
ATOM     10  C   UNL     1       1.352  -0.933  -0.451  0.00  0.00    +0.099 C 
ATOM     11  N   UNL     1       0.402  -1.696  -0.774  0.00  0.00    -0.193 NA
ENDBRANCH   7  10
ENDBRANCH   1   7
TORSDOF 3
