REMARK  Name = 
REMARK  26 active torsions:
REMARK  status: ('A' for Active; 'I' for Inactive)
REMARK    1  A    between atoms: C_1  and  C_2
REMARK    2  A    between atoms: C_2  and  N_4
REMARK    3  A    between atoms: C_2  and  B_42
REMARK    4  A    between atoms: C_5  and  C_7
REMARK    5  A    between atoms: C_7  and  C_9
REMARK    6  A    between atoms: C_7  and  N_24
REMARK    7  A    between atoms: C_9  and  C_10
REMARK    8  A    between atoms: C_10  and  C_11
REMARK    9  A    between atoms: C_11  and  C_12
REMARK   10  A    between atoms: C_12  and  N_13
REMARK   11  A    between atoms: C_14  and  O_16
REMARK   12  A    between atoms: O_16  and  C_17
REMARK   13  A    between atoms: C_17  and  C_18
REMARK   14  A    between atoms: C_25  and  C_27
REMARK   15  A    between atoms: C_27  and  C_28
REMARK   16  A    between atoms: C_28  and  C_29
REMARK   17  A    between atoms: C_29  and  N_31
REMARK   18  A    between atoms: C_29  and  C_39
REMARK   19  A    between atoms: C_32  and  O_34
REMARK   20  A    between atoms: O_34  and  C_35
REMARK   21  A    between atoms: C_35  and  C_36
REMARK   22  A    between atoms: C_35  and  C_37
REMARK   23  A    between atoms: C_35  and  C_38
REMARK   24  A    between atoms: C_39  and  O_40
REMARK   25  A    between atoms: B_42  and  O_43
REMARK   26  A    between atoms: B_42  and  O_44
REMARK                            x       y       z     vdW  Elec       q    Type
REMARK                         _______ _______ _______ _____ _____    ______ ____
ROOT
ATOM      1  C   UNK A   1       7.894  -0.550  11.273  0.00  0.00    +0.000 C 
ENDROOT
BRANCH   1   4
ATOM      2  N   UNK A   1       7.025   1.334  12.684  0.00  0.00    +0.000 N 
ATOM      3  H   UNK A   1       6.700   1.790  11.818  0.00  0.00    +0.000 HD
ATOM      4  C   UNK A   1       7.670   0.133  12.615  0.00  0.00    +0.000 C 
ATOM      5  O   UNK A   1       8.052  -0.427  13.632  0.00  0.00    +0.000 OA
BRANCH   2   7
ATOM      6  C   UNK A   1       5.215   2.223  14.051  0.00  0.00    +0.000 C 
ATOM      7  C   UNK A   1       6.728   2.036  13.915  0.00  0.00    +0.000 C 
BRANCH   7   8
ATOM      8  B   UNK A   1       7.493   3.455  13.897  0.00  0.00    +0.000 B 
BRANCH   8   9
ATOM      9  O   UNK A   1       8.449   3.779  14.957  0.00  0.00    +0.000 OA
ATOM     10  H   UNK A   1       8.876   2.921  15.210  0.00  0.00    +0.000 HD
ENDBRANCH   8   9
BRANCH   8  11
ATOM     11  O   UNK A   1       7.297   4.412  12.800  0.00  0.00    +0.000 OA
ATOM     12  H   UNK A   1       6.432   4.193  12.370  0.00  0.00    +0.000 HD
ENDBRANCH   8  11
ENDBRANCH   7   8
ENDBRANCH   2   7
ENDBRANCH   1   4
BRANCH   1  13
ATOM     13  N   UNK A   1       6.843  -1.498  10.957  0.00  0.00    +0.000 N 
ATOM     14  H   UNK A   1       7.143  -2.404  10.564  0.00  0.00    +0.000 HD
ATOM     15  C   UNK A   1       5.510  -1.260  11.099  0.00  0.00    +0.000 C 
ATOM     16  O   UNK A   1       5.096  -0.216  11.577  0.00  0.00    +0.000 OA
BRANCH  15  17
ATOM     17  C   UNK A   1       4.518  -2.273  10.645  0.00  0.00    +0.000 C 
BRANCH  17  18
ATOM     18  C   UNK A   1       4.704  -3.647  11.315  0.00  0.00    +0.000 C 
BRANCH  18  19
ATOM     19  C   UNK A   1       3.636  -4.657  10.850  0.00  0.00    +0.000 C 
BRANCH  19  20
ATOM     20  N   UNK A   1       3.715  -4.818   9.401  0.00  0.00    +0.000 N 
ATOM     21  H   UNK A   1       3.520  -4.005   8.798  0.00  0.00    +0.000 HD
ATOM     22  C   UNK A   0       4.033  -5.981   8.786  0.00  0.00    +0.000 C 
ATOM     23  O   UNK A   0       4.091  -6.005   7.565  0.00  0.00    +0.000 OA
BRANCH  22  24
ATOM     24  O   UNK A   0       4.276  -7.103   9.518  0.00  0.00    +0.000 OA
BRANCH  24  25
ATOM     25  C   UNK A   0       4.572  -8.376   9.044  0.00  0.00    +0.000 C 
ATOM     26  C   UNK A   0       3.421  -8.896   8.156  0.00  0.00    +0.000 C 
ATOM     27  C   UNK A   0       4.709  -9.300  10.261  0.00  0.00    +0.000 C 
ATOM     28  C   UNK A   0       5.903  -8.369   8.265  0.00  0.00    +0.000 C 
ENDBRANCH  24  25
ENDBRANCH  22  24
ENDBRANCH  19  20
BRANCH  19  29
ATOM     29  C   UNK A   1       2.249  -4.200  11.260  0.00  0.00    +0.000 C 
ATOM     30  O   UNK A   1       1.391  -3.992  10.416  0.00  0.00    +0.000 OA
BRANCH  29  31
ATOM     31  O   UNK A   1       1.947  -4.002  12.561  0.00  0.00    +0.000 OA
ATOM     32  H   UNK A   1       2.591  -4.153  13.267  0.00  0.00    +0.000 HD
ENDBRANCH  29  31
ENDBRANCH  19  29
ENDBRANCH  18  19
ENDBRANCH  17  18
ENDBRANCH  15  17
ENDBRANCH   1  13
BRANCH   1  33
ATOM     33  C   UNK A   1       8.115   0.414  10.084  0.00  0.00    +0.000 C 
BRANCH  33  34
ATOM     34  C   UNK A   1       9.320   1.360  10.291  0.00  0.00    +0.000 C 
BRANCH  34  35
ATOM     35  C   UNK A   1      10.660   0.635  10.526  0.00  0.00    +0.000 C 
BRANCH  35  36
ATOM     36  C   UNK A   1      11.041  -0.261   9.340  0.00  0.00    +0.000 C 
BRANCH  36  37
ATOM     37  N   UNK A   1      12.277  -0.970   9.584  0.00  0.00    +0.000 N 
ATOM     38  H   UNK A   1      12.771  -0.856  10.484  0.00  0.00    +0.000 HD
ATOM     39  C   UNK A   1      12.790  -1.806   8.647  0.00  0.00    +0.000 C 
ATOM     40  O   UNK A   1      13.826  -2.410   8.884  0.00  0.00    +0.000 OA
BRANCH  39  41
ATOM     41  O   UNK A   1      12.151  -1.963   7.453  0.00  0.00    +0.000 OA
BRANCH  41  42
ATOM     42  C   UNK A   1      12.583  -2.760   6.407  0.00  0.00    +0.000 C 
BRANCH  42  43
ATOM     43  C   UNK A   1      11.538  -3.787   6.057  0.00  0.00    +0.000 A 
ATOM     44  C   UNK A   1      11.093  -4.702   7.026  0.00  0.00    +0.000 A 
ATOM     45  C   UNK A   1      10.138  -5.670   6.694  0.00  0.00    +0.000 A 
ATOM     46  C   UNK A   1       9.627  -5.733   5.393  0.00  0.00    +0.000 A 
ATOM     47  C   UNK A   1      10.063  -4.821   4.425  0.00  0.00    +0.000 A 
ATOM     48  C   UNK A   1      11.013  -3.853   4.754  0.00  0.00    +0.000 A 
ENDBRANCH  42  43
ENDBRANCH  41  42
ENDBRANCH  39  41
ENDBRANCH  36  37
ENDBRANCH  35  36
ENDBRANCH  34  35
ENDBRANCH  33  34
ENDBRANCH   1  33
TORSDOF 22
