REMARK  Name = 
REMARK  5 active torsions:
REMARK  status: ('A' for Active; 'I' for Inactive)
REMARK    1  A    between atoms: N_1  and  CA_2
REMARK    2  A    between atoms: CA_2  and  C_4
REMARK    3  A    between atoms: CA_2  and  C_16
REMARK    4  A    between atoms: C_4  and  C_5
REMARK    5  A    between atoms: C_16  and  O_17
REMARK                            x       y       z     vdW  Elec       q    Type
REMARK                         _______ _______ _______ _____ _____    ______ ____
ROOT
ATOM      1  C   UNL     1       2.504  -0.660  -2.298  0.00  0.00    -0.034 C 
ATOM      2  C   UNL     1       1.147  -0.613  -2.796  0.00  0.00    +0.085 A 
ATOM      3  C   UNL     1       0.303   0.578  -3.008  0.00  0.00    +0.288 A 
ATOM      4  N   UNL     1      -0.857   0.153  -3.599  0.00  0.00    -0.184 N 
ATOM      5  H   UNL     1      -1.703   0.703  -3.625  0.00  0.00    +0.211 HD
ATOM      6  O   UNL     1      -0.931  -1.256  -3.573  0.00  0.00    -0.381 OA
ATOM      7  O   UNL     1       0.559   1.724  -2.685  0.00  0.00    -0.264 OA
ATOM      8  C   UNL     1       0.331  -1.622  -3.118  0.00  0.00    +0.146 A 
ATOM      9  C   UNL     1       0.591  -3.097  -3.082  0.00  0.00    +0.078 C 
ATOM     10  C   UNL     1       2.018  -3.621  -3.315  0.00  0.00    +0.012 C 
ATOM     11  C   UNL     1       3.054  -2.614  -3.808  0.00  0.00    +0.028 C 
ATOM     12  C   UNL     1       3.376  -1.573  -2.774  0.00  0.00    -0.022 C 
ENDROOT
BRANCH   1  13
ATOM     13  C   UNL     1       2.954   0.351  -1.259  0.00  0.00    +0.065 C 
BRANCH  13  14
ATOM     14  CA  UNL     1       2.682  -0.084   0.193  0.00  0.00    +0.165 C 
BRANCH  14  15
ATOM     15  N   UNL     1       1.232  -0.328   0.488  0.00  0.00    -0.318 NA
ATOM     16  H1  UNL     1       0.685   0.332  -0.080  0.00  0.00    +0.119 HD
ATOM     17  H2  UNL     1       0.997  -1.246   0.096  0.00  0.00    +0.119 HD
ENDBRANCH  14  15
BRANCH  14  18
ATOM     18  C   UNL     1       3.191   1.004   1.153  0.00  0.00    +0.322 C 
ATOM     19  OXT UNL     1       4.300   1.512   1.122  0.00  0.00    -0.249 OA
BRANCH  18  20
ATOM     20  O   UNL     1       2.248   1.323   2.080  0.00  0.00    -0.480 OA
ATOM     21  H   UNL     1       1.474   0.738   1.880  0.00  0.00    +0.295 HD
ENDBRANCH  18  20
ENDBRANCH  14  18
ENDBRANCH  13  14
ENDBRANCH   1  13
TORSDOF 5
