REMARK  Name = 
REMARK  13 active torsions:
REMARK  status: ('A' for Active; 'I' for Inactive)
REMARK    1  A    between atoms: C_1  and  O_2
REMARK    2  A    between atoms: O_2  and  C_3
REMARK    3  A    between atoms: C_4  and  O_5
REMARK    4  A    between atoms: O_5  and  C_6
REMARK    5  A    between atoms: C_8  and  C_11
REMARK    6  A    between atoms: N_13  and  C_14
REMARK    7  A    between atoms: C_14  and  C_15
REMARK    8  A    between atoms: C_18  and  O_19
REMARK    9  A    between atoms: O_19  and  C_20
REMARK   10  A    between atoms: C_20  and  C_21
REMARK   11  A    between atoms: C_21  and  N_22
REMARK   12  A    between atoms: N_22  and  C_23
REMARK   13  A    between atoms: N_22  and  C_24
REMARK                            x       y       z     vdW  Elec       q    Type
REMARK                         _______ _______ _______ _____ _____    ______ ____
ROOT
ATOM      1  C   UNL     1       5.171  -5.077  -0.590  0.00  0.00    +0.244 C 
ATOM      2  N   UNL     1       6.474  -5.042  -1.029  0.00  0.00    -0.307 N 
ATOM      3  H   UNL     1       6.896  -4.159  -1.285  0.00  0.00    +0.149 HD
ATOM      4  O   UNL     1       4.518  -6.110  -0.493  0.00  0.00    -0.270 OA
ENDROOT
BRANCH   1   8
ATOM      5  C   UNL     1       3.314  -1.289   0.198  0.00  0.00    +0.162 A 
ATOM      6  C   UNL     1       2.562  -2.376  -0.261  0.00  0.00    +0.050 A 
ATOM      7  C   UNL     1       3.179  -3.608  -0.500  0.00  0.00    +0.017 A 
ATOM      8  C   UNL     1       4.550  -3.760  -0.282  0.00  0.00    +0.040 A 
ATOM      9  C   UNL     1       5.303  -2.690   0.215  0.00  0.00    +0.062 A 
ATOM     10  C   UNL     1       4.694  -1.451   0.448  0.00  0.00    +0.162 A 
BRANCH   5  12
ATOM     11  C   UNL     1       1.419   0.169   0.172  0.00  0.00    +0.277 C 
ATOM     12  O   UNL     1       2.801  -0.036   0.428  0.00  0.00    -0.491 OA
ENDBRANCH   5  12
BRANCH  10  13
ATOM     13  O   UNL     1       5.358  -0.338   0.902  0.00  0.00    -0.491 OA
ATOM     14  C   UNL     1       6.745  -0.459   1.186  0.00  0.00    +0.277 C 
ENDBRANCH  10  13
ENDBRANCH   1   8
BRANCH   2  15
ATOM     15  C   UNL     1       7.134  -6.249  -1.472  0.00  0.00    +0.139 C 
BRANCH  15  16
ATOM     16  C   UNL     1       8.545  -5.951  -1.891  0.00  0.00    -0.030 A 
ATOM     17  C   UNL     1       8.858  -5.586  -3.209  0.00  0.00    +0.009 A 
ATOM     18  C   UNL     1      10.173  -5.249  -3.561  0.00  0.00    +0.046 A 
ATOM     19  C   UNL     1      11.187  -5.258  -2.603  0.00  0.00    +0.121 A 
ATOM     20  C   UNL     1      10.871  -5.631  -1.292  0.00  0.00    +0.046 A 
ATOM     21  C   UNL     1       9.566  -5.968  -0.937  0.00  0.00    +0.009 A 
BRANCH  19  22
ATOM     22  O   UNL     1      12.444  -4.887  -3.032  0.00  0.00    -0.491 OA
BRANCH  22  23
ATOM     23  C   UNL     1      13.437  -4.926  -2.000  0.00  0.00    +0.244 C 
BRANCH  23  24
ATOM     24  C   UNL     1      14.829  -4.517  -2.495  0.00  0.00    +0.124 C 
BRANCH  24  25
ATOM     25  N   UNL     1      15.824  -4.501  -1.397  0.00  0.00    -0.305 NA
ATOM     26  C   UNL     1      17.111  -3.999  -1.877  0.00  0.00    +0.104 C 
ATOM     27  C   UNL     1      16.006  -5.821  -0.784  0.00  0.00    +0.104 C 
ENDBRANCH  24  25
ENDBRANCH  23  24
ENDBRANCH  22  23
ENDBRANCH  19  22
ENDBRANCH  15  16
ENDBRANCH   2  15
TORSDOF 9
