REMARK  Name = 
REMARK  9 active torsions:
REMARK  status: ('A' for Active; 'I' for Inactive)
REMARK    1  A    between atoms: C_2  and  O_3
REMARK    2  A    between atoms: C_2  and  C_4
REMARK    3  A    between atoms: C_2  and  C_10
REMARK    4  A    between atoms: C_4  and  O_5
REMARK    5  A    between atoms: O_5  and  P_6
REMARK    6  A    between atoms: P_6  and  O_7
REMARK    7  A    between atoms: P_6  and  O_8
REMARK    8  A    between atoms: C_10  and  O_12
REMARK    9  A    between atoms: C_10  and  C_13
REMARK                            x       y       z     vdW  Elec       q    Type
REMARK                         _______ _______ _______ _____ _____    ______ ____
ROOT
ATOM      1  C   UNL     1       2.678   0.328   1.446  0.00  0.00    +0.177 C 
ENDROOT
BRANCH   1   2
ATOM      2  C   UNL     1       4.183   0.330   1.506  0.00  0.00    +0.008 A 
ATOM      3  C   UNL     1       5.057   1.462   1.370  0.00  0.00    +0.005 A 
ATOM      4  C   UNL     1       4.863   2.834   1.111  0.00  0.00    +0.010 A 
ATOM      5  C   UNL     1       5.968   3.696   1.070  0.00  0.00    +0.001 A 
ATOM      6  C   UNL     1       7.256   3.210   1.285  0.00  0.00    +0.002 A 
ATOM      7  C   UNL     1       7.476   1.855   1.537  0.00  0.00    +0.026 A 
ATOM      8  C   UNL     1       6.364   1.008   1.571  0.00  0.00    +0.047 A 
ATOM      9  N   UNL     1       6.290  -0.347   1.794  0.00  0.00    -0.360 N 
ATOM     10  H   UNL     1       7.087  -0.940   1.983  0.00  0.00    +0.165 HD
ATOM     11  C   UNL     1       4.992  -0.761   1.751  0.00  0.00    +0.090 A 
ENDBRANCH   1   2
BRANCH   1  12
ATOM     12  O   UNL     1       2.180  -0.662   2.362  0.00  0.00    -0.384 OA
ATOM     13  H   UNL     1       1.231  -0.524   2.494  0.00  0.00    +0.210 HD
ENDBRANCH   1  12
BRANCH   1  14
ATOM     14  C   UNL     1       2.129   0.061   0.019  0.00  0.00    +0.174 C 
BRANCH  14  15
ATOM     15  O   UNL     1       2.587   1.045  -0.923  0.00  0.00    -0.387 OA
ATOM     16  H   UNL     1       2.280   0.732  -1.795  0.00  0.00    +0.210 HD
ENDBRANCH  14  15
BRANCH  14  17
ATOM     17  C   UNL     1       0.602   0.130   0.002  0.00  0.00    +0.206 C 
BRANCH  17  18
ATOM     18  O   UNL     1       0.102  -0.233  -1.292  0.00  0.00    -0.284 OA
BRANCH  18  19
ATOM     19  P   UNL     1      -1.626  -0.139  -1.320  0.00  0.00    +0.472 P 
ATOM     20  O   UNL     1      -3.171  -0.056  -1.344  0.00  0.00    -0.228 OA
BRANCH  19  21
ATOM     21  O   UNL     1      -1.577  -1.638  -0.660  0.00  0.00    -0.303 OA
ATOM     22  H   UNL     1      -1.598  -2.258  -1.413  0.00  0.00    +0.222 HD
ENDBRANCH  19  21
BRANCH  19  23
ATOM     23  O   UNL     1      -1.495  -0.703  -2.853  0.00  0.00    -0.303 OA
ATOM     24  H   UNL     1      -1.476   0.026  -3.498  0.00  0.00    +0.222 HD
ENDBRANCH  19  23
ENDBRANCH  18  19
ENDBRANCH  17  18
ENDBRANCH  14  17
ENDBRANCH   1  14
TORSDOF 9
