REMARK  Name = 
REMARK  9 active torsions:
REMARK  status: ('A' for Active; 'I' for Inactive)
REMARK    1  A    between atoms: O_1  and  C_2
REMARK    2  A    between atoms: C_2  and  C_3
REMARK    3  A    between atoms: C_3  and  O_4
REMARK    4  A    between atoms: O_4  and  C_5
REMARK    5  A    between atoms: C_8  and  C_11
REMARK    6  A    between atoms: C_11  and  C_22
REMARK    7  A    between atoms: C_12  and  C_13
REMARK    8  A    between atoms: C_12  and  C_16
REMARK    9  A    between atoms: C_13  and  C_14
REMARK                            x       y       z     vdW  Elec       q    Type
REMARK                         _______ _______ _______ _____ _____    ______ ____
ROOT
ATOM      1  C   UNL     1       6.530   5.923  -2.915  0.00  0.00    -0.007 C 
ATOM      2  C   UNL     1       5.777   7.047  -2.758  0.00  0.00    -0.031 C 
ENDROOT
BRANCH   1   6
ATOM      3  C   UNL     1       6.566   2.172  -0.834  0.00  0.00    +0.121 A 
ATOM      4  C   UNL     1       7.312   3.250  -0.347  0.00  0.00    +0.046 A 
ATOM      5  C   UNL     1       7.225   4.515  -0.949  0.00  0.00    +0.012 A 
ATOM      6  C   UNL     1       6.386   4.715  -2.051  0.00  0.00    -0.017 A 
ATOM      7  C   UNL     1       5.567   3.660  -2.470  0.00  0.00    +0.012 A 
ATOM      8  C   UNL     1       5.658   2.399  -1.869  0.00  0.00    +0.046 A 
BRANCH   3   9
ATOM      9  O   UNL     1       6.822   0.954  -0.253  0.00  0.00    -0.490 OA
BRANCH   9  10
ATOM     10  C   UNL     1       6.175  -0.174  -0.852  0.00  0.00    +0.256 C 
BRANCH  10  11
ATOM     11  C   UNL     1       6.660  -1.471  -0.211  0.00  0.00    +0.196 C 
BRANCH  11  12
ATOM     12  O   UNL     1       5.928  -2.571  -0.748  0.00  0.00    -0.392 OA
ATOM     13  H   UNL     1       6.246  -3.374  -0.299  0.00  0.00    +0.210 HD
ENDBRANCH  11  12
ENDBRANCH  10  11
ENDBRANCH   9  10
ENDBRANCH   3   9
ENDBRANCH   1   6
BRANCH   1  14
ATOM     14  C   UNL     1       7.460   5.827  -4.084  0.00  0.00    -0.017 A 
ATOM     15  C   UNL     1       7.033   5.170  -5.251  0.00  0.00    +0.008 A 
ATOM     16  C   UNL     1       7.886   5.034  -6.350  0.00  0.00    +0.001 A 
ATOM     17  C   UNL     1       9.172   5.563  -6.300  0.00  0.00    +0.000 A 
ATOM     18  C   UNL     1       9.610   6.214  -5.147  0.00  0.00    +0.001 A 
ATOM     19  C   UNL     1       8.761   6.340  -4.038  0.00  0.00    +0.008 A 
ENDBRANCH   1  14
BRANCH   2  20
ATOM     20  C   UNL     1       4.665   7.150  -1.778  0.00  0.00    -0.021 A 
ATOM     21  C   UNL     1       3.370   6.787  -2.176  0.00  0.00    +0.008 A 
ATOM     22  C   UNL     1       2.274   7.029  -1.344  0.00  0.00    +0.001 A 
ATOM     23  C   UNL     1       2.460   7.643  -0.108  0.00  0.00    +0.000 A 
ATOM     24  C   UNL     1       3.746   7.989   0.308  0.00  0.00    +0.001 A 
ATOM     25  C   UNL     1       4.847   7.732  -0.517  0.00  0.00    +0.008 A 
ENDBRANCH   2  20
BRANCH   2  26
ATOM     26  C   UNL     1       5.865   8.285  -3.661  0.00  0.00    +0.052 C 
BRANCH  26  27
ATOM     27  C   UNL     1       6.147   9.626  -2.974  0.00  0.00    +0.113 C 
ATOM     28 CL   UNL     1       7.718   9.653  -2.136  0.00  0.00    -0.125 Cl
ENDBRANCH  26  27
ENDBRANCH   2  26
TORSDOF 9
