REMARK  Name = 
REMARK  49 active torsions:
REMARK  status: ('A' for Active; 'I' for Inactive)
REMARK    1  A    between atoms: C_1  and  C_2
REMARK    2  A    between atoms: C_2  and  C_3
REMARK    3  A    between atoms: C_3  and  C_4
REMARK    4  A    between atoms: C_4  and  C_5
REMARK    5  A    between atoms: C_5  and  C_6
REMARK    6  A    between atoms: C_6  and  C_7
REMARK    7  A    between atoms: C_7  and  C_8
REMARK    8  A    between atoms: C_8  and  C_9
REMARK    9  A    between atoms: C_9  and  C_10
REMARK   10  A    between atoms: C_10  and  C_11
REMARK   11  A    between atoms: C_11  and  C_12
REMARK   12  A    between atoms: C_12  and  C_13
REMARK   13  A    between atoms: C_13  and  C_14
REMARK   14  A    between atoms: C_15  and  C_16
REMARK   15  A    between atoms: C_16  and  O_18
REMARK   16  A    between atoms: C_16  and  C_19
REMARK   17  A    between atoms: C_19  and  C_21
REMARK   18  A    between atoms: C_19  and  N_43
REMARK   19  A    between atoms: C_21  and  O_22
REMARK   20  A    between atoms: O_22  and  C_23
REMARK   21  A    between atoms: C_26  and  C_28
REMARK   22  A    between atoms: C_28  and  O_29
REMARK   23  A    between atoms: C_30  and  O_32
REMARK   24  A    between atoms: C_33  and  O_35
REMARK   25  A    between atoms: O_35  and  S_36
REMARK   26  A    between atoms: S_36  and  O_37
REMARK   27  A    between atoms: C_40  and  O_42
REMARK   28  A    between atoms: C_44  and  C_46
REMARK   29  A    between atoms: C_46  and  C_47
REMARK   30  A    between atoms: C_47  and  C_48
REMARK   31  A    between atoms: C_48  and  C_49
REMARK   32  A    between atoms: C_49  and  C_50
REMARK   33  A    between atoms: C_50  and  C_51
REMARK   34  A    between atoms: C_51  and  C_52
REMARK   35  A    between atoms: C_52  and  C_53
REMARK   36  A    between atoms: C_53  and  C_54
REMARK   37  A    between atoms: C_54  and  C_55
REMARK   38  A    between atoms: C_55  and  C_56
REMARK   39  A    between atoms: C_56  and  C_57
REMARK   40  A    between atoms: C_57  and  C_58
REMARK   41  A    between atoms: C_58  and  C_59
REMARK   42  A    between atoms: C_60  and  C_61
REMARK   43  A    between atoms: C_61  and  C_62
REMARK   44  A    between atoms: C_62  and  C_63
REMARK   45  A    between atoms: C_63  and  C_64
REMARK   46  A    between atoms: C_64  and  C_65
REMARK   47  A    between atoms: C_65  and  C_66
REMARK   48  A    between atoms: C_66  and  C_67
REMARK   49  A    between atoms: C_67  and  C_68
REMARK                            x       y       z     vdW  Elec       q    Type
REMARK                         _______ _______ _______ _____ _____    ______ ____
ROOT
ATOM      1  C   UNL     1      15.618  13.176  -2.814  0.00  0.00    +0.131 C 
ENDROOT
BRANCH   1   2
ATOM      2  N   UNL     1      15.795  14.616  -2.547  0.00  0.00    -0.307 N 
ATOM      3  H   UNL     1      16.702  15.032  -2.713  0.00  0.00    +0.149 HD
ATOM      4  C   UNL     1      14.750  15.397  -2.124  0.00  0.00    +0.213 C 
ATOM      5  O   UNL     1      13.607  14.977  -1.990  0.00  0.00    -0.276 OA
BRANCH   4   6
ATOM      6  C   UNL     1      15.146  16.834  -1.878  0.00  0.00    +0.096 C 
BRANCH   6   7
ATOM      7  C   UNL     1      13.964  17.656  -1.371  0.00  0.00    +0.009 C 
BRANCH   7   8
ATOM      8  C   UNL     1      14.297  19.124  -1.132  0.00  0.00    +0.000 C 
BRANCH   8   9
ATOM      9  C   UNL     1      14.729  19.831  -2.410  0.00  0.00    +0.000 C 
BRANCH   9  10
ATOM     10  C   UNL     1      14.999  21.301  -2.145  0.00  0.00    +0.000 C 
BRANCH  10  11
ATOM     11  C   UNL     1      15.465  21.982  -3.422  0.00  0.00    +0.000 C 
BRANCH  11  12
ATOM     12  C   UNL     1      15.758  23.443  -3.137  0.00  0.00    -0.000 C 
BRANCH  12  13
ATOM     13  C   UNL     1      16.235  24.140  -4.395  0.00  0.00    +0.000 C 
BRANCH  13  14
ATOM     14  C   UNL     1      16.544  25.596  -4.086  0.00  0.00    +0.000 C 
BRANCH  14  15
ATOM     15  C   UNL     1      17.008  26.283  -5.353  0.00  0.00    +0.000 C 
BRANCH  15  16
ATOM     16  C   UNL     1      17.320  27.752  -5.103  0.00  0.00    +0.000 C 
BRANCH  16  17
ATOM     17  C   UNL     1      17.707  28.462  -6.398  0.00  0.00    +0.004 C 
BRANCH  17  18
ATOM     18  C   UNL     1      16.651  28.365  -7.502  0.00  0.00    +0.027 C 
BRANCH  18  19
ATOM     19  C   UNL     1      15.339  28.983  -7.097  0.00  0.00    -0.031 C 
ATOM     20  C   UNL     1      14.762  30.013  -7.731  0.00  0.00    -0.031 C 
BRANCH  20  21
ATOM     21  C   UNL     1      15.367  30.632  -8.949  0.00  0.00    +0.027 C 
BRANCH  21  22
ATOM     22  C   UNL     1      14.536  31.770  -9.509  0.00  0.00    +0.004 C 
BRANCH  22  23
ATOM     23  C   UNL     1      15.214  32.304 -10.765  0.00  0.00    +0.000 C 
BRANCH  23  24
ATOM     24  C   UNL     1      14.411  33.449 -11.356  0.00  0.00    +0.000 C 
BRANCH  24  25
ATOM     25  C   UNL     1      15.085  33.985 -12.613  0.00  0.00    -0.000 C 
BRANCH  25  26
ATOM     26  C   UNL     1      14.270  35.134 -13.194  0.00  0.00    -0.000 C 
BRANCH  26  27
ATOM     27  C   UNL     1      14.923  35.691 -14.453  0.00  0.00    -0.003 C 
ATOM     28  C   UNL     1      14.102  36.834 -15.024  0.00  0.00    +0.004 C 
ENDBRANCH  26  27
ENDBRANCH  25  26
ENDBRANCH  24  25
ENDBRANCH  23  24
ENDBRANCH  22  23
ENDBRANCH  21  22
ENDBRANCH  20  21
ENDBRANCH  18  19
ENDBRANCH  17  18
ENDBRANCH  16  17
ENDBRANCH  15  16
ENDBRANCH  14  15
ENDBRANCH  13  14
ENDBRANCH  12  13
ENDBRANCH  11  12
ENDBRANCH  10  11
ENDBRANCH   9  10
ENDBRANCH   8   9
ENDBRANCH   7   8
ENDBRANCH   6   7
ENDBRANCH   4   6
ENDBRANCH   1   2
BRANCH   1  29
ATOM     29  C   UNL     1      15.192  12.960  -4.277  0.00  0.00    +0.188 C 
BRANCH  29  30
ATOM     30  O   UNL     1      15.036  11.573  -4.594  0.00  0.00    -0.347 OA
BRANCH  30  31
ATOM     31  C   UNL     1      14.469  11.391  -5.900  0.00  0.00    +0.282 C 
ATOM     32  C   UNL     1      14.458   9.877  -6.249  0.00  0.00    +0.204 C 
ATOM     33  C   UNL     1      13.693   9.632  -7.566  0.00  0.00    +0.216 C 
ATOM     34  C   UNL     1      12.324  10.327  -7.526  0.00  0.00    +0.179 C 
ATOM     35  C   UNL     1      12.498  11.809  -7.183  0.00  0.00    +0.178 C 
ATOM     36  O   UNL     1      13.163  11.956  -5.924  0.00  0.00    -0.341 OA
BRANCH  34  37
ATOM     37  O   UNL     1      11.523   9.657  -6.544  0.00  0.00    -0.386 OA
ATOM     38  H   UNL     1      10.587   9.850  -6.719  0.00  0.00    +0.210 HD
ENDBRANCH  34  37
BRANCH  32  39
ATOM     39  O   UNL     1      15.794   9.345  -6.374  0.00  0.00    -0.384 OA
ATOM     40  H   UNL     1      16.388  10.044  -6.691  0.00  0.00    +0.210 HD
ENDBRANCH  32  39
BRANCH  35  41
ATOM     41  C   UNL     1      11.146  12.517  -7.061  0.00  0.00    +0.190 C 
BRANCH  41  42
ATOM     42  O   UNL     1      11.353  13.914  -6.861  0.00  0.00    -0.392 OA
ATOM     43  H   UNL     1      11.815  13.990  -6.003  0.00  0.00    +0.210 HD
ENDBRANCH  41  42
ENDBRANCH  35  41
BRANCH  33  44
ATOM     44  O   UNL     1      13.537   8.219  -7.761  0.00  0.00    -0.207 OA
BRANCH  44  45
ATOM     45  S   UNL     1      12.993   7.686  -9.198  0.00  0.00    +0.208 S 
ATOM     46  O   UNL     1      13.902   8.135 -10.226  0.00  0.00    -0.118 OA
ATOM     47  O   UNL     1      11.573   7.955  -9.278  0.00  0.00    -0.118 OA
BRANCH  45  48
ATOM     48  O   UNL     1      13.117   6.094  -9.062  0.00  0.00    -0.231 OA
ATOM     49  H   UNL     1      12.312   5.773  -8.607  0.00  0.00    +0.247 HD
ENDBRANCH  45  48
ENDBRANCH  44  45
ENDBRANCH  33  44
ENDBRANCH  30  31
ENDBRANCH  29  30
ENDBRANCH   1  29
BRANCH   1  50
ATOM     50  C   UNL     1      16.858  12.346  -2.400  0.00  0.00    +0.159 C 
BRANCH  50  51
ATOM     51  O   UNL     1      17.176  12.623  -1.030  0.00  0.00    -0.386 OA
ATOM     52  H   UNL     1      17.984  12.123  -0.823  0.00  0.00    +0.210 HD
ENDBRANCH  50  51
BRANCH  50  54
ATOM     53  C   UNL     1      18.764  11.750  -3.926  0.00  0.00    -0.028 C 
ATOM     54  C   UNL     1      18.111  12.646  -3.171  0.00  0.00    +0.002 C 
BRANCH  53  55
ATOM     55  C   UNL     1      20.075  12.052  -4.585  0.00  0.00    +0.027 C 
BRANCH  55  56
ATOM     56  C   UNL     1      19.959  12.001  -6.103  0.00  0.00    +0.004 C 
BRANCH  56  57
ATOM     57  C   UNL     1      21.291  12.375  -6.749  0.00  0.00    +0.000 C 
BRANCH  57  58
ATOM     58  C   UNL     1      21.177  12.320  -8.266  0.00  0.00    +0.000 C 
BRANCH  58  59
ATOM     59  C   UNL     1      22.497  12.689  -8.932  0.00  0.00    +0.000 C 
BRANCH  59  60
ATOM     60  C   UNL     1      22.353  12.621 -10.447  0.00  0.00    +0.000 C 
BRANCH  60  61
ATOM     61  C   UNL     1      23.662  12.981 -11.137  0.00  0.00    -0.000 C 
BRANCH  61  62
ATOM     62  C   UNL     1      23.505  12.910 -12.651  0.00  0.00    -0.000 C 
BRANCH  62  63
ATOM     63  C   UNL     1      24.812  13.272 -13.344  0.00  0.00    -0.000 C 
BRANCH  63  64
ATOM     64  C   UNL     1      24.663  13.202 -14.860  0.00  0.00    -0.000 C 
BRANCH  64  65
ATOM     65  C   UNL     1      25.976  13.568 -15.547  0.00  0.00    -0.000 C 
BRANCH  65  67
ATOM     66  C   UNL     1      27.148  13.865 -17.747  0.00  0.00    +0.004 C 
ATOM     67  C   UNL     1      25.840  13.501 -17.065  0.00  0.00    -0.003 C 
ENDBRANCH  65  67
ENDBRANCH  64  65
ENDBRANCH  63  64
ENDBRANCH  62  63
ENDBRANCH  61  62
ENDBRANCH  60  61
ENDBRANCH  59  60
ENDBRANCH  58  59
ENDBRANCH  57  58
ENDBRANCH  56  57
ENDBRANCH  55  56
ENDBRANCH  53  55
ENDBRANCH  50  54
ENDBRANCH   1  50
TORSDOF 47
