REMARK  Name = 
REMARK  2 active torsions:
REMARK  status: ('A' for Active; 'I' for Inactive)
REMARK    1  A    between atoms: O_1  and  C_2
REMARK    2  A    between atoms: C_2  and  C_4
REMARK                            x       y       z     vdW  Elec       q    Type
REMARK                         _______ _______ _______ _____ _____    ______ ____
ROOT
ATOM      1  C   UNL     1       2.488  -0.030  -0.030  0.00  0.00    +0.369 C 
ATOM      2  O   UNL     1       3.080  -1.037   0.299  0.00  0.00    -0.242 OA
ENDROOT
BRANCH   1   3
ATOM      3  O   UNL     1       1.155   0.138  -0.084  0.00  0.00    -0.475 OA
ATOM      4  H   UNL     1       0.955   1.056  -0.384  0.00  0.00    +0.295 HD
ENDBRANCH   1   3
BRANCH   1   5
ATOM      5  C   UNL     1       3.211   1.237  -0.443  0.00  0.00    +0.341 C 
ATOM      6  O   UNL     1       2.549   2.216  -0.762  0.00  0.00    -0.289 OA
ENDBRANCH   1   5
TORSDOF 2
