REMARK  Name = 
REMARK  20 active torsions:
REMARK  status: ('A' for Active; 'I' for Inactive)
REMARK    1  A    between atoms: C_1  and  C_2
REMARK    2  A    between atoms: C_2  and  C_3
REMARK    3  A    between atoms: C_3  and  C_4
REMARK    4  A    between atoms: C_4  and  C_5
REMARK    5  A    between atoms: C_5  and  C_6
REMARK    6  A    between atoms: C_6  and  C_7
REMARK    7  A    between atoms: C_7  and  C_8
REMARK    8  A    between atoms: C_8  and  O_9
REMARK    9  A    between atoms: O_9  and  C_10
REMARK   10  A    between atoms: C_10  and  C_11
REMARK   11  A    between atoms: C_11  and  O_12
REMARK   12  A    between atoms: O_12  and  C_13
REMARK   13  A    between atoms: C_13  and  C_14
REMARK   14  A    between atoms: C_14  and  O_15
REMARK   15  A    between atoms: O_15  and  C_16
REMARK   16  A    between atoms: C_16  and  C_17
REMARK   17  A    between atoms: C_17  and  O_18
REMARK   18  A    between atoms: O_18  and  C_19
REMARK   19  A    between atoms: C_19  and  C_20
REMARK   20  A    between atoms: C_20  and  O_21
REMARK                            x       y       z     vdW  Elec       q    Type
REMARK                         _______ _______ _______ _____ _____    ______ ____
ROOT
ATOM      1  C   UNL     1      11.080   2.467   6.607  0.00  0.00    +0.188 C 
ENDROOT
BRANCH   1   2
ATOM      2  O   UNL     1      10.665   1.533   7.608  0.00  0.00    -0.375 OA
BRANCH   2   3
ATOM      3  C   UNL     1      10.990   1.986   8.918  0.00  0.00    +0.188 C 
BRANCH   3   4
ATOM      4  C   UNL     1      10.411   1.015   9.939  0.00  0.00    +0.188 C 
BRANCH   4   5
ATOM      5  O   UNL     1      10.794   1.431  11.249  0.00  0.00    -0.375 OA
BRANCH   5   6
ATOM      6  C   UNL     1      10.279   0.551  12.247  0.00  0.00    +0.188 C 
BRANCH   6   7
ATOM      7  C   UNL     1      10.735   1.041  13.617  0.00  0.00    +0.188 C 
BRANCH   7   8
ATOM      8  O   UNL     1      10.228   0.177  14.635  0.00  0.00    -0.375 OA
BRANCH   8   9
ATOM      9  C   UNL     1      10.663   0.606  15.932  0.00  0.00    +0.187 C 
BRANCH   9  10
ATOM     10  C   UNL     1      10.071  -0.336  16.974  0.00  0.00    +0.184 C 
BRANCH  10  11
ATOM     11  O   UNL     1      10.527  -1.668  16.741  0.00  0.00    -0.393 OA
ATOM     12  H   UNL     1      10.358  -1.834  15.793  0.00  0.00    +0.209 HD
ENDBRANCH  10  11
ENDBRANCH   9  10
ENDBRANCH   8   9
ENDBRANCH   7   8
ENDBRANCH   6   7
ENDBRANCH   5   6
ENDBRANCH   4   5
ENDBRANCH   3   4
ENDBRANCH   2   3
ENDBRANCH   1   2
BRANCH   1  13
ATOM     13  C   UNL     1      10.633   1.962   5.238  0.00  0.00    +0.188 C 
BRANCH  13  14
ATOM     14  O   UNL     1       9.205   2.026   5.153  0.00  0.00    -0.377 OA
BRANCH  14  15
ATOM     15  C   UNL     1       8.732   1.492   3.921  0.00  0.00    +0.160 C 
BRANCH  15  16
ATOM     16  C   UNL     1       7.210   1.493   3.945  0.00  0.00    +0.028 C 
BRANCH  16  17
ATOM     17  C   UNL     1       6.645   0.984   2.624  0.00  0.00    +0.002 C 
BRANCH  17  18
ATOM     18  C   UNL     1       5.118   0.981   2.624  0.00  0.00    +0.000 C 
BRANCH  18  19
ATOM     19  C   UNL     1       4.577   0.480   1.285  0.00  0.00    -0.000 C 
BRANCH  19  20
ATOM     20  C   UNL     1       3.050   0.476   1.267  0.00  0.00    -0.000 C 
BRANCH  20  22
ATOM     21  C   UNL     1       0.997  -0.027  -0.098  0.00  0.00    +0.004 C 
ATOM     22  C   UNL     1       2.516  -0.025  -0.074  0.00  0.00    -0.003 C 
ENDBRANCH  20  22
ENDBRANCH  19  20
ENDBRANCH  18  19
ENDBRANCH  17  18
ENDBRANCH  16  17
ENDBRANCH  15  16
ENDBRANCH  14  15
ENDBRANCH  13  14
ENDBRANCH   1  13
TORSDOF 19
