REMARK  Name = 
REMARK  5 active torsions:
REMARK  status: ('A' for Active; 'I' for Inactive)
REMARK    1  A    between atoms: N_1  and  CA_2
REMARK    2  A    between atoms: CA_2  and  C_4
REMARK    3  A    between atoms: CA_2  and  C_7
REMARK    4  A    between atoms: C_4  and  O_5
REMARK    5  A    between atoms: C_10  and  O_11
REMARK                            x       y       z     vdW  Elec       q    Type
REMARK                         _______ _______ _______ _____ _____    ______ ____
ROOT
ATOM      1  CA  UNL     1       2.646   0.110   0.166  0.00  0.00    +0.191 C 
ENDROOT
BRANCH   1   2
ATOM      2  C   UNL     1       3.078  -1.205   0.792  0.00  0.00    -0.020 A 
ATOM      3  C   UNL     1       2.333  -2.383   0.605  0.00  0.00    +0.009 A 
ATOM      4  C   UNL     1       2.740  -3.580   1.199  0.00  0.00    +0.046 A 
ATOM      5  C   UNL     1       3.886  -3.608   1.982  0.00  0.00    +0.117 A 
ATOM      6  C   UNL     1       4.637  -2.456   2.186  0.00  0.00    +0.046 A 
ATOM      7  C   UNL     1       4.231  -1.257   1.593  0.00  0.00    +0.009 A 
BRANCH   5   8
ATOM      8  O   UNL     1       4.240  -4.798   2.544  0.00  0.00    -0.507 OA
ATOM      9  H   UNL     1       5.033  -4.663   3.089  0.00  0.00    +0.292 HD
ENDBRANCH   5   8
ENDBRANCH   1   2
BRANCH   1  10
ATOM     10  N   UNL     1       1.420   0.608   0.823  0.00  0.00    -0.315 NA
ATOM     11  H1  UNL     1       1.110   1.432   0.298  0.00  0.00    +0.119 HD
ATOM     12  H2  UNL     1       0.673  -0.070   0.672  0.00  0.00    +0.119 HD
ENDBRANCH   1  10
BRANCH   1  13
ATOM     13  C   UNL     1       2.449   0.058  -1.368  0.00  0.00    +0.326 C 
ATOM     14  OXT UNL     1       1.615   0.737  -1.959  0.00  0.00    -0.249 OA
BRANCH  13  15
ATOM     15  O   UNL     1       3.308  -0.743  -2.041  0.00  0.00    -0.479 OA
ATOM     16  H   UNL     1       3.913  -1.256  -1.469  0.00  0.00    +0.295 HD
ENDBRANCH  13  15
ENDBRANCH   1  13
TORSDOF 5
