REMARK  Name = 
REMARK  3 active torsions:
REMARK  status: ('A' for Active; 'I' for Inactive)
REMARK    1  A    between atoms: C_2  and  C_4
REMARK    2  A    between atoms: C_8  and  O_9
REMARK    3  A    between atoms: C_10  and  O_11
REMARK                            x       y       z     vdW  Elec       q    Type
REMARK                         _______ _______ _______ _____ _____    ______ ____
ROOT
ATOM      1  C   UNL     1       3.179   1.216   0.604  0.00  0.00    +0.081 A 
ATOM      2  C   UNL     1       4.195   1.144   1.558  0.00  0.00    +0.171 A 
ATOM      3  C   UNL     1       4.812   2.311   2.017  0.00  0.00    +0.159 A 
ATOM      4  C   UNL     1       4.412   3.562   1.558  0.00  0.00    +0.049 A 
ATOM      5  C   UNL     1       3.394   3.643   0.609  0.00  0.00    +0.005 A 
ATOM      6  C   UNL     1       2.789   2.477   0.126  0.00  0.00    +0.017 A 
ENDROOT
BRANCH   1  10
ATOM      7  N   UNL     1       2.487  -1.111   0.806  0.00  0.00    -0.325 N 
ATOM      8  H   UNL     1       3.109  -1.182   1.606  0.00  0.00    +0.145 HD
ATOM      9  H   UNL     1       2.106  -1.953   0.401  0.00  0.00    +0.145 HD
ATOM     10  C   UNL     1       2.475   0.027   0.053  0.00  0.00    +0.245 C 
ATOM     11  O   UNL     1       1.889   0.068  -1.022  0.00  0.00    -0.270 OA
ENDBRANCH   1  10
BRANCH   2  12
ATOM     12  O   UNL     1       4.642  -0.052   2.066  0.00  0.00    -0.503 OA
ATOM     13  H   UNL     1       5.379   0.196   2.662  0.00  0.00    +0.292 HD
ENDBRANCH   2  12
BRANCH   3  14
ATOM     14  O   UNL     1       5.823   2.168   2.929  0.00  0.00    -0.503 OA
ATOM     15  H   UNL     1       6.208   3.047   3.093  0.00  0.00    +0.292 HD
ENDBRANCH   3  14
TORSDOF 3
