REMARK  Name = 
REMARK  14 active torsions:
REMARK  status: ('A' for Active; 'I' for Inactive)
REMARK    1  A    between atoms: C_1  and  N_2
REMARK    2  A    between atoms: N_2  and  C_3
REMARK    3  A    between atoms: N_2  and  C_4
REMARK    4  A    between atoms: N_2  and  C_5
REMARK    5  A    between atoms: C_5  and  C_6
REMARK    6  A    between atoms: C_6  and  O_7
REMARK    7  A    between atoms: O_7  and  P_8
REMARK    8  A    between atoms: P_8  and  O_9
REMARK    9  A    between atoms: P_8  and  O_11
REMARK   10  A    between atoms: O_11  and  C_12
REMARK   11  A    between atoms: C_12  and  C_13
REMARK   12  A    between atoms: C_13  and  O_15
REMARK   13  A    between atoms: C_13  and  C_16
REMARK   14  A    between atoms: C_16  and  O_17
REMARK                            x       y       z     vdW  Elec       q    Type
REMARK                         _______ _______ _______ _____ _____    ______ ____
ROOT
ATOM      1  P   UNL     1      12.787  -0.073  -3.398  0.00  0.00    +0.475 P 
ATOM      2  O   UNL     1      13.474  -0.442  -2.124  0.00  0.00    -0.227 OA
ENDROOT
BRANCH   1   3
ATOM      3  O   UNL     1      12.446  -1.295  -4.367  0.00  0.00    -0.302 OA
ATOM      4  H   UNL     1      12.488  -2.138  -3.874  0.00  0.00    +0.222 HD
ENDBRANCH   1   3
BRANCH   1   5
ATOM      5  O   UNL     1      11.307   0.496  -3.103  0.00  0.00    -0.281 OA
BRANCH   5   6
ATOM      6  C   UNL     1      11.109   1.884  -3.294  0.00  0.00    +0.223 C 
BRANCH   6   7
ATOM      7  C   UNL     1       9.898   2.391  -2.522  0.00  0.00    +0.161 C 
BRANCH   7   9
ATOM      8  C   UNL     1       8.780   2.938  -0.383  0.00  0.00    +0.192 C 
ATOM      9  N   UNL     1      10.022   2.283  -0.982  0.00  0.00    +0.239 N 
ATOM     10  C   UNL     1      10.067   0.825  -0.525  0.00  0.00    +0.192 C 
ATOM     11  C   UNL     1      11.259   3.005  -0.459  0.00  0.00    +0.192 C 
ENDBRANCH   7   9
ENDBRANCH   6   7
ENDBRANCH   5   6
ENDBRANCH   1   5
BRANCH   1  12
ATOM     12  O   UNL     1      13.441   1.086  -4.281  0.00  0.00    -0.284 OA
BRANCH  12  13
ATOM     13  C   UNL     1      14.662   1.064  -4.978  0.00  0.00    +0.206 C 
BRANCH  13  14
ATOM     14  C   UNL     1      15.773   0.119  -4.506  0.00  0.00    +0.166 C 
BRANCH  14  15
ATOM     15  O   UNL     1      15.290  -1.219  -4.465  0.00  0.00    -0.387 OA
ATOM     16  H   UNL     1      16.055  -1.807  -4.332  0.00  0.00    +0.210 HD
ENDBRANCH  14  15
BRANCH  14  17
ATOM     17  C   UNL     1      16.420   0.520  -3.176  0.00  0.00    +0.189 C 
BRANCH  17  18
ATOM     18  O   UNL     1      16.902   1.858  -3.208  0.00  0.00    -0.392 OA
ATOM     19  H   UNL     1      17.653   1.894  -3.827  0.00  0.00    +0.210 HD
ENDBRANCH  17  18
ENDBRANCH  14  17
ENDBRANCH  13  14
ENDBRANCH  12  13
ENDBRANCH   1  12
TORSDOF 11
