REMARK  Name = 
REMARK  6 active torsions:
REMARK  status: ('A' for Active; 'I' for Inactive)
REMARK    1  A    between atoms: C_7  and  C_8
REMARK    2  A    between atoms: C_8  and  N_9
REMARK    3  A    between atoms: N_9  and  C_10
REMARK    4  A    between atoms: C_13  and  C_16
REMARK    5  A    between atoms: C_16  and  O_17
REMARK    6  A    between atoms: C_21  and  O_22
REMARK                            x       y       z     vdW  Elec       q    Type
REMARK                         _______ _______ _______ _____ _____    ______ ____
ROOT
ATOM      1  N   UNL     1       1.197   0.976  -0.894  0.00  0.00    -0.327 N 
ATOM      2  H   UNL     1       0.782   0.479  -1.670  0.00  0.00    +0.145 HD
ATOM      3  H   UNL     1       0.866   0.761   0.036  0.00  0.00    +0.145 HD
ATOM      4  C   UNL     1       2.571   0.928  -0.956  0.00  0.00    +0.218 A 
ATOM      5  N   UNL     1       3.125   0.699  -2.140  0.00  0.00    -0.178 NA
ATOM      6  C   UNL     1       4.465   0.693  -2.155  0.00  0.00    +0.245 A 
ATOM      7  C   UNL     1       5.288   0.887  -1.067  0.00  0.00    +0.170 A 
ATOM      8  N   UNL     1       6.656   0.896  -1.157  0.00  0.00    -0.240 NA
ATOM      9  C   UNL     1       7.318   1.123   0.005  0.00  0.00    +0.077 A 
ATOM     10  C   UNL     1       6.617   1.280   1.190  0.00  0.00    +0.138 A 
ATOM     11  N   UNL     1       5.263   1.266   1.255  0.00  0.00    -0.232 NA
ATOM     12  C   UNL     1       4.577   1.080   0.120  0.00  0.00    +0.187 A 
ATOM     13  N   UNL     1       3.247   1.094   0.178  0.00  0.00    -0.193 NA
ENDROOT
BRANCH   6  14
ATOM     14  O   UNL     1       5.030   0.474  -3.390  0.00  0.00    -0.491 OA
ATOM     15  H   UNL     1       5.994   0.516  -3.239  0.00  0.00    +0.294 HD
ENDBRANCH   6  14
BRANCH   9  16
ATOM     16  C   UNL     1       8.830   1.197  -0.007  0.00  0.00    +0.158 C 
BRANCH  16  17
ATOM     17  N   UNL     1       9.410  -0.127   0.212  0.00  0.00    -0.338 N 
ATOM     18  H   UNL     1       8.975  -0.822  -0.395  0.00  0.00    +0.146 HD
BRANCH  17  19
ATOM     19  C   UNL     1      10.805  -0.263   0.219  0.00  0.00    +0.027 A 
ATOM     20  C   UNL     1      11.358  -1.518  -0.077  0.00  0.00    +0.024 A 
ATOM     21  C   UNL     1      12.739  -1.743  -0.016  0.00  0.00    +0.017 A 
ATOM     22  C   UNL     1      13.600  -0.716   0.373  0.00  0.00    +0.059 A 
ATOM     23  C   UNL     1      13.064   0.521   0.738  0.00  0.00    +0.017 A 
ATOM     24  C   UNL     1      11.679   0.738   0.663  0.00  0.00    +0.024 A 
BRANCH  22  25
ATOM     25  C   UNL     1      15.055  -1.009   0.450  0.00  0.00    +0.337 C 
ATOM     26  O   UNL     1      15.495  -2.121   0.682  0.00  0.00    -0.245 OA
BRANCH  25  27
ATOM     27  O   UNL     1      15.844   0.057   0.198  0.00  0.00    -0.477 OA
ATOM     28  H   UNL     1      15.384   0.839  -0.157  0.00  0.00    +0.295 HD
ENDBRANCH  25  27
ENDBRANCH  22  25
ENDBRANCH  17  19
ENDBRANCH  16  17
ENDBRANCH   9  16
TORSDOF 6
