REMARK  Name = 
REMARK  2 active torsions:
REMARK  status: ('A' for Active; 'I' for Inactive)
REMARK    1  A    between atoms: O_1  and  C_2
REMARK    2  A    between atoms: C_5  and  N_8
REMARK                            x       y       z     vdW  Elec       q    Type
REMARK                         _______ _______ _______ _____ _____    ______ ____
ROOT
ATOM      1  C   UNL     1       2.336   0.045   0.077  0.00  0.00    +0.117 A 
ATOM      2  C   UNL     1       3.045  -1.151   0.003  0.00  0.00    +0.052 A 
ATOM      3  C   UNL     1       4.430  -1.128  -0.171  0.00  0.00    +0.088 A 
ATOM      4  C   UNL     1       5.090   0.105  -0.267  0.00  0.00    +0.273 A 
ATOM      5  C   UNL     1       4.371   1.308  -0.186  0.00  0.00    +0.088 A 
ATOM      6  C   UNL     1       2.985   1.274  -0.013  0.00  0.00    +0.052 A 
ENDROOT
BRANCH   4   7
ATOM      7  N   UNL     1       6.545   0.139  -0.458  0.00  0.00    +0.080 N 
ATOM      8  O   UNL     1       7.145  -0.944  -0.524  0.00  0.00    +0.041 OA
ATOM      9  O   UNL     1       7.089   1.250  -0.543  0.00  0.00    -0.576 OA
ENDBRANCH   4   7
BRANCH   1  10
ATOM     10  O   UNL     1       0.985  -0.033   0.239  0.00  0.00    -0.507 OA
ATOM     11  H   UNL     1       0.613   0.864   0.243  0.00  0.00    +0.292 HD
ENDBRANCH   1  10
TORSDOF 2
