REMARK  Name = 
REMARK  8 active torsions:
REMARK  status: ('A' for Active; 'I' for Inactive)
REMARK    1  A    between atoms: C_1  and  N_2
REMARK    2  A    between atoms: N_2  and  C_3
REMARK    3  A    between atoms: N_2  and  C_4
REMARK    4  A    between atoms: C_4  and  C_5
REMARK    5  A    between atoms: C_5  and  S_6
REMARK    6  A    between atoms: S_6  and  C_7
REMARK    7  A    between atoms: C_7  and  C_8
REMARK    8  A    between atoms: C_18  and  N_19
REMARK                            x       y       z     vdW  Elec       q    Type
REMARK                         _______ _______ _______ _____ _____    ______ ____
ROOT
ATOM      1  C   UNL     1       7.394   3.375  -3.213  0.00  0.00    -0.010 A 
ATOM      2  C   UNL     1       7.119   4.730  -2.925  0.00  0.00    +0.029 A 
ATOM      3  C   UNL     1       7.439   5.748  -3.825  0.00  0.00    +0.026 A 
ATOM      4  C   UNL     1       8.140   5.414  -4.980  0.00  0.00    +0.038 A 
ATOM      5  C   UNL     1       8.430   4.072  -5.260  0.00  0.00    +0.067 A 
ATOM      6  C   UNL     1       9.110   3.695  -6.509  0.00  0.00    +0.260 A 
ATOM      7  O   UNL     1       9.454   4.527  -7.342  0.00  0.00    -0.267 OA
ATOM      8  N   UNL     1       9.328   2.356  -6.688  0.00  0.00    -0.295 N 
ATOM      9  H   UNL     1       9.754   2.090  -7.560  0.00  0.00    +0.172 HD
ATOM     10  C   UNL     1       8.958   1.404  -5.786  0.00  0.00    +0.194 A 
ATOM     11  N   UNL     1       9.245   0.119  -6.104  0.00  0.00    -0.329 N 
ATOM     12  H   UNL     1      10.044  -0.056  -6.696  0.00  0.00    +0.145 HD
ATOM     13  H   UNL     1       9.177  -0.507  -5.308  0.00  0.00    +0.145 HD
ATOM     14  N   UNL     1       8.368   1.691  -4.673  0.00  0.00    -0.216 NA
ATOM     15  C   UNL     1       8.071   3.039  -4.392  0.00  0.00    +0.084 A 
ENDROOT
BRANCH   3  16
ATOM     16  N   UNL     1       7.250   7.085  -3.466  0.00  0.00    -0.358 N 
ATOM     17  H   UNL     1       6.486   7.232  -2.814  0.00  0.00    +0.142 HD
ATOM     18  H   UNL     1       7.197   7.718  -4.260  0.00  0.00    +0.142 HD
ENDBRANCH   3  16
BRANCH   1  19
ATOM     19  C   UNL     1       6.872   2.314  -2.279  0.00  0.00    +0.106 C 
BRANCH  19  20
ATOM     20  S   UNL     1       5.134   1.923  -2.700  0.00  0.00    -0.155 S 
BRANCH  20  21
ATOM     21  C   UNL     1       4.750   0.723  -1.381  0.00  0.00    +0.085 C 
BRANCH  21  22
ATOM     22  C   UNL     1       4.804   1.376   0.007  0.00  0.00    +0.094 C 
BRANCH  22  24
ATOM     23  C   UNL     1       4.674   1.218   2.391  0.00  0.00    +0.104 C 
ATOM     24  N   UNL     1       4.482   0.482   1.135  0.00  0.00    -0.308 NA
ATOM     25  C   UNL     1       3.112  -0.025   1.063  0.00  0.00    +0.104 C 
ENDBRANCH  22  24
ENDBRANCH  21  22
ENDBRANCH  20  21
ENDBRANCH  19  20
ENDBRANCH   1  19
TORSDOF 6
