REMARK  Name = 
REMARK  9 active torsions:
REMARK  status: ('A' for Active; 'I' for Inactive)
REMARK    1  A    between atoms: C_1  and  C_2
REMARK    2  A    between atoms: C_2  and  N_3
REMARK    3  A    between atoms: N_3  and  C_4
REMARK    4  A    between atoms: N_3  and  C_6
REMARK    5  A    between atoms: C_4  and  C_5
REMARK    6  A    between atoms: C_6  and  C_7
REMARK    7  A    between atoms: C_7  and  N_8
REMARK    8  A    between atoms: N_8  and  C_9
REMARK    9  A    between atoms: C_21  and  C_22
REMARK                            x       y       z     vdW  Elec       q    Type
REMARK                         _______ _______ _______ _____ _____    ______ ____
ROOT
ATOM      1  C   UNL     1       7.176   3.781   1.437  0.00  0.00    +0.039 A 
ATOM      2  C   UNL     1       8.261   3.597   2.304  0.00  0.00    +0.024 A 
ATOM      3  C   UNL     1       8.961   4.667   2.843  0.00  0.00    +0.006 A 
ATOM      4  C   UNL     1       8.592   5.980   2.553  0.00  0.00    -0.036 A 
ATOM      5  C   UNL     1       9.416   7.047   3.229  0.00  0.00    +0.045 C 
ATOM      6  C   UNL     1       7.534   6.216   1.640  0.00  0.00    +0.028 A 
ATOM      7  S   UNL     1       7.164   7.916   1.232  0.00  0.00    -0.088 S 
ATOM      8  C   UNL     1       5.571   7.831   0.484  0.00  0.00    +0.024 A 
ATOM      9  C   UNL     1       5.038   6.652  -0.032  0.00  0.00    +0.036 A 
ATOM     10  C   UNL     1       3.798   6.698  -0.701  0.00  0.00    +0.013 A 
ATOM     11  C   UNL     1       3.105   7.897  -0.847  0.00  0.00    +0.001 A 
ATOM     12  C   UNL     1       3.637   9.074  -0.324  0.00  0.00    +0.001 A 
ATOM     13  C   UNL     1       5.764   5.360   0.050  0.00  0.00    +0.197 A 
ATOM     14  O   UNL     1       5.469   4.493  -0.771  0.00  0.00    -0.287 OA
ATOM     15  C   UNL     1       4.862   9.039   0.337  0.00  0.00    +0.016 A 
ATOM     16  C   UNL     1       6.844   5.120   1.063  0.00  0.00    +0.057 A 
ENDROOT
BRANCH   1  17
ATOM     17  N   UNL     1       6.437   2.668   1.009  0.00  0.00    -0.342 N 
ATOM     18  H   UNL     1       6.343   2.604  -0.010  0.00  0.00    +0.146 HD
BRANCH  17  19
ATOM     19  C   UNL     1       6.461   1.404   1.741  0.00  0.00    +0.117 C 
BRANCH  19  20
ATOM     20  C   UNL     1       5.733   0.250   1.015  0.00  0.00    +0.103 C 
BRANCH  20  21
ATOM     21  N   UNL     1       6.331  -0.217  -0.258  0.00  0.00    -0.301 NA
BRANCH  21  23
ATOM     22  C   UNL     1       8.414  -1.060  -1.403  0.00  0.00    +0.020 C 
ATOM     23  C   UNL     1       7.737  -0.628  -0.105  0.00  0.00    +0.081 C 
ENDBRANCH  21  23
BRANCH  21  24
ATOM     24  C   UNL     1       5.477  -1.237  -0.897  0.00  0.00    +0.081 C 
ATOM     25  C   UNL     1       5.278  -2.544  -0.129  0.00  0.00    +0.020 C 
ENDBRANCH  21  24
ENDBRANCH  20  21
ENDBRANCH  19  20
ENDBRANCH  17  19
ENDBRANCH   1  17
TORSDOF 6
