REMARK  Name = 
REMARK  23 active torsions:
REMARK  status: ('A' for Active; 'I' for Inactive)
REMARK    1  A    between atoms: C_1  and  O_2
REMARK    2  A    between atoms: O_2  and  C_3
REMARK    3  A    between atoms: C_8  and  C_9
REMARK    4  A    between atoms: C_17  and  O_18
REMARK    5  A    between atoms: C_19  and  N_20
REMARK    6  A    between atoms: C_30  and  C_31
REMARK    7  A    between atoms: C_35  and  C_37
REMARK    8  A    between atoms: C_38  and  O_40
REMARK    9  A    between atoms: C_41  and  C_43
REMARK   10  A    between atoms: C_44  and  O_46
REMARK   11  A    between atoms: C_47  and  C_49
REMARK   12  A    between atoms: C_50  and  O_52
REMARK   13  A    between atoms: O_52  and  C_53
REMARK   14  A    between atoms: C_53  and  C_55
REMARK   15  A    between atoms: C_55  and  O_56
REMARK   16  A    between atoms: O_56  and  C_57
REMARK   17  A    between atoms: C_57  and  C_59
REMARK   18  A    between atoms: C_59  and  C_60
REMARK   19  A    between atoms: N_62  and  C_63
REMARK   20  A    between atoms: C_67  and  C_69
REMARK   21  A    between atoms: C_70  and  O_71
REMARK   22  A    between atoms: C_74  and  O_75
REMARK   23  A    between atoms: C_76  and  C_77
REMARK                            x       y       z     vdW  Elec       q    Type
REMARK                         _______ _______ _______ _____ _____    ______ ____
ROOT
ATOM      1  C   UNL     1       4.894  -7.190  -5.749  0.00  0.00    +0.150 C 
ATOM      2  C   UNL     1       4.211  -8.356  -5.052  0.00  0.00    +0.060 C 
ATOM      3  C   UNL     1       3.451  -9.184  -6.076  0.00  0.00    +0.014 C 
ATOM      4  C   UNL     1       3.284   5.505 -20.257  0.00  0.00    +0.187 C 
ATOM      5  C   UNL     1       3.399   5.950 -18.808  0.00  0.00    +0.056 C 
ATOM      6  C   UNL     1       2.165   6.750 -18.425  0.00  0.00    +0.014 C 
ATOM      7  C   UNL     1       3.511   4.729 -17.910  0.00  0.00    +0.126 C 
ATOM      8  C   UNL     1       3.626   5.175 -16.461  0.00  0.00    +0.044 C 
ATOM      9  C   UNL     1       4.863   6.041 -16.295  0.00  0.00    +0.013 C 
ATOM     10  C   UNL     1       3.738   3.953 -15.563  0.00  0.00    +0.126 C 
ATOM     11  C   UNL     1       3.853   4.399 -14.115  0.00  0.00    +0.037 C 
ATOM     12  C   UNL     1       5.090   5.266 -13.948  0.00  0.00    +0.014 C 
ATOM     13  C   UNL     1       3.965   3.178 -13.216  0.00  0.00    -0.021 C 
ATOM     14  C   UNL     1       4.078   3.332 -11.869  0.00  0.00    -0.003 C 
ATOM     15  C   UNL     1       4.190   2.111 -10.971  0.00  0.00    +0.008 C 
ATOM     16  C   UNL     1       4.304   2.266  -9.624  0.00  0.00    +0.012 C 
ATOM     17  C   UNL     1       4.416   1.045  -8.726  0.00  0.00    +0.049 C 
ATOM     18  C   UNL     1       4.416   1.045  -8.726  0.00  0.00    +0.244 C 
ATOM     19  O   UNL     1       4.403  -0.121  -9.233  0.00  0.00    -0.270 OA
ATOM     20  N   UNL     1       4.539   1.212  -7.271  0.00  0.00    -0.278 N 
ATOM     21  H   UNL     1       4.549   2.114  -6.878  0.00  0.00    +0.155 HD
ATOM     22  C   UNL     1       4.647   0.031  -6.402  0.00  0.00    +0.097 C 
ATOM     23  C   UNL     1       6.529   0.550  -3.747  0.00  0.00    +0.128 C 
ATOM     24  C   UNL     1       6.007   0.155  -2.376  0.00  0.00    +0.136 C 
ATOM     25  C   UNL     1       7.035  -0.159  -1.675  0.00  0.00    +0.112 C 
ATOM     26  C   UNL     1       7.182  -1.338  -1.134  0.00  0.00    +0.030 C 
ATOM     27  C   UNL     1       8.431  -1.649  -0.327  0.00  0.00    +0.051 C 
ATOM     28  C   UNL     1       6.191  -2.321  -1.295  0.00  0.00    +0.139 C 
ATOM     29  C   UNL     1       5.086  -2.010  -2.031  0.00  0.00    +0.056 C 
ATOM     30  C   UNL     1       4.147  -3.191  -2.085  0.00  0.00    +0.247 C 
ATOM     31  O   UNL     1       2.919  -3.188  -2.414  0.00  0.00    -0.284 OA
ATOM     32  C   UNL     1       5.002  -4.404  -1.653  0.00  0.00    +0.314 C 
ATOM     33  C   UNL     1       4.132  -5.469  -1.006  0.00  0.00    +0.114 C 
ATOM     34  O   UNL     1       5.697  -5.009  -2.733  0.00  0.00    -0.453 OA
ATOM     35  C   UNL     1       4.987  -5.783  -3.690  0.00  0.00    +0.190 C 
ATOM     36  O   UNL     1       6.094  -3.740  -0.787  0.00  0.00    -0.444 OA
ATOM     37  C   UNL     1       4.535  -0.550  -2.568  0.00  0.00    +0.111 C 
ATOM     38  C   UNL     1       4.842  -0.878  -4.092  0.00  0.00    +0.126 C 
ATOM     39  C   UNL     1       4.775   0.203  -4.897  0.00  0.00    +0.093 C 
ATOM     40  C   UNL     1       5.653  -6.363  -4.725  0.00  0.00    +0.042 C 
ENDROOT
BRANCH  39  41
ATOM     41  N   UNL     1       4.790   1.551  -4.311  0.00  0.00    -0.321 N 
ATOM     42  C   UNL     1       3.739   1.893  -3.249  0.00  0.00    +0.133 C 
ATOM     43  C   UNL     1       2.985   3.154  -3.681  0.00  0.00    +0.178 C 
ATOM     44  O   UNL     1       3.987   4.291  -3.893  0.00  0.00    -0.377 OA
ATOM     45  C   UNL     1       4.954   3.897  -4.869  0.00  0.00    +0.178 C 
ATOM     46  C   UNL     1       5.722   2.750  -4.498  0.00  0.00    +0.133 C 
ENDBRANCH  39  41
BRANCH   1  48
ATOM     47  C   UNL     1       6.438  -6.597  -7.373  0.00  0.00    +0.194 C 
ATOM     48  O   UNL     1       5.800  -7.686  -6.723  0.00  0.00    -0.375 OA
ENDBRANCH   1  48
BRANCH   7  49
ATOM     49  O   UNL     1       2.355   3.919 -18.066  0.00  0.00    -0.391 OA
ATOM     50  H   UNL     1       2.426   3.140 -17.493  0.00  0.00    +0.210 HD
ENDBRANCH   7  49
BRANCH  10  51
ATOM     51  O   UNL     1       2.582   3.144 -15.719  0.00  0.00    -0.391 OA
ATOM     52  H   UNL     1       2.653   2.365 -15.146  0.00  0.00    +0.210 HD
ENDBRANCH  10  51
BRANCH  25  53
ATOM     53  O   UNL     1       8.052   0.813  -1.481  0.00  0.00    -0.510 OA
ATOM     54  H   UNL     1       7.964   1.665  -1.861  0.00  0.00    +0.292 HD
ENDBRANCH  25  53
BRANCH  38  55
ATOM     55  O   UNL     1       5.494  -0.907  -2.709  0.00  0.00    -0.508 OA
ATOM     56  H   UNL     1       5.063  -1.481  -2.134  0.00  0.00    +0.292 HD
ENDBRANCH  38  55
BRANCH  23  57
ATOM     57  O   UNL     1       7.604   1.470  -3.860  0.00  0.00    -0.508 OA
ATOM     58  H   UNL     1       7.926   1.714  -4.706  0.00  0.00    +0.292 HD
ENDBRANCH  23  57
BRANCH   4  59
ATOM     59  O   UNL     1       2.128   4.695 -20.413  0.00  0.00    -0.458 OA
BRANCH  59  60
ATOM     60  C   UNL     1       1.105   5.098 -21.312  0.00  0.00    +0.346 C 
ATOM     61  O   UNL     1       1.227   6.178 -21.971  0.00  0.00    -0.247 OA
BRANCH  60  62
ATOM     62  C   UNL     1      -0.136   4.238 -21.485  0.00  0.00    +0.352 C 
BRANCH  62  63
ATOM     63  O   UNL     1       0.197   2.876 -21.263  0.00  0.00    -0.453 OA
BRANCH  63  64
ATOM     64  C   UNL     1       0.821   2.120 -22.290  0.00  0.00    +0.312 C 
ATOM     65  O   UNL     1       1.080   2.663 -23.410  0.00  0.00    -0.250 OA
BRANCH  64  66
ATOM     66  C   UNL     1       1.179   0.662 -22.051  0.00  0.00    +0.153 C 
BRANCH  66  67
ATOM     67  C   UNL     1       0.011  -0.220 -22.462  0.00  0.00    -0.041 C 
ATOM     68  C   UNL     1      -0.472  -0.182 -23.882  0.00  0.00    +0.061 C 
ATOM     69  C   UNL     1      -1.346  -1.365 -24.184  0.00  0.00    -0.007 C 
ATOM     70  C   UNL     1      -1.862  -2.107 -23.230  0.00  0.00    +0.070 C 
ATOM     71  N   UNL     1      -1.616  -1.824 -21.893  0.00  0.00    -0.316 N 
ATOM     72  C   UNL     1      -2.485  -2.390 -20.851  0.00  0.00    +0.134 C 
ATOM     73  C   UNL     1      -0.569  -1.019 -21.545  0.00  0.00    +0.074 C 
ENDBRANCH  66  67
ENDBRANCH  64  66
ENDBRANCH  63  64
ENDBRANCH  62  63
ENDBRANCH  60  62
ENDBRANCH  59  60
ENDBRANCH   4  59
TORSDOF 14
