REMARK  Name = 
REMARK  9 active torsions:
REMARK  status: ('A' for Active; 'I' for Inactive)
REMARK    1  A    between atoms: C_1  and  C_2
REMARK    2  A    between atoms: C_2  and  C_3
REMARK    3  A    between atoms: C_4  and  C_5
REMARK    4  A    between atoms: C_5  and  C_7
REMARK    5  A    between atoms: C_11  and  O_12
REMARK    6  A    between atoms: C_20  and  S_23
REMARK    7  A    between atoms: S_23  and  N_26
REMARK    8  A    between atoms: N_26  and  C_27
REMARK    9  A    between atoms: N_26  and  C_28
REMARK                            x       y       z     vdW  Elec       q    Type
REMARK                         _______ _______ _______ _____ _____    ______ ____
ROOT
ATOM      1  C   UNL     1       3.069   1.363  -0.147  0.00  0.00    +0.117 A 
ATOM      2  O   UNL     1       2.281   2.468  -0.007  0.00  0.00    -0.459 OA
ATOM      3  C   UNL     1       3.085   3.558  -0.110  0.00  0.00    +0.138 A 
ATOM      4  C   UNL     1       2.654   4.882  -0.063  0.00  0.00    +0.075 A 
ATOM      5  C   UNL     1       3.651   5.857  -0.203  0.00  0.00    +0.109 A 
ATOM      6  C   UNL     1       5.007   5.517  -0.257  0.00  0.00    +0.029 A 
ATOM      7  C   UNL     1       5.398   4.172  -0.291  0.00  0.00    +0.014 A 
ATOM      8  C   UNL     1       4.406   3.164  -0.283  0.00  0.00    +0.031 A 
ATOM      9  C   UNL     1       4.374   1.736  -0.444  0.00  0.00    +0.071 A 
ENDROOT
BRANCH   5  10
ATOM     10  S   UNL     1       3.183   7.579  -0.284  0.00  0.00    +0.060 S 
ATOM     11  O   UNL     1       4.316   8.355   0.172  0.00  0.00    -0.153 OA
ATOM     12  O   UNL     1       1.887   7.698   0.348  0.00  0.00    -0.153 OA
BRANCH  10  13
ATOM     13  N   UNL     1       2.990   7.841  -1.956  0.00  0.00    -0.183 NA
ATOM     14  C   UNL     1       1.881   7.130  -2.617  0.00  0.00    +0.131 C 
ATOM     15  C   UNL     1       4.211   7.912  -2.775  0.00  0.00    +0.131 C 
ENDBRANCH  10  13
ENDBRANCH   5  10
BRANCH   1  17
ATOM     16  C   UNL     1       1.812  -0.153   1.390  0.00  0.00    +0.012 C 
ATOM     17  C   UNL     1       2.371   0.053  -0.010  0.00  0.00    +0.072 C 
ENDBRANCH   1  17
BRANCH   9  18
ATOM     18  C   UNL     1       5.434   0.804  -0.817  0.00  0.00    +0.197 C 
ATOM     19  O   UNL     1       5.455  -0.354  -0.408  0.00  0.00    -0.287 OA
BRANCH  18  20
ATOM     20  C   UNL     1       6.529   1.238  -1.735  0.00  0.00    +0.025 A 
ATOM     21  C   UNL     1       7.768   0.587  -1.640  0.00  0.00    +0.030 A 
ATOM     22  C   UNL     1       8.858   1.036  -2.390  0.00  0.00    +0.061 A 
ATOM     23 BR   UNL     1      10.509   0.119  -2.216  0.00  0.00    -0.046 Br
ATOM     24  C   UNL     1       8.726   2.148  -3.224  0.00  0.00    +0.145 A 
ATOM     25  C   UNL     1       7.472   2.745  -3.379  0.00  0.00    +0.061 A 
ATOM     26 BR   UNL     1       7.244   4.257  -4.501  0.00  0.00    -0.046 Br
ATOM     27  C   UNL     1       6.367   2.265  -2.673  0.00  0.00    +0.030 A 
BRANCH  24  28
ATOM     28  O   UNL     1       9.828   2.648  -3.863  0.00  0.00    -0.505 OA
ATOM     29  H   UNL     1       9.580   3.479  -4.307  0.00  0.00    +0.292 HD
ENDBRANCH  24  28
ENDBRANCH  18  20
ENDBRANCH   9  18
TORSDOF 6
