REMARK  Name = 
REMARK  19 active torsions:
REMARK  status: ('A' for Active; 'I' for Inactive)
REMARK    1  A    between atoms: C_1  and  C_2
REMARK    2  A    between atoms: C_2  and  C_3
REMARK    3  A    between atoms: C_3  and  C_4
REMARK    4  A    between atoms: C_4  and  C_5
REMARK    5  A    between atoms: C_5  and  C_6
REMARK    6  A    between atoms: C_6  and  S_7
REMARK    7  A    between atoms: S_7  and  C_8
REMARK    8  A    between atoms: C_8  and  C_9
REMARK    9  A    between atoms: C_9  and  N_11
REMARK   10  A    between atoms: C_9  and  C_25
REMARK   11  A    between atoms: C_12  and  C_14
REMARK   12  A    between atoms: C_14  and  C_15
REMARK   13  A    between atoms: C_15  and  C_16
REMARK   14  A    between atoms: C_16  and  N_18
REMARK   15  A    between atoms: C_16  and  C_22
REMARK   16  A    between atoms: C_22  and  O_23
REMARK   17  A    between atoms: N_27  and  CA_28
REMARK   18  A    between atoms: CA_28  and  C_29
REMARK   19  A    between atoms: C_29  and  O_30
REMARK                            x       y       z     vdW  Elec       q    Type
REMARK                         _______ _______ _______ _____ _____    ______ ____
ROOT
ATOM      1  C   UNK A   1       7.499   1.604  -7.744  0.00  0.00    +0.169 C 
ENDROOT
BRANCH   1   2
ATOM      2  N   UNK A   1       6.572   0.532  -7.368  0.00  0.00    -0.303 N 
ATOM      3  H   UNK A   1       6.974  -0.269  -6.894  0.00  0.00    +0.149 HD
ATOM      4  C   UNK A   1       5.234   0.602  -7.639  0.00  0.00    +0.214 C 
ATOM      5  O   UNK A   1       4.693   1.582  -8.139  0.00  0.00    -0.276 OA
BRANCH   4   6
ATOM      6  C   UNK A   1       4.435  -0.587  -7.153  0.00  0.00    +0.102 C 
BRANCH   6   7
ATOM      7  C   UNK A   1       3.876  -0.263  -5.768  0.00  0.00    +0.075 C 
BRANCH   7   8
ATOM      8  C   UNK A   1       2.981  -1.353  -5.184  0.00  0.00    +0.171 C 
BRANCH   8   9
ATOM      9  N   UNK A   1       2.481  -0.838  -3.847  0.00  0.00    +0.229 N 
ATOM     10  H   UNK A   1       2.002   0.069  -3.894  0.00  0.00    +0.200 HD
ATOM     11  H   UNK A   1       3.282  -0.760  -3.196  0.00  0.00    +0.200 HD
ATOM     12  H   UNK A   1       1.854  -1.522  -3.399  0.00  0.00    +0.200 HD
ENDBRANCH   8   9
BRANCH   8  13
ATOM     13  C   UNK A   1       3.746  -2.651  -4.933  0.00  0.00    +0.354 C 
ATOM     14  O   UNK A   1       4.274  -2.853  -3.846  0.00  0.00    -0.245 OA
BRANCH  13  15
ATOM     15  O   UNK A   1       3.772  -3.538  -5.938  0.00  0.00    -0.477 OA
ATOM     16  H   UNK A   1       3.294  -3.363  -6.774  0.00  0.00    +0.295 HD
ENDBRANCH  13  15
ENDBRANCH   8  13
ENDBRANCH   7   8
ENDBRANCH   6   7
ENDBRANCH   4   6
ENDBRANCH   1   2
BRANCH   1  17
ATOM     17  C   UNK A   1       7.473   2.641  -6.607  0.00  0.00    +0.235 C 
ATOM     18  N   GLY A   2       6.566   3.676  -6.788  0.00  0.00    -0.303 N 
ATOM     19  H   GLY A   2       6.325   3.884  -7.754  0.00  0.00    +0.149 HD
ATOM     20  O   UNK A   1       8.099   2.492  -5.561  0.00  0.00    -0.274 OA
BRANCH  18  21
ATOM     21  CA  GLY A   2       6.587   4.783  -5.833  0.00  0.00    +0.224 C 
BRANCH  21  22
ATOM     22  C   GLY A   2       5.468   5.795  -6.039  0.00  0.00    +0.322 C 
ATOM     23  OXT GLY A   2       5.463   6.914  -5.555  0.00  0.00    -0.249 OA
BRANCH  22  24
ATOM     24  O   GLY A   2       4.409   5.297  -6.724  0.00  0.00    -0.480 OA
ATOM     25  H   GLY A   2       4.527   4.349  -6.936  0.00  0.00    +0.295 HD
ENDBRANCH  22  24
ENDBRANCH  21  22
ENDBRANCH  18  21
ENDBRANCH   1  17
BRANCH   1  26
ATOM     26  C   UNK A   1       8.927   1.073  -7.937  0.00  0.00    +0.100 C 
BRANCH  26  27
ATOM     27  S   UNK A   1       9.026  -0.302  -9.147  0.00  0.00    -0.158 S 
BRANCH  27  28
ATOM     28  C   UNK A   1       8.488   0.558 -10.665  0.00  0.00    +0.069 C 
BRANCH  28  29
ATOM     29  C   UNK A   1       8.499  -0.432 -11.826  0.00  0.00    +0.011 C 
BRANCH  29  30
ATOM     30  C   UNK A   1       8.011   0.210 -13.127  0.00  0.00    +0.001 C 
BRANCH  30  31
ATOM     31  C   UNK A   1       8.024  -0.816 -14.262  0.00  0.00    -0.000 C 
BRANCH  31  33
ATOM     32  C   UNK A   1       7.571  -1.250 -16.696  0.00  0.00    +0.004 C 
ATOM     33  C   UNK A   1       7.547  -0.215 -15.582  0.00  0.00    -0.003 C 
ENDBRANCH  31  33
ENDBRANCH  30  31
ENDBRANCH  29  30
ENDBRANCH  28  29
ENDBRANCH  27  28
ENDBRANCH  26  27
ENDBRANCH   1  26
TORSDOF 18
