REMARK  Name = 
REMARK  13 active torsions:
REMARK  status: ('A' for Active; 'I' for Inactive)
REMARK    1  A    between atoms: O_1  and  C_2
REMARK    2  A    between atoms: C_2  and  C_4
REMARK    3  A    between atoms: C_8  and  O_9
REMARK    4  A    between atoms: C_10  and  C_11
REMARK    5  A    between atoms: C_11  and  C_13
REMARK    6  A    between atoms: C_14  and  O_15
REMARK    7  A    between atoms: C_17  and  C_21
REMARK    8  A    between atoms: C_19  and  O_20
REMARK    9  A    between atoms: C_21  and  O_23
REMARK   10  A    between atoms: O_23  and  C_24
REMARK   11  A    between atoms: C_31  and  N_33
REMARK   12  A    between atoms: C_34  and  C_36
REMARK   13  A    between atoms: C_39  and  O_40
REMARK                            x       y       z     vdW  Elec       q    Type
REMARK                         _______ _______ _______ _____ _____    ______ ____
ROOT
ATOM      1  C   UNL     1       4.129  -3.162   9.803  0.00  0.00    +0.105 A 
ATOM      2  C   UNL     1       4.172  -4.476   9.316  0.00  0.00    +0.132 A 
ATOM      3  C   UNL     1       3.735  -4.802   8.009  0.00  0.00    +0.061 A 
ATOM      4  C   UNL     1       3.228  -3.816   7.154  0.00  0.00    +0.066 A 
ATOM      5  C   UNL     1       3.227  -2.489   7.613  0.00  0.00    +0.061 A 
ATOM      6  C   UNL     1       3.669  -2.171   8.914  0.00  0.00    +0.132 A 
ENDROOT
BRANCH   1   7
ATOM      7  C   UNL     1       4.422  -2.814  11.243  0.00  0.00    +0.204 C 
ATOM      8  O   UNL     1       3.835  -1.856  11.751  0.00  0.00    -0.286 OA
BRANCH   7  10
ATOM      9  C   UNL     1       5.146  -3.931  13.430  0.00  0.00    +0.073 A 
ATOM     10  C   UNL     1       5.422  -3.503  12.110  0.00  0.00    +0.078 A 
ATOM     11  C   UNL     1       6.748  -3.597  11.651  0.00  0.00    +0.128 A 
ATOM     12  C   UNL     1       7.759  -4.170  12.438  0.00  0.00    +0.046 A 
ATOM     13  C   UNL     1       7.478  -4.619  13.720  0.00  0.00    +0.004 A 
ATOM     14  C   UNL     1       6.185  -4.488  14.216  0.00  0.00    +0.016 A 
BRANCH   9  15
ATOM     15  C   UNL     1       3.832  -3.907  14.128  0.00  0.00    +0.338 C 
ATOM     16  O   UNL     1       3.526  -4.788  14.921  0.00  0.00    -0.245 OA
BRANCH  15  17
ATOM     17  O   UNL     1       3.072  -2.813  13.956  0.00  0.00    -0.477 OA
ATOM     18  H   UNL     1       3.374  -2.180  13.263  0.00  0.00    +0.295 HD
ENDBRANCH  15  17
ENDBRANCH   9  15
BRANCH  11  19
ATOM     19  O   UNL     1       7.085  -3.072  10.431  0.00  0.00    -0.506 OA
ATOM     20  H   UNL     1       8.054  -3.078  10.342  0.00  0.00    +0.292 HD
ENDBRANCH  11  19
ENDBRANCH   7  10
ENDBRANCH   1   7
BRANCH   2  21
ATOM     21  O   UNL     1       4.607  -5.481  10.135  0.00  0.00    -0.506 OA
ATOM     22  H   UNL     1       4.390  -6.342   9.739  0.00  0.00    +0.292 HD
ENDBRANCH   2  21
BRANCH   4  23
ATOM     23  C   UNL     1       2.662  -4.115   5.788  0.00  0.00    +0.340 C 
ATOM     24  O   UNL     1       2.229  -3.239   5.055  0.00  0.00    -0.245 OA
BRANCH  23  25
ATOM     25  O   UNL     1       2.681  -5.449   5.484  0.00  0.00    -0.456 OA
BRANCH  25  26
ATOM     26  C   UNL     1       2.120  -5.838   4.185  0.00  0.00    +0.198 C 
ATOM     27  C   UNL     1       2.851  -7.082   3.611  0.00  0.00    +0.128 C 
ATOM     28  C   UNL     1       2.819  -8.297   4.570  0.00  0.00    +0.106 C 
ATOM     29  N   UNL     1       1.669  -9.195   4.498  0.00  0.00    -0.314 NA
ATOM     30  H   UNL     1       1.818  -9.875   3.749  0.00  0.00    +0.122 HD
ATOM     31  C   UNL     1       0.355  -8.592   4.326  0.00  0.00    +0.081 C 
ATOM     32  C   UNL     1       0.117  -7.273   5.063  0.00  0.00    +0.019 C 
ATOM     33  C   UNL     1       0.598  -6.044   4.284  0.00  0.00    +0.048 C 
BRANCH  27  34
ATOM     34  N   UNL     1       4.244  -6.747   3.265  0.00  0.00    -0.304 N 
ATOM     35  H   UNL     1       4.787  -6.273   3.973  0.00  0.00    +0.149 HD
ATOM     36  C   UNL     1       4.904  -7.411   2.243  0.00  0.00    +0.244 C 
ATOM     37  O   UNL     1       4.347  -8.207   1.495  0.00  0.00    -0.270 OA
BRANCH  36  38
ATOM     38  C   UNL     1       6.377  -7.183   2.134  0.00  0.00    +0.037 A 
ATOM     39  C   UNL     1       7.003  -6.037   2.643  0.00  0.00    +0.016 A 
ATOM     40  C   UNL     1       8.401  -5.940   2.636  0.00  0.00    +0.046 A 
ATOM     41  C   UNL     1       9.164  -6.981   2.115  0.00  0.00    +0.117 A 
ATOM     42  C   UNL     1       8.558  -8.083   1.526  0.00  0.00    +0.046 A 
ATOM     43  C   UNL     1       7.161  -8.179   1.532  0.00  0.00    +0.016 A 
BRANCH  41  44
ATOM     44  O   UNL     1      10.518  -6.889   2.227  0.00  0.00    -0.507 OA
ATOM     45  H   UNL     1      10.894  -7.778   2.105  0.00  0.00    +0.292 HD
ENDBRANCH  41  44
ENDBRANCH  36  38
ENDBRANCH  27  34
ENDBRANCH  25  26
ENDBRANCH  23  25
ENDBRANCH   4  23
BRANCH   6  46
ATOM     46  O   UNL     1       3.617  -0.839   9.240  0.00  0.00    -0.506 OA
ATOM     47  H   UNL     1       3.804  -0.742  10.197  0.00  0.00    +0.292 HD
ENDBRANCH   6  46
TORSDOF 13
