REMARK  Name = 
REMARK  7 active torsions:
REMARK  status: ('A' for Active; 'I' for Inactive)
REMARK    1  A    between atoms: O_1  and  C_2
REMARK    2  A    between atoms: C_2  and  C_3
REMARK    3  A    between atoms: C_2  and  C_7
REMARK    4  A    between atoms: C_3  and  C_4
REMARK    5  A    between atoms: C_4  and  O_5
REMARK    6  A    between atoms: C_7  and  C_8
REMARK    7  A    between atoms: C_8  and  O_9
REMARK                            x       y       z     vdW  Elec       q    Type
REMARK                         _______ _______ _______ _____ _____    ______ ____
ROOT
ATOM      1  C   UNL     1       2.494   0.059  -0.113  0.00  0.00    +0.136 C 
ENDROOT
BRANCH   1   2
ATOM      2  O   UNL     1       1.076  -0.174  -0.163  0.00  0.00    -0.391 OA
ATOM      3  H   UNL     1       0.638   0.673  -0.413  0.00  0.00    +0.210 HD
ENDBRANCH   1   2
BRANCH   1   4
ATOM      4  C   UNL     1       3.091  -1.088   0.700  0.00  0.00    +0.152 C 
BRANCH   4   5
ATOM      5  C   UNL     1       3.012  -2.419  -0.007  0.00  0.00    +0.307 C 
ATOM      6  O   UNL     1       3.879  -3.274   0.089  0.00  0.00    -0.251 OA
BRANCH   5   7
ATOM      7  O   UNL     1       1.869  -2.621  -0.698  0.00  0.00    -0.481 OA
ATOM      8  H   UNL     1       1.245  -1.858  -0.623  0.00  0.00    +0.295 HD
ENDBRANCH   5   7
ENDBRANCH   4   5
ENDBRANCH   1   4
BRANCH   1   9
ATOM      9  C   UNL     1       2.814   1.403   0.544  0.00  0.00    +0.152 C 
BRANCH   9  10
ATOM     10  C   UNL     1       2.308   2.525  -0.321  0.00  0.00    +0.307 C 
ATOM     11  O   UNL     1       1.147   2.586  -0.699  0.00  0.00    -0.251 OA
BRANCH  10  12
ATOM     12  O   UNL     1       3.232   3.445  -0.656  0.00  0.00    -0.481 OA
ATOM     13  H   UNL     1       4.131   3.295  -0.305  0.00  0.00    +0.295 HD
ENDBRANCH  10  12
ENDBRANCH   9  10
ENDBRANCH   1   9
TORSDOF 7
