REMARK  Name = 
REMARK  9 active torsions:
REMARK  status: ('A' for Active; 'I' for Inactive)
REMARK    1  A    between atoms: C_2  and  C_29
REMARK    2  A    between atoms: N_7  and  S_8
REMARK    3  A    between atoms: S_8  and  C_11
REMARK    4  A    between atoms: C_14  and  O_15
REMARK    5  A    between atoms: O_15  and  C_16
REMARK    6  A    between atoms: C_19  and  O_21
REMARK    7  A    between atoms: O_21  and  C_22
REMARK    8  A    between atoms: C_22  and  C_23
REMARK    9  A    between atoms: N_31  and  O_32
REMARK                            x       y       z     vdW  Elec       q    Type
REMARK                         _______ _______ _______ _____ _____    ______ ____
ROOT
ATOM      1  C   UNL     1       2.171  -0.029  -0.155  0.00  0.00    +0.185 C 
ATOM      2  N   UNL     1       2.758   0.936  -1.180  0.00  0.00    -0.162 NA
ATOM      3  C   UNL     1       2.402   0.523  -2.590  0.00  0.00    +0.129 C 
ATOM      4  C   UNL     1       2.710  -0.954  -2.890  0.00  0.00    +0.128 C 
ATOM      5  N   UNL     1       2.209  -1.837  -1.843  0.00  0.00    -0.264 N 
ATOM      6  C   UNL     1       1.413  -2.918  -2.166  0.00  0.00    +0.403 C 
ATOM      7  O   UNL     1       1.094  -3.203  -3.314  0.00  0.00    -0.226 OA
ATOM      8  C   UNL     1       2.577  -1.480  -0.466  0.00  0.00    +0.141 C 
ENDROOT
BRANCH   1   9
ATOM      9  C   UNL     1       0.646   0.047  -0.043  0.00  0.00    +0.256 C 
ATOM     10  N   UNL     1       0.087   1.266  -0.338  0.00  0.00    -0.196 N 
ATOM     11  H   UNL     1       0.620   2.122  -0.444  0.00  0.00    +0.182 HD
ATOM     12  O   UNL     1      -0.067  -0.885   0.332  0.00  0.00    -0.272 OA
BRANCH  10  13
ATOM     13  O   UNL     1      -1.316   1.363  -0.194  0.00  0.00    -0.295 OA
ATOM     14  H   UNL     1      -1.564   0.449   0.072  0.00  0.00    +0.241 HD
ENDBRANCH  10  13
ENDBRANCH   1   9
BRANCH   2  15
ATOM     15  S   UNL     1       4.426   1.259  -0.907  0.00  0.00    +0.062 S 
ATOM     16  O   UNL     1       5.196   0.163  -1.451  0.00  0.00    -0.153 OA
ATOM     17  O   UNL     1       4.569   1.655   0.476  0.00  0.00    -0.153 OA
BRANCH  15  18
ATOM     18  C   UNL     1       4.723   2.697  -1.905  0.00  0.00    +0.106 A 
ATOM     19  C   UNL     1       5.506   2.613  -3.060  0.00  0.00    +0.032 A 
ATOM     20  C   UNL     1       5.687   3.750  -3.858  0.00  0.00    +0.047 A 
ATOM     21  C   UNL     1       5.093   4.961  -3.495  0.00  0.00    +0.120 A 
ATOM     22  C   UNL     1       4.336   5.035  -2.321  0.00  0.00    +0.047 A 
ATOM     23  C   UNL     1       4.158   3.911  -1.515  0.00  0.00    +0.032 A 
BRANCH  21  24
ATOM     24  O   UNL     1       5.122   6.115  -4.227  0.00  0.00    -0.495 OA
ATOM     25  C   UNL     1       6.246   6.307  -5.078  0.00  0.00    +0.277 C 
ENDBRANCH  21  24
ENDBRANCH  15  18
ENDBRANCH   2  15
BRANCH   6  26
ATOM     26  O   UNL     1       1.021  -3.609  -1.070  0.00  0.00    -0.445 OA
BRANCH  26  27
ATOM     27  C   UNL     1       0.177  -4.742  -1.281  0.00  0.00    +0.269 C 
BRANCH  27  28
ATOM     28  C   UNL     1       0.884  -5.949  -0.724  0.00  0.00    -0.010 A 
ATOM     29  C   UNL     1       1.776  -6.674  -1.526  0.00  0.00    +0.007 A 
ATOM     30  C   UNL     1       2.459  -7.774  -1.006  0.00  0.00    +0.000 A 
ATOM     31  C   UNL     1       2.264  -8.154   0.320  0.00  0.00    +0.000 A 
ATOM     32  C   UNL     1       1.389  -7.432   1.130  0.00  0.00    +0.000 A 
ATOM     33  C   UNL     1       0.705  -6.331   0.613  0.00  0.00    +0.007 A 
ENDBRANCH  27  28
ENDBRANCH  26  27
ENDBRANCH   6  26
TORSDOF 8
