REMARK  Name = 
REMARK  66 active torsions:
REMARK  status: ('A' for Active; 'I' for Inactive)
REMARK    1  A    between atoms: C_5  and  C_6
REMARK    2  A    between atoms: C_6  and  C_7
REMARK    3  A    between atoms: C_7  and  C_8
REMARK    4  A    between atoms: C_8  and  C_9
REMARK    5  A    between atoms: C_9  and  C_10
REMARK    6  A    between atoms: C_10  and  C_11
REMARK    7  A    between atoms: C_11  and  C_12
REMARK    8  A    between atoms: C_12  and  C_13
REMARK    9  A    between atoms: C_13  and  C_14
REMARK   10  A    between atoms: C_14  and  C_15
REMARK   11  A    between atoms: C_15  and  C_16
REMARK   12  A    between atoms: C_16  and  C_18
REMARK   13  A    between atoms: C_18  and  C_19
REMARK   14  A    between atoms: N_21  and  C_22
REMARK   15  A    between atoms: C_24  and  O_26
REMARK   16  A    between atoms: O_26  and  P_27
REMARK   17  A    between atoms: C_32  and  C_34
REMARK   18  A    between atoms: C_34  and  O_35
REMARK   19  A    between atoms: O_35  and  C_36
REMARK   20  A    between atoms: C_39  and  C_41
REMARK   21  A    between atoms: C_41  and  O_42
REMARK   22  A    between atoms: O_42  and  C_43
REMARK   23  A    between atoms: C_44  and  O_46
REMARK   24  A    between atoms: O_46  and  P_47
REMARK   25  A    between atoms: C_51  and  O_53
REMARK   26  A    between atoms: O_53  and  C_54
REMARK   27  A    between atoms: C_54  and  C_55
REMARK   28  A    between atoms: C_55  and  C_56
REMARK   29  A    between atoms: C_56  and  C_58
REMARK   30  A    between atoms: C_56  and  O_65
REMARK   31  A    between atoms: C_58  and  C_59
REMARK   32  A    between atoms: C_59  and  C_60
REMARK   33  A    between atoms: C_60  and  C_61
REMARK   34  A    between atoms: C_61  and  C_62
REMARK   35  A    between atoms: C_62  and  C_63
REMARK   36  A    between atoms: C_63  and  C_64
REMARK   37  A    between atoms: O_65  and  C_66
REMARK   38  A    between atoms: C_67  and  N_69
REMARK   39  A    between atoms: C_70  and  C_72
REMARK   40  A    between atoms: C_72  and  C_73
REMARK   41  A    between atoms: C_73  and  C_74
REMARK   42  A    between atoms: C_74  and  C_75
REMARK   43  A    between atoms: C_75  and  C_76
REMARK   44  A    between atoms: C_76  and  C_77
REMARK   45  A    between atoms: C_77  and  C_78
REMARK   46  A    between atoms: C_78  and  C_79
REMARK   47  A    between atoms: C_79  and  C_80
REMARK   48  A    between atoms: C_80  and  C_81
REMARK   49  A    between atoms: C_82  and  C_83
REMARK   50  A    between atoms: C_83  and  C_84
REMARK   51  A    between atoms: C_84  and  C_85
REMARK   52  A    between atoms: C_85  and  C_86
REMARK   53  A    between atoms: C_86  and  C_87
REMARK   54  A    between atoms: C_87  and  C_88
REMARK   55  A    between atoms: C_89  and  O_91
REMARK   56  A    between atoms: C_92  and  O_94
REMARK   57  A    between atoms: O_94  and  C_95
REMARK   58  A    between atoms: C_95  and  C_96
REMARK   59  A    between atoms: C_96  and  C_97
REMARK   60  A    between atoms: C_97  and  C_98
REMARK   61  A    between atoms: C_98  and  C_99
REMARK   62  A    between atoms: C_99  and  C_100
REMARK   63  A    between atoms: C_100  and  C_101
REMARK   64  A    between atoms: C_101  and  C_102
REMARK   65  A    between atoms: C_102  and  C_103
REMARK   66  A    between atoms: C_103  and  C_104
REMARK                            x       y       z     vdW  Elec       q    Type
REMARK                         _______ _______ _______ _____ _____    ______ ____
ROOT
ATOM      1 NA   UNL     1      -3.473  -2.197  -1.018  0.00  0.00    +0.000 Na
ENDROOT
TORSDOF 0
REMARK  Name = 
REMARK  66 active torsions:
REMARK  status: ('A' for Active; 'I' for Inactive)
REMARK    1  A    between atoms: C_5  and  C_6
REMARK    2  A    between atoms: C_6  and  C_7
REMARK    3  A    between atoms: C_7  and  C_8
REMARK    4  A    between atoms: C_8  and  C_9
REMARK    5  A    between atoms: C_9  and  C_10
REMARK    6  A    between atoms: C_10  and  C_11
REMARK    7  A    between atoms: C_11  and  C_12
REMARK    8  A    between atoms: C_12  and  C_13
REMARK    9  A    between atoms: C_13  and  C_14
REMARK   10  A    between atoms: C_14  and  C_15
REMARK   11  A    between atoms: C_15  and  C_16
REMARK   12  A    between atoms: C_16  and  C_18
REMARK   13  A    between atoms: C_18  and  C_19
REMARK   14  A    between atoms: N_21  and  C_22
REMARK   15  A    between atoms: C_24  and  O_26
REMARK   16  A    between atoms: O_26  and  P_27
REMARK   17  A    between atoms: C_32  and  C_34
REMARK   18  A    between atoms: C_34  and  O_35
REMARK   19  A    between atoms: O_35  and  C_36
REMARK   20  A    between atoms: C_39  and  C_41
REMARK   21  A    between atoms: C_41  and  O_42
REMARK   22  A    between atoms: O_42  and  C_43
REMARK   23  A    between atoms: C_44  and  O_46
REMARK   24  A    between atoms: O_46  and  P_47
REMARK   25  A    between atoms: C_51  and  O_53
REMARK   26  A    between atoms: O_53  and  C_54
REMARK   27  A    between atoms: C_54  and  C_55
REMARK   28  A    between atoms: C_55  and  C_56
REMARK   29  A    between atoms: C_56  and  C_58
REMARK   30  A    between atoms: C_56  and  O_65
REMARK   31  A    between atoms: C_58  and  C_59
REMARK   32  A    between atoms: C_59  and  C_60
REMARK   33  A    between atoms: C_60  and  C_61
REMARK   34  A    between atoms: C_61  and  C_62
REMARK   35  A    between atoms: C_62  and  C_63
REMARK   36  A    between atoms: C_63  and  C_64
REMARK   37  A    between atoms: O_65  and  C_66
REMARK   38  A    between atoms: C_67  and  N_69
REMARK   39  A    between atoms: C_70  and  C_72
REMARK   40  A    between atoms: C_72  and  C_73
REMARK   41  A    between atoms: C_73  and  C_74
REMARK   42  A    between atoms: C_74  and  C_75
REMARK   43  A    between atoms: C_75  and  C_76
REMARK   44  A    between atoms: C_76  and  C_77
REMARK   45  A    between atoms: C_77  and  C_78
REMARK   46  A    between atoms: C_78  and  C_79
REMARK   47  A    between atoms: C_79  and  C_80
REMARK   48  A    between atoms: C_80  and  C_81
REMARK   49  A    between atoms: C_82  and  C_83
REMARK   50  A    between atoms: C_83  and  C_84
REMARK   51  A    between atoms: C_84  and  C_85
REMARK   52  A    between atoms: C_85  and  C_86
REMARK   53  A    between atoms: C_86  and  C_87
REMARK   54  A    between atoms: C_87  and  C_88
REMARK   55  A    between atoms: C_89  and  O_91
REMARK   56  A    between atoms: C_92  and  O_94
REMARK   57  A    between atoms: O_94  and  C_95
REMARK   58  A    between atoms: C_95  and  C_96
REMARK   59  A    between atoms: C_96  and  C_97
REMARK   60  A    between atoms: C_97  and  C_98
REMARK   61  A    between atoms: C_98  and  C_99
REMARK   62  A    between atoms: C_99  and  C_100
REMARK   63  A    between atoms: C_100  and  C_101
REMARK   64  A    between atoms: C_101  and  C_102
REMARK   65  A    between atoms: C_102  and  C_103
REMARK   66  A    between atoms: C_103  and  C_104
REMARK                            x       y       z     vdW  Elec       q    Type
REMARK                         _______ _______ _______ _____ _____    ______ ____
ROOT
ATOM      1 NA   UNL     1       5.071  -2.145  -2.913  0.00  0.00    +0.000 Na
ENDROOT
TORSDOF 0
REMARK  Name = 
REMARK  66 active torsions:
REMARK  status: ('A' for Active; 'I' for Inactive)
REMARK    1  A    between atoms: C_5  and  C_6
REMARK    2  A    between atoms: C_6  and  C_7
REMARK    3  A    between atoms: C_7  and  C_8
REMARK    4  A    between atoms: C_8  and  C_9
REMARK    5  A    between atoms: C_9  and  C_10
REMARK    6  A    between atoms: C_10  and  C_11
REMARK    7  A    between atoms: C_11  and  C_12
REMARK    8  A    between atoms: C_12  and  C_13
REMARK    9  A    between atoms: C_13  and  C_14
REMARK   10  A    between atoms: C_14  and  C_15
REMARK   11  A    between atoms: C_15  and  C_16
REMARK   12  A    between atoms: C_16  and  C_18
REMARK   13  A    between atoms: C_18  and  C_19
REMARK   14  A    between atoms: N_21  and  C_22
REMARK   15  A    between atoms: C_24  and  O_26
REMARK   16  A    between atoms: O_26  and  P_27
REMARK   17  A    between atoms: C_32  and  C_34
REMARK   18  A    between atoms: C_34  and  O_35
REMARK   19  A    between atoms: O_35  and  C_36
REMARK   20  A    between atoms: C_39  and  C_41
REMARK   21  A    between atoms: C_41  and  O_42
REMARK   22  A    between atoms: O_42  and  C_43
REMARK   23  A    between atoms: C_44  and  O_46
REMARK   24  A    between atoms: O_46  and  P_47
REMARK   25  A    between atoms: C_51  and  O_53
REMARK   26  A    between atoms: O_53  and  C_54
REMARK   27  A    between atoms: C_54  and  C_55
REMARK   28  A    between atoms: C_55  and  C_56
REMARK   29  A    between atoms: C_56  and  C_58
REMARK   30  A    between atoms: C_56  and  O_65
REMARK   31  A    between atoms: C_58  and  C_59
REMARK   32  A    between atoms: C_59  and  C_60
REMARK   33  A    between atoms: C_60  and  C_61
REMARK   34  A    between atoms: C_61  and  C_62
REMARK   35  A    between atoms: C_62  and  C_63
REMARK   36  A    between atoms: C_63  and  C_64
REMARK   37  A    between atoms: O_65  and  C_66
REMARK   38  A    between atoms: C_67  and  N_69
REMARK   39  A    between atoms: C_70  and  C_72
REMARK   40  A    between atoms: C_72  and  C_73
REMARK   41  A    between atoms: C_73  and  C_74
REMARK   42  A    between atoms: C_74  and  C_75
REMARK   43  A    between atoms: C_75  and  C_76
REMARK   44  A    between atoms: C_76  and  C_77
REMARK   45  A    between atoms: C_77  and  C_78
REMARK   46  A    between atoms: C_78  and  C_79
REMARK   47  A    between atoms: C_79  and  C_80
REMARK   48  A    between atoms: C_80  and  C_81
REMARK   49  A    between atoms: C_82  and  C_83
REMARK   50  A    between atoms: C_83  and  C_84
REMARK   51  A    between atoms: C_84  and  C_85
REMARK   52  A    between atoms: C_85  and  C_86
REMARK   53  A    between atoms: C_86  and  C_87
REMARK   54  A    between atoms: C_87  and  C_88
REMARK   55  A    between atoms: C_89  and  O_91
REMARK   56  A    between atoms: C_92  and  O_94
REMARK   57  A    between atoms: O_94  and  C_95
REMARK   58  A    between atoms: C_95  and  C_96
REMARK   59  A    between atoms: C_96  and  C_97
REMARK   60  A    between atoms: C_97  and  C_98
REMARK   61  A    between atoms: C_98  and  C_99
REMARK   62  A    between atoms: C_99  and  C_100
REMARK   63  A    between atoms: C_100  and  C_101
REMARK   64  A    between atoms: C_101  and  C_102
REMARK   65  A    between atoms: C_102  and  C_103
REMARK   66  A    between atoms: C_103  and  C_104
REMARK                            x       y       z     vdW  Elec       q    Type
REMARK                         _______ _______ _______ _____ _____    ______ ____
ROOT
ATOM      1 NA   UNL     1       0.918   4.922  -0.946  0.00  0.00    +0.000 Na
ENDROOT
TORSDOF 0
REMARK  Name = 
REMARK  66 active torsions:
REMARK  status: ('A' for Active; 'I' for Inactive)
REMARK    1  A    between atoms: C_5  and  C_6
REMARK    2  A    between atoms: C_6  and  C_7
REMARK    3  A    between atoms: C_7  and  C_8
REMARK    4  A    between atoms: C_8  and  C_9
REMARK    5  A    between atoms: C_9  and  C_10
REMARK    6  A    between atoms: C_10  and  C_11
REMARK    7  A    between atoms: C_11  and  C_12
REMARK    8  A    between atoms: C_12  and  C_13
REMARK    9  A    between atoms: C_13  and  C_14
REMARK   10  A    between atoms: C_14  and  C_15
REMARK   11  A    between atoms: C_15  and  C_16
REMARK   12  A    between atoms: C_16  and  C_18
REMARK   13  A    between atoms: C_18  and  C_19
REMARK   14  A    between atoms: N_21  and  C_22
REMARK   15  A    between atoms: C_24  and  O_26
REMARK   16  A    between atoms: O_26  and  P_27
REMARK   17  A    between atoms: C_32  and  C_34
REMARK   18  A    between atoms: C_34  and  O_35
REMARK   19  A    between atoms: O_35  and  C_36
REMARK   20  A    between atoms: C_39  and  C_41
REMARK   21  A    between atoms: C_41  and  O_42
REMARK   22  A    between atoms: O_42  and  C_43
REMARK   23  A    between atoms: C_44  and  O_46
REMARK   24  A    between atoms: O_46  and  P_47
REMARK   25  A    between atoms: C_51  and  O_53
REMARK   26  A    between atoms: O_53  and  C_54
REMARK   27  A    between atoms: C_54  and  C_55
REMARK   28  A    between atoms: C_55  and  C_56
REMARK   29  A    between atoms: C_56  and  C_58
REMARK   30  A    between atoms: C_56  and  O_65
REMARK   31  A    between atoms: C_58  and  C_59
REMARK   32  A    between atoms: C_59  and  C_60
REMARK   33  A    between atoms: C_60  and  C_61
REMARK   34  A    between atoms: C_61  and  C_62
REMARK   35  A    between atoms: C_62  and  C_63
REMARK   36  A    between atoms: C_63  and  C_64
REMARK   37  A    between atoms: O_65  and  C_66
REMARK   38  A    between atoms: C_67  and  N_69
REMARK   39  A    between atoms: C_70  and  C_72
REMARK   40  A    between atoms: C_72  and  C_73
REMARK   41  A    between atoms: C_73  and  C_74
REMARK   42  A    between atoms: C_74  and  C_75
REMARK   43  A    between atoms: C_75  and  C_76
REMARK   44  A    between atoms: C_76  and  C_77
REMARK   45  A    between atoms: C_77  and  C_78
REMARK   46  A    between atoms: C_78  and  C_79
REMARK   47  A    between atoms: C_79  and  C_80
REMARK   48  A    between atoms: C_80  and  C_81
REMARK   49  A    between atoms: C_82  and  C_83
REMARK   50  A    between atoms: C_83  and  C_84
REMARK   51  A    between atoms: C_84  and  C_85
REMARK   52  A    between atoms: C_85  and  C_86
REMARK   53  A    between atoms: C_86  and  C_87
REMARK   54  A    between atoms: C_87  and  C_88
REMARK   55  A    between atoms: C_89  and  O_91
REMARK   56  A    between atoms: C_92  and  O_94
REMARK   57  A    between atoms: O_94  and  C_95
REMARK   58  A    between atoms: C_95  and  C_96
REMARK   59  A    between atoms: C_96  and  C_97
REMARK   60  A    between atoms: C_97  and  C_98
REMARK   61  A    between atoms: C_98  and  C_99
REMARK   62  A    between atoms: C_99  and  C_100
REMARK   63  A    between atoms: C_100  and  C_101
REMARK   64  A    between atoms: C_101  and  C_102
REMARK   65  A    between atoms: C_102  and  C_103
REMARK   66  A    between atoms: C_103  and  C_104
REMARK                            x       y       z     vdW  Elec       q    Type
REMARK                         _______ _______ _______ _____ _____    ______ ____
ROOT
ATOM      1 NA   UNL     1       2.569  -0.841   4.814  0.00  0.00    +0.000 Na
ENDROOT
TORSDOF 0
REMARK  Name = 
REMARK  66 active torsions:
REMARK  status: ('A' for Active; 'I' for Inactive)
REMARK    1  A    between atoms: C_5  and  C_6
REMARK    2  A    between atoms: C_6  and  C_7
REMARK    3  A    between atoms: C_7  and  C_8
REMARK    4  A    between atoms: C_8  and  C_9
REMARK    5  A    between atoms: C_9  and  C_10
REMARK    6  A    between atoms: C_10  and  C_11
REMARK    7  A    between atoms: C_11  and  C_12
REMARK    8  A    between atoms: C_12  and  C_13
REMARK    9  A    between atoms: C_13  and  C_14
REMARK   10  A    between atoms: C_14  and  C_15
REMARK   11  A    between atoms: C_15  and  C_16
REMARK   12  A    between atoms: C_16  and  C_18
REMARK   13  A    between atoms: C_18  and  C_19
REMARK   14  A    between atoms: N_21  and  C_22
REMARK   15  A    between atoms: C_24  and  O_26
REMARK   16  A    between atoms: O_26  and  P_27
REMARK   17  A    between atoms: C_32  and  C_34
REMARK   18  A    between atoms: C_34  and  O_35
REMARK   19  A    between atoms: O_35  and  C_36
REMARK   20  A    between atoms: C_39  and  C_41
REMARK   21  A    between atoms: C_41  and  O_42
REMARK   22  A    between atoms: O_42  and  C_43
REMARK   23  A    between atoms: C_44  and  O_46
REMARK   24  A    between atoms: O_46  and  P_47
REMARK   25  A    between atoms: C_51  and  O_53
REMARK   26  A    between atoms: O_53  and  C_54
REMARK   27  A    between atoms: C_54  and  C_55
REMARK   28  A    between atoms: C_55  and  C_56
REMARK   29  A    between atoms: C_56  and  C_58
REMARK   30  A    between atoms: C_56  and  O_65
REMARK   31  A    between atoms: C_58  and  C_59
REMARK   32  A    between atoms: C_59  and  C_60
REMARK   33  A    between atoms: C_60  and  C_61
REMARK   34  A    between atoms: C_61  and  C_62
REMARK   35  A    between atoms: C_62  and  C_63
REMARK   36  A    between atoms: C_63  and  C_64
REMARK   37  A    between atoms: O_65  and  C_66
REMARK   38  A    between atoms: C_67  and  N_69
REMARK   39  A    between atoms: C_70  and  C_72
REMARK   40  A    between atoms: C_72  and  C_73
REMARK   41  A    between atoms: C_73  and  C_74
REMARK   42  A    between atoms: C_74  and  C_75
REMARK   43  A    between atoms: C_75  and  C_76
REMARK   44  A    between atoms: C_76  and  C_77
REMARK   45  A    between atoms: C_77  and  C_78
REMARK   46  A    between atoms: C_78  and  C_79
REMARK   47  A    between atoms: C_79  and  C_80
REMARK   48  A    between atoms: C_80  and  C_81
REMARK   49  A    between atoms: C_82  and  C_83
REMARK   50  A    between atoms: C_83  and  C_84
REMARK   51  A    between atoms: C_84  and  C_85
REMARK   52  A    between atoms: C_85  and  C_86
REMARK   53  A    between atoms: C_86  and  C_87
REMARK   54  A    between atoms: C_87  and  C_88
REMARK   55  A    between atoms: C_89  and  O_91
REMARK   56  A    between atoms: C_92  and  O_94
REMARK   57  A    between atoms: O_94  and  C_95
REMARK   58  A    between atoms: C_95  and  C_96
REMARK   59  A    between atoms: C_96  and  C_97
REMARK   60  A    between atoms: C_97  and  C_98
REMARK   61  A    between atoms: C_98  and  C_99
REMARK   62  A    between atoms: C_99  and  C_100
REMARK   63  A    between atoms: C_100  and  C_101
REMARK   64  A    between atoms: C_101  and  C_102
REMARK   65  A    between atoms: C_102  and  C_103
REMARK   66  A    between atoms: C_103  and  C_104
REMARK                            x       y       z     vdW  Elec       q    Type
REMARK                         _______ _______ _______ _____ _____    ______ ____
ROOT
ATOM      1  C   UNL     1      21.228  -3.436   3.426  0.00  0.00    +0.000 C 
ATOM      2  C   UNL     1      21.637  -1.947   3.549  0.00  0.00    +0.000 C 
ATOM      3  C   UNL     1      21.002  -1.132   2.399  0.00  0.00    +0.000 C 
ATOM      4  C   UNL     1      21.165  -1.842   1.023  0.00  0.00    +0.000 C 
ATOM      5  C   UNL     1      21.040  -3.372   1.044  0.00  0.00    +0.000 C 
ATOM      6  O   UNL     1      21.754  -3.907   2.178  0.00  0.00    +0.000 OA
ENDROOT
BRANCH   2   7
ATOM      7  N   UNL     1      21.591  -1.285   4.884  0.00  0.00    +0.000 N 
ATOM      8  H   UNL     1      22.489  -1.079   5.290  0.00  0.00    +0.000 HD
ATOM      9  C   UNL     1      20.461  -0.843   5.553  0.00  0.00    +0.000 C 
ATOM     10  O   UNL     1      19.327  -1.057   5.169  0.00  0.00    +0.000 OA
BRANCH   9  11
ATOM     11  C   UNL     1      20.780  -0.146   6.876  0.00  0.00    +0.000 C 
BRANCH  11  12
ATOM     12  C   UNL     1      19.723   0.827   7.429  0.00  0.00    +0.000 C 
BRANCH  12  13
ATOM     13  C   UNL     1      18.362   0.300   7.882  0.00  0.00    +0.000 C 
BRANCH  13  14
ATOM     14  C   UNL     1      18.345  -0.664   9.062  0.00  0.00    +0.000 C 
BRANCH  14  15
ATOM     15  C   UNL     1      18.936  -0.132  10.369  0.00  0.00    +0.000 C 
BRANCH  15  16
ATOM     16  C   UNL     1      18.828  -1.243  11.406  0.00  0.00    +0.000 C 
BRANCH  16  17
ATOM     17  C   UNL     1      19.482  -0.917  12.743  0.00  0.00    +0.000 C 
BRANCH  17  18
ATOM     18  C   UNL     1      19.435  -2.136  13.671  0.00  0.00    +0.000 C 
BRANCH  18  19
ATOM     19  C   UNL     1      20.069  -3.397  13.074  0.00  0.00    +0.000 C 
BRANCH  19  20
ATOM     20  C   UNL     1      21.533  -3.206  12.783  0.00  0.00    +0.000 C 
ATOM     21  C   UNL     1      22.507  -3.973  13.288  0.00  0.00    +0.000 C 
BRANCH  21  22
ATOM     22  C   UNL     1      22.193  -5.149  14.152  0.00  0.00    +0.000 C 
BRANCH  22  23
ATOM     23  C   UNL     1      23.427  -5.863  14.658  0.00  0.00    +0.000 C 
BRANCH  23  24
ATOM     24  C   UNL     1      22.989  -7.062  15.484  0.00  0.00    +0.000 C 
BRANCH  24  25
ATOM     25  C   UNL     1      24.203  -7.805  16.010  0.00  0.00    +0.000 C 
BRANCH  25  26
ATOM     26  C   UNL     1      23.787  -9.014  16.836  0.00  0.00    +0.000 C 
ATOM     27  C   UNL     1      25.013  -9.742  17.353  0.00  0.00    +0.000 C 
ENDBRANCH  25  26
ENDBRANCH  24  25
ENDBRANCH  23  24
ENDBRANCH  22  23
ENDBRANCH  21  22
ENDBRANCH  19  20
ENDBRANCH  18  19
ENDBRANCH  17  18
ENDBRANCH  16  17
ENDBRANCH  15  16
ENDBRANCH  14  15
ENDBRANCH  13  14
ENDBRANCH  12  13
ENDBRANCH  11  12
ENDBRANCH   9  11
ENDBRANCH   2   7
BRANCH   3  28
ATOM     28  O   UNL     1      21.505   0.238   2.381  0.00  0.00    +0.000 OA
BRANCH  28  29
ATOM     29  C   UNL     1      22.898   0.492   2.402  0.00  0.00    +0.000 C 
BRANCH  29  30
ATOM     30  C   UNL     1      23.686   0.235   1.121  0.00  0.00    +0.000 C 
BRANCH  30  31
ATOM     31  C   UNL     1      23.040   0.847  -0.122  0.00  0.00    +0.000 C 
BRANCH  31  32
ATOM     32  O   UNL     1      23.763   0.369  -1.273  0.00  0.00    +0.000 OA
ATOM     33  C   UNL     1      22.973   0.410  -2.465  0.00  0.00    +0.000 C 
ENDBRANCH  31  32
BRANCH  31  34
ATOM     34  C   UNL     1      22.960   2.384  -0.082  0.00  0.00    +0.000 C 
BRANCH  34  35
ATOM     35  C   UNL     1      24.252   3.171  -0.325  0.00  0.00    +0.000 C 
BRANCH  35  36
ATOM     36  C   UNL     1      25.375   3.270   0.727  0.00  0.00    +0.000 C 
BRANCH  36  37
ATOM     37  C   UNL     1      25.244   4.198   1.949  0.00  0.00    +0.000 C 
BRANCH  37  38
ATOM     38  C   UNL     1      24.698   3.675   3.287  0.00  0.00    +0.000 C 
BRANCH  38  39
ATOM     39  C   UNL     1      25.444   2.476   3.886  0.00  0.00    +0.000 C 
ATOM     40  C   UNL     1      24.932   2.115   5.281  0.00  0.00    +0.000 C 
ENDBRANCH  38  39
ENDBRANCH  37  38
ENDBRANCH  36  37
ENDBRANCH  35  36
ENDBRANCH  34  35
ENDBRANCH  31  34
ENDBRANCH  30  31
ENDBRANCH  29  30
ENDBRANCH  28  29
ENDBRANCH   3  28
BRANCH   4  41
ATOM     41  O   UNL     1      20.475  -1.164  -0.017  0.00  0.00    +0.000 OA
BRANCH  41  42
ATOM     42  P   UNL     1      18.933  -1.441  -0.377  0.00  0.00    +0.000 P 
ATOM     43  O   UNL     1      18.288  -1.800   0.958  0.00  0.00    -0.660 OA
ATOM     44  O   UNL     1      18.995  -2.602  -1.363  0.00  0.00    -0.660 OA
ATOM     45  O   UNL     1      18.448  -0.129  -0.970  0.00  0.00    -0.660 OA
ENDBRANCH  41  42
ENDBRANCH   4  41
BRANCH   5  46
ATOM     46  C   UNL     1      21.753  -3.963  -0.203  0.00  0.00    +0.000 C 
BRANCH  46  47
ATOM     47  O   UNL     1      21.750  -5.400  -0.300  0.00  0.00    +0.000 OA
ATOM     48  C   UNL     1      20.432  -5.934  -0.325  0.00  0.00    +0.000 C 
ENDBRANCH  46  47
ENDBRANCH   5  46
BRANCH   1  49
ATOM     49  O   UNL     1      21.880  -4.262   4.391  0.00  0.00    +0.000 OA
BRANCH  49  50
ATOM     50  C   UNL     1      21.387  -4.229   5.719  0.00  0.00    +0.000 C 
BRANCH  50  54
ATOM     51  C   UNL     1      18.935  -6.344   7.774  0.00  0.00    +0.000 C 
ATOM     52  C   UNL     1      19.538  -5.046   8.310  0.00  0.00    +0.000 C 
ATOM     53  C   UNL     1      19.435  -3.936   7.271  0.00  0.00    +0.000 C 
ATOM     54  C   UNL     1      19.873  -4.407   5.864  0.00  0.00    +0.000 C 
ATOM     55  O   UNL     1      19.489  -5.740   5.489  0.00  0.00    +0.000 OA
ATOM     56  C   UNL     1      19.681  -6.750   6.493  0.00  0.00    +0.000 C 
BRANCH  51  58
ATOM     57  C   UNL     1      16.643  -5.871   6.732  0.00  0.00    +0.000 C 
ATOM     58  N   UNL     1      17.461  -6.457   7.664  0.00  0.00    +0.000 N 
ATOM     59  H   UNL     1      17.304  -7.495   7.719  0.00  0.00    +0.000 HD
ATOM     60  O   UNL     1      16.974  -4.982   5.932  0.00  0.00    +0.000 OA
BRANCH  57  61
ATOM     61  C   UNL     1      15.202  -6.254   6.841  0.00  0.00    +0.000 C 
BRANCH  61  62
ATOM     62  C   UNL     1      14.708  -7.310   5.897  0.00  0.00    +0.000 C 
ATOM     63  O   UNL     1      13.502  -7.340   5.600  0.00  0.00    +0.000 OA
BRANCH  62  64
ATOM     64  C   UNL     1      15.664  -8.404   5.482  0.00  0.00    +0.000 C 
BRANCH  64  65
ATOM     65  C   UNL     1      15.144  -9.171   4.282  0.00  0.00    +0.000 C 
BRANCH  65  66
ATOM     66  C   UNL     1      16.143 -10.247   3.883  0.00  0.00    +0.000 C 
BRANCH  66  67
ATOM     67  C   UNL     1      15.651 -11.012   2.665  0.00  0.00    +0.000 C 
BRANCH  67  68
ATOM     68  C   UNL     1      16.650 -12.097   2.295  0.00  0.00    +0.000 C 
BRANCH  68  69
ATOM     69  C   UNL     1      16.169 -12.875   1.079  0.00  0.00    +0.000 C 
BRANCH  69  70
ATOM     70  C   UNL     1      17.174 -13.960   0.719  0.00  0.00    +0.000 C 
BRANCH  70  71
ATOM     71  C   UNL     1      16.706 -14.749  -0.497  0.00  0.00    +0.000 C 
BRANCH  71  72
ATOM     72  C   UNL     1      17.717 -15.834  -0.850  0.00  0.00    +0.000 C 
BRANCH  72  74
ATOM     73  C   UNL     1      18.270 -17.710  -2.419  0.00  0.00    +0.000 C 
ATOM     74  C   UNL     1      17.261 -16.632  -2.067  0.00  0.00    +0.000 C 
ENDBRANCH  72  74
ENDBRANCH  71  72
ENDBRANCH  70  71
ENDBRANCH  69  70
ENDBRANCH  68  69
ENDBRANCH  67  68
ENDBRANCH  66  67
ENDBRANCH  65  66
ENDBRANCH  64  65
ENDBRANCH  62  64
ENDBRANCH  61  62
ENDBRANCH  57  61
ENDBRANCH  51  58
BRANCH  53  75
ATOM     75  O   UNL     1      18.131  -3.343   7.284  0.00  0.00    +0.000 OA
ATOM     76  H   UNL     1      17.670  -3.702   6.486  0.00  0.00    +0.000 HD
ENDBRANCH  53  75
BRANCH  56  77
ATOM     77  O   UNL     1      19.283  -8.026   6.039  0.00  0.00    +0.000 OA
BRANCH  77  78
ATOM     78  P   UNL     1      19.518  -9.303   7.183  0.00  0.00    +0.000 P 
ATOM     79  O   UNL     1      19.729 -10.445   8.207  0.00  0.00    -0.660 OA
ATOM     80  O   UNL     1      19.643 -10.217   5.951  0.00  0.00    -0.660 OA
ATOM     81  O   UNL     1      18.093  -8.941   7.703  0.00  0.00    -0.660 OA
ENDBRANCH  77  78
ENDBRANCH  56  77
BRANCH  52  82
ATOM     82  O   UNL     1      20.965  -5.204   8.587  0.00  0.00    +0.000 OA
BRANCH  82  83
ATOM     83  C   UNL     1      21.326  -5.907   9.774  0.00  0.00    +0.000 C 
BRANCH  83  84
ATOM     84  C   UNL     1      21.623  -7.409   9.625  0.00  0.00    +0.000 C 
BRANCH  84  85
ATOM     85  C   UNL     1      22.672  -7.830   8.584  0.00  0.00    +0.000 C 
BRANCH  85  86
ATOM     86  C   UNL     1      24.109  -7.530   9.011  0.00  0.00    +0.000 C 
BRANCH  86  87
ATOM     87  C   UNL     1      25.173  -7.978   7.998  0.00  0.00    +0.000 C 
BRANCH  87  88
ATOM     88  C   UNL     1      25.048  -7.398   6.588  0.00  0.00    +0.000 C 
BRANCH  88  89
ATOM     89  C   UNL     1      25.002  -5.870   6.562  0.00  0.00    +0.000 C 
BRANCH  89  90
ATOM     90  C   UNL     1      24.948  -5.357   5.127  0.00  0.00    +0.000 C 
BRANCH  90  91
ATOM     91  C   UNL     1      24.948  -3.831   5.088  0.00  0.00    +0.000 C 
ATOM     92  C   UNL     1      24.965  -3.330   3.656  0.00  0.00    +0.000 C 
ENDBRANCH  90  91
ENDBRANCH  89  90
ENDBRANCH  88  89
ENDBRANCH  87  88
ENDBRANCH  86  87
ENDBRANCH  85  86
ENDBRANCH  84  85
ENDBRANCH  83  84
ENDBRANCH  82  83
ENDBRANCH  52  82
ENDBRANCH  50  54
ENDBRANCH  49  50
ENDBRANCH   1  49
TORSDOF 60
