REMARK  Name = 
REMARK  1 active torsions:
REMARK  status: ('A' for Active; 'I' for Inactive)
REMARK    1  A    between atoms: O_1  and  C_2
REMARK                            x       y       z     vdW  Elec       q    Type
REMARK                         _______ _______ _______ _____ _____    ______ ____
ROOT
ATOM      1  C   UNL     1       2.476   0.020  -0.097  0.00  0.00    +0.156 A 
ATOM      2  C   UNL     1       3.192   1.227  -0.104  0.00  0.00    +0.115 A 
ATOM      3  N   UNL     1       2.535   2.410  -0.117  0.00  0.00    -0.251 NA
ATOM      4  C   UNL     1       3.239   3.559  -0.130  0.00  0.00    +0.111 A 
ATOM      5  C   UNL     1       4.614   3.606  -0.130  0.00  0.00    +0.020 A 
ATOM      6  C   UNL     1       5.301   2.399  -0.113  0.00  0.00    +0.013 A 
ATOM      7  C   UNL     1       4.605   1.168  -0.101  0.00  0.00    +0.022 A 
ATOM      8  C   UNL     1       5.243  -0.098  -0.087  0.00  0.00    +0.051 A 
ATOM      9 CL   UNL     1       6.970  -0.255  -0.074  0.00  0.00    -0.083 Cl
ATOM     10  C   UNL     1       4.507  -1.283  -0.084  0.00  0.00    +0.038 A 
ATOM     11  C   UNL     1       3.121  -1.222  -0.091  0.00  0.00    +0.058 A 
ATOM     12  I   UNL     1       2.046  -3.015  -0.098  0.00  0.00    -0.040 I 
ENDROOT
BRANCH   1  13
ATOM     13  O   UNL     1       1.098   0.084  -0.097  0.00  0.00    -0.504 OA
ATOM     14  H   UNL     1       0.747  -0.822  -0.085  0.00  0.00    +0.292 HD
ENDBRANCH   1  13
TORSDOF 1
