REMARK  Name = 
REMARK  15 active torsions:
REMARK  status: ('A' for Active; 'I' for Inactive)
REMARK    1  A    between atoms: N_1  and  CA_2
REMARK    2  A    between atoms: CA_2  and  CB_4
REMARK    3  A    between atoms: CA_2  and  C_43
REMARK    4  A    between atoms: CB_4  and  OG_5
REMARK    5  A    between atoms: OG_5  and  C_6
REMARK    6  A    between atoms: C_6  and  C_8
REMARK    7  A    between atoms: C_8  and  N_10
REMARK    8  A    between atoms: C_8  and  C_19
REMARK    9  A    between atoms: C_11  and  C_13
REMARK   10  A    between atoms: C_13  and  C_14
REMARK   11  A    between atoms: CA_22  and  C_23
REMARK   12  A    between atoms: C_26  and  C_29
REMARK   13  A    between atoms: C_30  and  C_31
REMARK   14  A    between atoms: C_34  and  N_40
REMARK   15  A    between atoms: C_36  and  N_37
REMARK                            x       y       z     vdW  Elec       q    Type
REMARK                         _______ _______ _______ _____ _____    ______ ____
ROOT
ATOM      1  C   UNL     1       3.023   5.443  -2.572  0.00  0.00    +0.160 C 
ATOM      2  S   UNL     1       1.931   6.548  -1.613  0.00  0.00    -0.131 S 
ATOM      3  C   UNL     1       2.758   8.077  -2.034  0.00  0.00    +0.108 C 
ATOM      4  C   UNL     1       3.124   8.287  -3.492  0.00  0.00    -0.015 C 
ATOM      5  CA  UNL     1       3.229   7.250  -4.359  0.00  0.00    +0.055 C 
ATOM      6  N   UNL     1       2.967   5.933  -3.933  0.00  0.00    -0.329 N 
ATOM      7  H   UNL     1       3.132   5.280  -4.711  0.00  0.00    +0.147 HD
ENDROOT
BRANCH   5   8
ATOM      8  C   UNL     1       3.634   7.357  -5.940  0.00  0.00    +0.086 C 
ATOM      9  OXT UNL     1       4.268   8.383  -6.308  0.00  0.00    -0.543 OA
ATOM     10  O   UNL     1       3.331   6.305  -6.589  0.00  0.00    -0.543 OA
ENDBRANCH   5   8
BRANCH   4  11
ATOM     11  C   UNL     1       3.286   9.694  -3.874  0.00  0.00    +0.007 C 
ATOM     12  C   UNL     1       3.294  10.725  -3.012  0.00  0.00    +0.015 C 
BRANCH  12  13
ATOM     13  C   UNL     1       3.304  12.118  -3.440  0.00  0.00    +0.053 A 
ATOM     14  C   UNL     1       2.133  12.877  -3.582  0.00  0.00    +0.287 A 
ATOM     15  C   UNL     1       2.168  14.235  -3.921  0.00  0.00    +0.169 A 
ATOM     16  C   UNL     1       3.415  14.840  -4.101  0.00  0.00    +0.280 A 
ATOM     17  C   UNL     1       4.600  14.097  -3.984  0.00  0.00    +0.085 A 
ATOM     18  C   UNL     1       4.539  12.738  -3.664  0.00  0.00    +0.021 A 
BRANCH  14  19
ATOM     19  N   UNL     1       0.831  12.297  -3.301  0.00  0.00    +0.080 N 
ATOM     20  O   UNL     1       0.008  12.293  -4.227  0.00  0.00    +0.041 OA
ATOM     21  O   UNL     1       0.604  11.966  -2.129  0.00  0.00    -0.576 OA
ENDBRANCH  14  19
BRANCH  16  22
ATOM     22  N   UNL     1       3.487  16.281  -4.369  0.00  0.00    +0.080 N 
ATOM     23  O   UNL     1       2.418  16.900  -4.475  0.00  0.00    +0.041 OA
ATOM     24  O   UNL     1       4.609  16.800  -4.448  0.00  0.00    -0.576 OA
ENDBRANCH  16  22
ENDBRANCH  12  13
ENDBRANCH   4  11
BRANCH   1  25
ATOM     25  C   UNL     1       2.544   3.978  -2.500  0.00  0.00    +0.212 C 
BRANCH  25  26
ATOM     26  N   UNL     1       1.129   3.833  -2.875  0.00  0.00    -0.300 N 
ATOM     27  H   UNL     1       0.555   4.666  -2.783  0.00  0.00    +0.150 HD
ATOM     28  C   UNL     1       0.672   2.778  -3.624  0.00  0.00    +0.219 C 
ATOM     29  O   UNL     1       1.411   1.894  -4.050  0.00  0.00    -0.275 OA
BRANCH  28  30
ATOM     30  C   UNL     1      -0.825   2.781  -3.880  0.00  0.00    +0.138 C 
BRANCH  30  31
ATOM     31  C   UNL     1      -1.210   3.890  -4.815  0.00  0.00    -0.001 A 
ATOM     32  S   UNL     1      -2.790   4.558  -4.732  0.00  0.00    -0.101 S 
ATOM     33  C   UNL     1      -2.457   5.675  -5.980  0.00  0.00    +0.045 A 
ATOM     34  C   UNL     1      -1.175   5.536  -6.468  0.00  0.00    +0.008 A 
ATOM     35  C   UNL     1      -0.462   4.499  -5.804  0.00  0.00    +0.011 A 
ENDBRANCH  30  31
ENDBRANCH  28  30
ENDBRANCH  25  26
BRANCH  25  36
ATOM     36  C   UNL     1       2.755   3.402  -1.094  0.00  0.00    +0.330 C 
ATOM     37  O   UNL     1       2.651   4.000  -0.030  0.00  0.00    -0.249 OA
BRANCH  36  38
ATOM     38  OG  UNL     1       2.945   2.058  -1.183  0.00  0.00    -0.461 OA
BRANCH  38  39
ATOM     39  CB  UNL     1       2.176   1.284  -0.238  0.00  0.00    +0.256 C 
BRANCH  39  40
ATOM     40  CA  UNL     1       1.485   0.182  -1.049  0.00  0.00    +0.135 C 
BRANCH  40  41
ATOM     41  N   UNL     1       2.477  -0.699  -1.745  0.00  0.00    -0.320 NA
ATOM     42  H1  UNL     1       3.210  -0.084  -2.097  0.00  0.00    +0.119 HD
ATOM     43  H2  UNL     1       2.880  -1.264  -0.991  0.00  0.00    +0.119 HD
ENDBRANCH  40  41
BRANCH  40  44
ATOM     44  C   UNL     1       0.659  -0.593   0.019  0.00  0.00    +0.062 C 
ATOM     45  OXT UNL     1       1.295  -1.495   0.647  0.00  0.00    -0.548 OA
ATOM     46  O   UNL     1      -0.535  -0.200   0.166  0.00  0.00    -0.548 OA
ENDBRANCH  40  44
ENDBRANCH  39  40
ENDBRANCH  38  39
ENDBRANCH  36  38
ENDBRANCH  25  36
ENDBRANCH   1  25
TORSDOF 15
