REMARK  Name = 
REMARK  16 active torsions:
REMARK  status: ('A' for Active; 'I' for Inactive)
REMARK    1  A    between atoms: O_1  and  C_2
REMARK    2  A    between atoms: C_2  and  C_4
REMARK    3  A    between atoms: C_2  and  C_30
REMARK    4  A    between atoms: C_4  and  C_5
REMARK    5  A    between atoms: C_5  and  O_7
REMARK    6  A    between atoms: C_5  and  C_15
REMARK    7  A    between atoms: O_7  and  C_8
REMARK    8  A    between atoms: C_8  and  C_9
REMARK    9  A    between atoms: N_17  and  C_18
REMARK   10  A    between atoms: C_20  and  O_22
REMARK   11  A    between atoms: C_30  and  O_32
REMARK   12  A    between atoms: C_30  and  C_40
REMARK   13  A    between atoms: O_32  and  C_33
REMARK   14  A    between atoms: C_33  and  C_34
REMARK   15  A    between atoms: N_42  and  C_43
REMARK   16  A    between atoms: C_45  and  O_47
REMARK                            x       y       z     vdW  Elec       q    Type
REMARK                         _______ _______ _______ _____ _____    ______ ____
ROOT
ATOM      1  C   UNL     1       4.243   0.373   2.586  0.00  0.00    +0.155 C 
ENDROOT
BRANCH   1   2
ATOM      2  O   UNL     1       4.277  -0.485   3.746  0.00  0.00    -0.389 OA
ATOM      3  H   UNL     1       3.916  -1.349   3.482  0.00  0.00    +0.210 HD
ENDBRANCH   1   2
BRANCH   1   4
ATOM      4  C   UNL     1       2.842   1.027   2.585  0.00  0.00    +0.075 C 
BRANCH   4   5
ATOM      5  C   UNL     1       2.540   1.930   1.381  0.00  0.00    +0.207 C 
BRANCH   5   6
ATOM      6  C   UNL     1       1.072   2.424   1.269  0.00  0.00    +0.243 C 
ATOM      7  N   UNL     1       0.884   3.264   0.182  0.00  0.00    -0.304 N 
ATOM      8  H   UNL     1       1.715   3.536  -0.334  0.00  0.00    +0.149 HD
ATOM      9  O   UNL     1       0.189   2.132   2.066  0.00  0.00    -0.273 OA
BRANCH   7  10
ATOM     10  C   UNL     1      -0.298   4.099   0.021  0.00  0.00    +0.132 C 
ATOM     11  C   UNL     1      -0.489   4.454  -1.427  0.00  0.00    -0.022 A 
ATOM     12  C   UNL     1      -0.176   5.790  -1.686  0.00  0.00    -0.040 A 
ATOM     13  C   UNL     1      -0.152   6.282  -2.984  0.00  0.00    +0.004 A 
ATOM     14  C   UNL     1      -0.492   5.424  -4.029  0.00  0.00    +0.000 A 
ATOM     15  C   UNL     1      -0.872   4.100  -3.767  0.00  0.00    +0.000 A 
ATOM     16  C   UNL     1       0.147   6.542  -0.436  0.00  0.00    +0.069 C 
ATOM     17  C   UNL     1      -0.870   3.607  -2.459  0.00  0.00    +0.006 A 
ATOM     18  C   UNL     1      -0.126   5.509   0.678  0.00  0.00    +0.143 C 
BRANCH  18  19
ATOM     19  O   UNL     1      -1.292   5.875   1.414  0.00  0.00    -0.389 OA
ATOM     20  H   UNL     1      -2.064   5.780   0.839  0.00  0.00    +0.210 HD
ENDBRANCH  18  19
ENDBRANCH   7  10
ENDBRANCH   5   6
BRANCH   5  21
ATOM     21  O   UNL     1       3.418   3.052   1.312  0.00  0.00    -0.363 OA
BRANCH  21  22
ATOM     22  C   UNL     1       3.246   3.993   2.379  0.00  0.00    +0.196 C 
BRANCH  22  23
ATOM     23  C   UNL     1       4.233   5.114   2.212  0.00  0.00    -0.022 A 
ATOM     24  C   UNL     1       4.612   5.855   3.337  0.00  0.00    +0.006 A 
ATOM     25  C   UNL     1       5.610   6.822   3.243  0.00  0.00    +0.000 A 
ATOM     26  C   UNL     1       6.203   7.092   2.011  0.00  0.00    +0.000 A 
ATOM     27  C   UNL     1       5.790   6.400   0.873  0.00  0.00    +0.000 A 
ATOM     28  C   UNL     1       4.807   5.420   0.971  0.00  0.00    +0.006 A 
ENDBRANCH  22  23
ENDBRANCH  21  22
ENDBRANCH   5  21
ENDBRANCH   4   5
ENDBRANCH   1   4
BRANCH   1  29
ATOM     29  C   UNL     1       5.501   1.292   2.594  0.00  0.00    +0.232 C 
BRANCH  29  30
ATOM     30  C   UNL     1       6.739   0.372   2.538  0.00  0.00    +0.245 C 
ATOM     31  N   UNL     1       7.212   0.034   3.784  0.00  0.00    -0.304 N 
ATOM     32  H   UNL     1       6.693   0.403   4.580  0.00  0.00    +0.149 HD
ATOM     33  O   UNL     1       7.229  -0.024   1.485  0.00  0.00    -0.273 OA
BRANCH  31  34
ATOM     34  C   UNL     1       8.400  -0.747   4.018  0.00  0.00    +0.132 C 
ATOM     35  C   UNL     1       8.315  -1.392   5.367  0.00  0.00    -0.022 A 
ATOM     36  C   UNL     1       9.330  -0.968   6.223  0.00  0.00    -0.040 A 
ATOM     37  C   UNL     1       9.390  -1.422   7.533  0.00  0.00    +0.004 A 
ATOM     38  C   UNL     1       8.404  -2.305   7.981  0.00  0.00    +0.000 A 
ATOM     39  C   UNL     1       7.375  -2.720   7.125  0.00  0.00    +0.000 A 
ATOM     40  C   UNL     1      10.228   0.036   5.575  0.00  0.00    +0.069 C 
ATOM     41  C   UNL     1       7.327  -2.264   5.808  0.00  0.00    +0.006 A 
ATOM     42  C   UNL     1       9.701   0.115   4.124  0.00  0.00    +0.143 C 
BRANCH  42  43
ATOM     43  O   UNL     1      10.715  -0.355   3.226  0.00  0.00    -0.389 OA
ATOM     44  H   UNL     1      10.837  -1.309   3.393  0.00  0.00    +0.210 HD
ENDBRANCH  42  43
ENDBRANCH  31  34
ENDBRANCH  29  30
BRANCH  29  45
ATOM     45  O   UNL     1       5.558   2.141   3.757  0.00  0.00    -0.360 OA
BRANCH  45  46
ATOM     46  C   UNL     1       6.670   3.054   3.705  0.00  0.00    +0.196 C 
BRANCH  46  47
ATOM     47  C   UNL     1       6.804   3.878   4.966  0.00  0.00    -0.022 A 
ATOM     48  C   UNL     1       7.925   4.714   5.113  0.00  0.00    +0.006 A 
ATOM     49  C   UNL     1       8.043   5.566   6.212  0.00  0.00    +0.000 A 
ATOM     50  C   UNL     1       7.041   5.596   7.178  0.00  0.00    +0.000 A 
ATOM     51  C   UNL     1       5.934   4.757   7.058  0.00  0.00    +0.000 A 
ATOM     52  C   UNL     1       5.820   3.896   5.964  0.00  0.00    +0.006 A 
ENDBRANCH  46  47
ENDBRANCH  45  46
ENDBRANCH  29  45
ENDBRANCH   1  29
TORSDOF 16
