REMARK  Name = 
REMARK  6 active torsions:
REMARK  status: ('A' for Active; 'I' for Inactive)
REMARK    1  A    between atoms: C_1  and  C_2
REMARK    2  A    between atoms: C_2  and  C_20
REMARK    3  A    between atoms: C_8  and  O_10
REMARK    4  A    between atoms: C_11  and  O_13
REMARK    5  A    between atoms: C_14  and  O_16
REMARK    6  A    between atoms: C_20  and  O_21
REMARK                            x       y       z     vdW  Elec       q    Type
REMARK                         _______ _______ _______ _____ _____    ______ ____
ROOT
ATOM      1  C   UNL     1       3.016   0.275  -1.197  0.00  0.00    +0.087 C 
ATOM      2  C   UNL     1       2.342   0.144   0.173  0.00  0.00    +0.268 C 
ATOM      3  O   UNL     1       2.846   1.227   0.944  0.00  0.00    -0.331 OA
ATOM      4  C   UNL     1       2.520   1.119   2.339  0.00  0.00    +0.184 C 
ATOM      5  C   UNL     1       3.095  -0.184   2.878  0.00  0.00    +0.178 C 
ATOM      6  O   UNL     1       4.500  -0.262   2.647  0.00  0.00    -0.341 OA
ATOM      7  C   UNL     1       5.287   0.846   3.033  0.00  0.00    +0.279 C 
ATOM      8  C   UNL     1       4.685   2.260   2.866  0.00  0.00    +0.201 C 
ATOM      9  C   UNL     1       2.476  -1.320   2.070  0.00  0.00    +0.198 C 
ATOM     10  C   UNL     1       3.174   2.279   3.088  0.00  0.00    +0.179 C 
ATOM     11  O   UNL     1       2.741  -1.148   0.670  0.00  0.00    -0.337 OA
ENDROOT
BRANCH   2  12
ATOM     12  C   UNL     1       0.802   0.146  -0.090  0.00  0.00    +0.365 C 
ATOM     13  O   UNL     1       0.074   1.118   0.004  0.00  0.00    -0.245 OA
BRANCH  12  14
ATOM     14  O   UNL     1       0.337  -1.095  -0.407  0.00  0.00    -0.477 OA
ATOM     15  H   UNL     1       1.066  -1.753  -0.375  0.00  0.00    +0.295 HD
ENDBRANCH  12  14
ENDBRANCH   2  12
BRANCH   7  16
ATOM     16  O   UNL     1       6.435   0.773   2.190  0.00  0.00    -0.365 OA
ATOM     17  H   UNL     1       6.073   0.546   1.311  0.00  0.00    +0.213 HD
ENDBRANCH   7  16
BRANCH   8  18
ATOM     18  O   UNL     1       5.321   3.164   3.788  0.00  0.00    -0.384 OA
ATOM     19  H   UNL     1       6.275   3.139   3.592  0.00  0.00    +0.210 HD
ENDBRANCH   8  18
BRANCH  10  20
ATOM     20  O   UNL     1       2.609   3.515   2.626  0.00  0.00    -0.386 OA
ATOM     21  H   UNL     1       2.733   3.543   1.659  0.00  0.00    +0.210 HD
ENDBRANCH  10  20
TORSDOF 5
