REMARK  Name = 
REMARK  3 active torsions:
REMARK  status: ('A' for Active; 'I' for Inactive)
REMARK    1  A    between atoms: C_1  and  C_2
REMARK    2  A    between atoms: N_6  and  C_7
REMARK    3  A    between atoms: C_7  and  C_8
REMARK                            x       y       z     vdW  Elec       q    Type
REMARK                         _______ _______ _______ _____ _____    ______ ____
ROOT
ATOM      1  C   UNL     1       0.664  -2.115   0.262  0.00  0.00    +0.080 C 
ATOM      2  C   UNL     1       0.348  -3.571   0.550  0.00  0.00    +0.170 C 
ATOM      3  O   UNL     1       1.223  -4.432   0.466  0.00  0.00    -0.292 OA
ATOM      4  C   UNL     1      -1.047  -3.898   0.806  0.00  0.00    +0.046 A 
ATOM      5  C   UNL     1      -1.655  -5.161   0.958  0.00  0.00    +0.011 A 
ATOM      6  C   UNL     1      -3.007  -4.930   1.152  0.00  0.00    +0.053 A 
ATOM      7  N   UNL     1      -3.226  -3.573   1.126  0.00  0.00    -0.343 N 
ATOM      8  C   UNL     1      -4.567  -3.042   1.281  0.00  0.00    +0.122 C 
ATOM      9  C   UNL     1      -5.704  -4.076   1.503  0.00  0.00    +0.026 C 
ATOM     10  C   UNL     1      -5.391  -5.590   1.505  0.00  0.00    +0.039 C 
ATOM     11  C   UNL     1      -3.952  -5.933   1.330  0.00  0.00    -0.023 A 
ATOM     12  C   UNL     1      -3.470  -7.249   1.326  0.00  0.00    +0.006 A 
ATOM     13  C   UNL     1      -2.113  -7.525   1.139  0.00  0.00    +0.001 A 
ATOM     14  C   UNL     1      -1.196  -6.489   0.947  0.00  0.00    +0.011 A 
ATOM     15  C   UNL     1      -2.031  -2.922   0.933  0.00  0.00    +0.030 A 
ATOM     16  C   UNL     1      -1.783  -1.451   0.873  0.00  0.00    +0.055 C 
ATOM     17  C   UNL     1      -0.272  -1.188   1.076  0.00  0.00    +0.019 C 
ENDROOT
BRANCH   1  18
ATOM     18  C   UNL     1       0.621  -1.968  -1.264  0.00  0.00    +0.134 C 
BRANCH  18  21
ATOM     19  C   UNL     1      -1.045  -0.170  -3.143  0.00  0.00    +0.086 C 
ATOM     20  C   UNL     1       0.249   0.196  -2.516  0.00  0.00    +0.107 A 
ATOM     21  N   UNL     1       1.002  -0.654  -1.740  0.00  0.00    -0.334 N 
ATOM     22  C   UNL     1       2.215  -0.057  -1.528  0.00  0.00    +0.107 A 
ATOM     23  C   UNL     1       2.086   1.207  -2.053  0.00  0.00    +0.130 A 
ATOM     24  N   UNL     1       0.867   1.354  -2.657  0.00  0.00    -0.241 NA
ENDBRANCH  18  21
ENDBRANCH   1  18
TORSDOF 2
