REMARK  Name = 
REMARK  14 active torsions:
REMARK  status: ('A' for Active; 'I' for Inactive)
REMARK    1  A    between atoms: C_1  and  C_2
REMARK    2  A    between atoms: C_4  and  S_5
REMARK    3  A    between atoms: S_5  and  C_6
REMARK    4  A    between atoms: C_7  and  O_8
REMARK    5  A    between atoms: C_10  and  C_11
REMARK    6  A    between atoms: C_10  and  C_23
REMARK    7  A    between atoms: C_11  and  C_12
REMARK    8  A    between atoms: C_12  and  C_13
REMARK    9  A    between atoms: C_16  and  O_17
REMARK   10  A    between atoms: C_28  and  C_32
REMARK   11  A    between atoms: C_30  and  N_31
REMARK   12  A    between atoms: C_32  and  C_33
REMARK   13  A    between atoms: C_32  and  C_34
REMARK   14  A    between atoms: C_32  and  C_35
REMARK                            x       y       z     vdW  Elec       q    Type
REMARK                         _______ _______ _______ _____ _____    ______ ____
ROOT
ATOM      1  C   UNL     1       4.246   4.022  -0.456  0.00  0.00    +0.134 C 
ATOM      2  C   UNL     1       4.738   5.398  -0.226  0.00  0.00    +0.350 C 
ATOM      3  O   UNL     1       5.911   5.667   0.013  0.00  0.00    -0.244 OA
ATOM      4  O   UNL     1       3.841   6.384  -0.471  0.00  0.00    -0.453 OA
ATOM      5  C   UNL     1       2.443   6.277  -0.108  0.00  0.00    +0.124 C 
ATOM      6  C   UNL     1       1.919   4.809  -0.143  0.00  0.00    +0.123 C 
ATOM      7  C   UNL     1       2.930   3.782  -0.522  0.00  0.00    +0.118 C 
ENDROOT
BRANCH   5   8
ATOM      8  C   UNL     1       2.248   6.901   1.334  0.00  0.00    +0.033 C 
ATOM      9  C   UNL     1       3.017   6.147   2.455  0.00  0.00    +0.007 C 
ATOM     10  C   UNL     1       4.303   6.930   2.754  0.00  0.00    +0.000 C 
ATOM     11  C   UNL     1       4.219   8.209   1.946  0.00  0.00    +0.000 C 
ATOM     12  C   UNL     1       2.746   8.331   1.620  0.00  0.00    +0.007 C 
ENDBRANCH   5   8
BRANCH   7  13
ATOM     13  O   UNL     1       2.390   2.547  -0.846  0.00  0.00    -0.510 OA
ATOM     14  H   UNL     1       3.105   1.999  -1.227  0.00  0.00    +0.292 HD
ENDBRANCH   7  13
BRANCH   1  15
ATOM     15  S   UNL     1       5.339   2.713  -0.220  0.00  0.00    -0.079 S 
BRANCH  15  21
ATOM     16  C   UNL     1       7.883   4.819  -4.258  0.00  0.00    +0.045 C 
ATOM     17  C   UNL     1       7.470   3.535  -3.592  0.00  0.00    -0.029 A 
ATOM     18  C   UNL     1       8.020   2.306  -3.945  0.00  0.00    +0.028 A 
ATOM     19  C   UNL     1       7.628   1.161  -3.232  0.00  0.00    +0.028 A 
ATOM     20  C   UNL     1       6.815   1.201  -2.069  0.00  0.00    -0.027 A 
ATOM     21  C   UNL     1       6.261   2.468  -1.729  0.00  0.00    +0.017 A 
ATOM     22  C   UNL     1       6.572   3.592  -2.518  0.00  0.00    +0.020 A 
BRANCH  20  23
ATOM     23  C   UNL     1       6.616  -0.109  -1.239  0.00  0.00    -0.012 C 
ATOM     24  C   UNL     1       7.127   0.033   0.218  0.00  0.00    +0.015 C 
ATOM     25  C   UNL     1       7.415  -1.324  -1.793  0.00  0.00    +0.015 C 
ATOM     26  C   UNL     1       5.135  -0.550  -1.249  0.00  0.00    +0.015 C 
ENDBRANCH  20  23
BRANCH  18  27
ATOM     27  N   UNL     1       8.793   2.154  -5.106  0.00  0.00    -0.358 N 
ATOM     28  H   UNL     1       9.297   2.992  -5.379  0.00  0.00    +0.142 HD
ATOM     29  H   UNL     1       9.403   1.342  -5.088  0.00  0.00    +0.142 HD
ENDBRANCH  18  27
ENDBRANCH  15  21
ENDBRANCH   1  15
BRANCH   5  30
ATOM     30  C   UNL     1       1.648   6.992  -1.249  0.00  0.00    +0.053 C 
BRANCH  30  31
ATOM     31  C   UNL     1       1.999   8.448  -1.521  0.00  0.00    +0.039 C 
BRANCH  31  32
ATOM     32  C   UNL     1       1.282   9.052  -2.697  0.00  0.00    -0.047 A 
ATOM     33  C   UNL     1       1.884   9.116  -3.956  0.00  0.00    +0.007 A 
ATOM     34  C   UNL     1       1.243   9.787  -4.999  0.00  0.00    +0.045 A 
ATOM     35  C   UNL     1       0.005  10.380  -4.781  0.00  0.00    +0.117 A 
ATOM     36  C   UNL     1      -0.621  10.309  -3.544  0.00  0.00    +0.045 A 
ATOM     37  C   UNL     1       0.019   9.632  -2.500  0.00  0.00    +0.007 A 
BRANCH  35  38
ATOM     38  O   UNL     1      -0.576  11.044  -5.819  0.00  0.00    -0.507 OA
ATOM     39  H   UNL     1      -1.445  11.364  -5.525  0.00  0.00    +0.292 HD
ENDBRANCH  35  38
ENDBRANCH  31  32
ENDBRANCH  30  31
ENDBRANCH   5  30
TORSDOF 10
