REMARK  Name = 
REMARK  5 active torsions:
REMARK  status: ('A' for Active; 'I' for Inactive)
REMARK    1  A    between atoms: N_3  and  O_4
REMARK    2  A    between atoms: N_5  and  C_6
REMARK    3  A    between atoms: C_6  and  C_7
REMARK    4  A    between atoms: C_7  and  C_8
REMARK    5  A    between atoms: C_8  and  N_9
REMARK                            x       y       z     vdW  Elec       q    Type
REMARK                         _______ _______ _______ _____ _____    ______ ____
ROOT
ATOM      1  N   UNL     1       1.179  -0.290   0.092  0.00  0.00    -0.287 N 
ATOM      2  H   UNL     1       0.594   0.463   0.433  0.00  0.00    +0.255 HD
ATOM      3  H   UNL     1       0.767  -0.742  -0.717  0.00  0.00    +0.255 HD
ATOM      4  C   UNL     1       2.515  -0.090   0.089  0.00  0.00    +0.407 C 
ATOM      5  N   UNL     1       3.177   0.812   0.739  0.00  0.00    -0.111 NA
ATOM      6  N   UNL     1       3.197  -1.022  -0.650  0.00  0.00    -0.142 N 
ATOM      7  H   UNL     1       2.696  -1.546  -1.364  0.00  0.00    +0.299 HD
ENDROOT
BRANCH   6   8
ATOM      8  O   UNL     1       4.490  -0.630  -1.022  0.00  0.00    -0.233 OA
ATOM      9  H   UNL     1       4.428   0.346  -1.070  0.00  0.00    +0.262 HD
ENDBRANCH   6   8
BRANCH   5  10
ATOM     10  C   UNL     1       2.442   1.749   1.589  0.00  0.00    +0.249 C 
BRANCH  10  11
ATOM     11  C   UNL     1       3.471   2.544   2.398  0.00  0.00    +0.091 C 
BRANCH  11  12
ATOM     12  C   UNL     1       4.352   1.659   3.278  0.00  0.00    +0.130 C 
BRANCH  12  13
ATOM     13  N   UNL     1       5.140   0.728   2.440  0.00  0.00    +0.219 N 
ATOM     14  H   UNL     1       5.615  -0.010   2.971  0.00  0.00    +0.199 HD
ATOM     15  H   UNL     1       5.824   1.216   1.853  0.00  0.00    +0.199 HD
ATOM     16  H   UNL     1       4.495   0.270   1.761  0.00  0.00    +0.199 HD
ENDBRANCH  12  13
ENDBRANCH  11  12
ENDBRANCH  10  11
ENDBRANCH   5  10
TORSDOF 5
