REMARK  Name = 
REMARK  15 active torsions:
REMARK  status: ('A' for Active; 'I' for Inactive)
REMARK    1  A    between atoms: N_1  and  C_2
REMARK    2  A    between atoms: C_2  and  C_4
REMARK    3  A    between atoms: C_2  and  C_37
REMARK    4  A    between atoms: C_4  and  C_5
REMARK    5  A    between atoms: C_5  and  C_6
REMARK    6  A    between atoms: N_8  and  C_9
REMARK    7  A    between atoms: C_9  and  C_11
REMARK    8  A    between atoms: C_9  and  C_30
REMARK    9  A    between atoms: C_11  and  S_12
REMARK   10  A    between atoms: S_12  and  C_13
REMARK   11  A    between atoms: C_15  and  O_17
REMARK   12  A    between atoms: N_32  and  CA_33
REMARK   13  A    between atoms: CA_33  and  C_34
REMARK   14  A    between atoms: C_34  and  O_35
REMARK   15  A    between atoms: C_37  and  O_38
REMARK                            x       y       z     vdW  Elec       q    Type
REMARK                         _______ _______ _______ _____ _____    ______ ____
ROOT
ATOM      1  C   UNK A   1       8.015  -3.937   3.377  0.00  0.00    +0.169 C 
ENDROOT
BRANCH   1   3
ATOM      2  C   UNK A   1      10.037  -2.613   2.600  0.00  0.00    +0.214 C 
ATOM      3  N   UNK A   1       9.458  -3.689   3.220  0.00  0.00    -0.303 N 
ATOM      4  H   UNK A   1      10.033  -4.517   3.330  0.00  0.00    +0.149 HD
ATOM      5  O   UNK A   1       9.408  -1.611   2.268  0.00  0.00    -0.276 OA
BRANCH   2   6
ATOM      6  C   UNK A   1      11.540  -2.734   2.433  0.00  0.00    +0.098 C 
BRANCH   6   7
ATOM      7  C   UNK A   1      12.275  -1.549   3.074  0.00  0.00    +0.039 C 
BRANCH   7   8
ATOM      8  C   UNK A   1      13.805  -1.665   3.022  0.00  0.00    +0.161 C 
BRANCH   8   9
ATOM      9  N   UNK A   1      14.338  -1.657   1.627  0.00  0.00    -0.318 NA
ATOM     10  H   UNK A   1      13.635  -2.028   0.983  0.00  0.00    +0.119 HD
ATOM     11  H   UNK A   1      14.427  -0.676   1.339  0.00  0.00    +0.119 HD
ENDBRANCH   8   9
BRANCH   8  12
ATOM     12  C   UNK A   1      14.281  -2.945   3.732  0.00  0.00    +0.322 C 
ATOM     13  O   UNK A   1      13.962  -3.284   4.861  0.00  0.00    -0.249 OA
BRANCH  12  14
ATOM     14  O   UNK A   1      15.075  -3.692   2.921  0.00  0.00    -0.480 OA
ATOM     15  H   UNK A   1      15.184  -3.158   2.093  0.00  0.00    +0.295 HD
ENDBRANCH  12  14
ENDBRANCH   8  12
ENDBRANCH   7   8
ENDBRANCH   6   7
ENDBRANCH   2   6
ENDBRANCH   1   3
BRANCH   1  16
ATOM     16  C   UNK A   1       7.268  -2.947   4.293  0.00  0.00    +0.235 C 
ATOM     17  N   GLY A   2       7.536  -1.606   4.111  0.00  0.00    -0.303 N 
ATOM     18  H   GLY A   2       8.436  -1.387   3.685  0.00  0.00    +0.149 HD
ATOM     19  O   UNK A   1       6.357  -3.325   5.026  0.00  0.00    -0.274 OA
BRANCH  17  20
ATOM     20  CA  GLY A   2       6.879  -0.577   4.905  0.00  0.00    +0.224 C 
BRANCH  20  21
ATOM     21  C   GLY A   2       6.643   0.718   4.135  0.00  0.00    +0.322 C 
ATOM     22  OXT GLY A   2       6.154   1.720   4.635  0.00  0.00    -0.249 OA
BRANCH  21  23
ATOM     23  O   GLY A   2       7.014   0.670   2.832  0.00  0.00    -0.480 OA
ATOM     24  H   GLY A   2       7.348  -0.215   2.575  0.00  0.00    +0.295 HD
ENDBRANCH  21  23
ENDBRANCH  20  21
ENDBRANCH  17  20
ENDBRANCH   1  16
BRANCH   1  25
ATOM     25  C   UNK A   1       7.213  -4.076   2.070  0.00  0.00    +0.101 C 
BRANCH  25  26
ATOM     26  S   UNK A   1       7.885  -5.398   0.985  0.00  0.00    -0.147 S 
BRANCH  26  27
ATOM     27  C   UNK A   1       6.689  -5.308  -0.452  0.00  0.00    +0.110 C 
ATOM     28  C   UNK A   1       6.724  -3.937  -1.092  0.00  0.00    -0.024 A 
ATOM     29  C   UNK A   1       5.627  -3.057  -0.993  0.00  0.00    -0.013 A 
ATOM     30  C   UNK A   1       5.791  -1.768  -1.543  0.00  0.00    +0.009 A 
ATOM     31  C   UNK A   1       6.979  -1.369  -2.166  0.00  0.00    +0.001 A 
ATOM     32  C   UNK A   1       8.034  -2.260  -2.284  0.00  0.00    +0.000 A 
ATOM     33  C   UNK A   1       4.356  -3.501  -0.366  0.00  0.00    -0.012 A 
ATOM     34  C   UNK A   1       4.164  -4.853  -0.016  0.00  0.00    -0.010 A 
ATOM     35  C   UNK A   1       2.907  -5.296   0.453  0.00  0.00    +0.007 A 
ATOM     36  C   UNK A   1       1.859  -4.405   0.652  0.00  0.00    +0.000 A 
ATOM     37  C   UNK A   1       2.056  -3.058   0.391  0.00  0.00    +0.001 A 
ATOM     38  C   UNK A   1       3.282  -2.618  -0.120  0.00  0.00    +0.009 A 
ATOM     39  C   UNK A   1       7.905  -3.538  -1.758  0.00  0.00    +0.005 A 
ATOM     40  C   UNK A   1       5.288  -5.861  -0.082  0.00  0.00    +0.162 C 
BRANCH  40  41
ATOM     41  O   UNK A   1       4.907  -6.902  -0.995  0.00  0.00    -0.386 OA
ATOM     42  H   UNK A   1       5.541  -7.630  -0.874  0.00  0.00    +0.210 HD
ENDBRANCH  40  41
ENDBRANCH  26  27
ENDBRANCH  25  26
ENDBRANCH   1  25
TORSDOF 15
