REMARK  Name = 
REMARK  19 active torsions:
REMARK  status: ('A' for Active; 'I' for Inactive)
REMARK    1  A    between atoms: C_1  and  C_2
REMARK    2  A    between atoms: C_2  and  C_3
REMARK    3  A    between atoms: C_2  and  C_4
REMARK    4  A    between atoms: C_4  and  C_5
REMARK    5  A    between atoms: C_5  and  C_7
REMARK    6  A    between atoms: C_5  and  N_33
REMARK    7  A    between atoms: C_7  and  C_8
REMARK    8  A    between atoms: C_8  and  O_10
REMARK    9  A    between atoms: C_8  and  C_11
REMARK   10  A    between atoms: C_11  and  C_13
REMARK   11  A    between atoms: C_11  and  N_20
REMARK   12  A    between atoms: C_13  and  C_14
REMARK   13  A    between atoms: C_21  and  C_23
REMARK   14  A    between atoms: C_23  and  O_24
REMARK   15  A    between atoms: O_24  and  C_25
REMARK   16  A    between atoms: C_26  and  C_27
REMARK   17  A    between atoms: C_31  and  C_32
REMARK   18  A    between atoms: C_34  and  C_36
REMARK   19  A    between atoms: C_39  and  N_40
REMARK                            x       y       z     vdW  Elec       q    Type
REMARK                         _______ _______ _______ _____ _____    ______ ____
ROOT
ATOM      1  C   UNL     1       4.320   1.608  -3.515  0.00  0.00    +0.137 C 
ENDROOT
BRANCH   1   2
ATOM      2  O   UNL     1       3.265   1.328  -4.451  0.00  0.00    -0.390 OA
ATOM      3  H   UNL     1       2.950   0.423  -4.267  0.00  0.00    +0.210 HD
ENDBRANCH   1   2
BRANCH   1   4
ATOM      4  C   UNL     1       3.912   2.873  -2.736  0.00  0.00    +0.055 C 
BRANCH   4   5
ATOM      5  C   UNL     1       3.517   4.159  -3.522  0.00  0.00    +0.076 C 
BRANCH   5   6
ATOM      6  N   UNL     1       2.979   5.161  -2.557  0.00  0.00    -0.308 N 
ATOM      7  H   UNL     1       1.979   5.308  -2.543  0.00  0.00    +0.149 HD
ATOM      8  C   UNL     1       3.758   5.801  -1.605  0.00  0.00    +0.244 C 
ATOM      9  O   UNL     1       4.939   5.539  -1.402  0.00  0.00    -0.270 OA
BRANCH   8  10
ATOM     10  C   UNL     1       3.104   6.855  -0.780  0.00  0.00    +0.037 A 
ATOM     11  C   UNL     1       2.034   7.621  -1.250  0.00  0.00    +0.015 A 
ATOM     12  C   UNL     1       1.446   8.587  -0.422  0.00  0.00    +0.023 A 
ATOM     13  C   UNL     1       1.890   8.784   0.888  0.00  0.00    +0.025 A 
ATOM     14  C   UNL     1       3.035   8.091   1.311  0.00  0.00    +0.023 A 
ATOM     15  C   UNL     1       3.626   7.127   0.491  0.00  0.00    +0.015 A 
BRANCH  13  16
ATOM     16  N   UNL     1       1.361   9.812   1.670  0.00  0.00    -0.358 N 
ATOM     17  H   UNL     1       0.392  10.029   1.456  0.00  0.00    +0.142 HD
ATOM     18  H   UNL     1       1.509   9.685   2.667  0.00  0.00    +0.142 HD
ENDBRANCH  13  16
ENDBRANCH   8  10
ENDBRANCH   5   6
BRANCH   5  19
ATOM     19  C   UNL     1       4.579   4.888  -4.384  0.00  0.00    +0.025 C 
BRANCH  19  21
ATOM     20  C   UNL     1       4.313   3.806  -6.704  0.00  0.00    +0.007 C 
ATOM     21  C   UNL     1       5.263   4.201  -5.576  0.00  0.00    -0.015 C 
ATOM     22  C   UNL     1       6.335   5.157  -6.129  0.00  0.00    +0.007 C 
ENDBRANCH  19  21
ENDBRANCH   5  19
ENDBRANCH   4   5
ENDBRANCH   1   4
BRANCH   1  23
ATOM     23  C   UNL     1       4.546   0.342  -2.604  0.00  0.00    +0.106 C 
BRANCH  23  24
ATOM     24  N   UNL     1       4.492  -0.891  -3.413  0.00  0.00    -0.307 N 
ATOM     25  H   UNL     1       5.195  -1.008  -4.132  0.00  0.00    +0.149 HD
ATOM     26  C   UNL     1       3.646  -1.958  -3.131  0.00  0.00    +0.251 C 
ATOM     27  O   UNL     1       2.920  -1.986  -2.143  0.00  0.00    -0.272 OA
BRANCH  26  28
ATOM     28  C   UNL     1       3.590  -3.019  -4.251  0.00  0.00    +0.324 C 
BRANCH  28  29
ATOM     29  O   UNL     1       3.645  -4.377  -3.861  0.00  0.00    -0.482 OA
BRANCH  29  30
ATOM     30  C   UNL     1       4.219  -5.300  -4.707  0.00  0.00    +0.127 A 
ATOM     31  C   UNL     1       4.596  -6.505  -4.062  0.00  0.00    -0.009 A 
ATOM     32  C   UNL     1       4.153  -6.805  -2.652  0.00  0.00    +0.047 C 
ATOM     33  C   UNL     1       5.332  -7.484  -4.749  0.00  0.00    +0.007 A 
ATOM     34  C   UNL     1       5.673  -7.300  -6.080  0.00  0.00    +0.001 A 
ATOM     35  C   UNL     1       5.211  -6.173  -6.749  0.00  0.00    +0.007 A 
ATOM     36  C   UNL     1       4.439  -5.186  -6.096  0.00  0.00    -0.009 A 
ATOM     37  C   UNL     1       3.893  -4.118  -7.004  0.00  0.00    +0.047 C 
ENDBRANCH  29  30
ENDBRANCH  28  29
ENDBRANCH  26  28
ENDBRANCH  23  24
BRANCH  23  38
ATOM     38  C   UNL     1       5.725   0.378  -1.590  0.00  0.00    +0.060 C 
BRANCH  38  39
ATOM     39  C   UNL     1       7.168  -0.028  -1.856  0.00  0.00    -0.046 A 
ATOM     40  C   UNL     1       7.964  -0.251  -0.709  0.00  0.00    +0.004 A 
ATOM     41  C   UNL     1       9.303  -0.654  -0.797  0.00  0.00    +0.000 A 
ATOM     42  C   UNL     1       9.879  -0.829  -2.048  0.00  0.00    +0.000 A 
ATOM     43  C   UNL     1       9.120  -0.584  -3.195  0.00  0.00    +0.000 A 
ATOM     44  C   UNL     1       7.775  -0.174  -3.104  0.00  0.00    +0.004 A 
ENDBRANCH  38  39
ENDBRANCH  23  38
ENDBRANCH   1  23
TORSDOF 15
