REMARK  Name = 
REMARK  8 active torsions:
REMARK  status: ('A' for Active; 'I' for Inactive)
REMARK    1  A    between atoms: N_1  and  C_2
REMARK    2  A    between atoms: C_2  and  C_4
REMARK    3  A    between atoms: C_2  and  C_24
REMARK    4  A    between atoms: C_4  and  S_5
REMARK    5  A    between atoms: S_5  and  C_6
REMARK    6  A    between atoms: C_6  and  C_7
REMARK    7  A    between atoms: N_9  and  C_10
REMARK    8  A    between atoms: C_24  and  O_25
REMARK                            x       y       z     vdW  Elec       q    Type
REMARK                         _______ _______ _______ _____ _____    ______ ____
ROOT
ATOM      1  C   UNK     1       2.305   3.059  -4.506  0.00  0.00    +0.227 C 
ATOM      2  N   UNK     1       2.638   4.228  -5.193  0.00  0.00    -0.284 N 
ATOM      3  H   UNK     1       2.962   5.012  -4.645  0.00  0.00    +0.155 HD
ATOM      4  O   UNK     1       1.643   2.148  -4.998  0.00  0.00    -0.275 OA
ENDROOT
BRANCH   2   5
ATOM      5  C   UNK     1       2.297   4.464  -6.567  0.00  0.00    +0.043 A 
ATOM      6  C   UNK     1       2.225   5.775  -7.114  0.00  0.00    +0.024 A 
ATOM      7  C   UNK     1       2.542   6.951  -6.391  0.00  0.00    +0.013 A 
ATOM      8  C   UNK     1       2.432   8.209  -6.973  0.00  0.00    +0.020 A 
ATOM      9  C   UNK     1       2.002   8.278  -8.274  0.00  0.00    +0.111 A 
ATOM     10  N   UNK     1       1.690   7.193  -9.004  0.00  0.00    -0.253 NA
ATOM     11  C   UNK     1       1.787   5.953  -8.462  0.00  0.00    +0.099 A 
ATOM     12  C   UNK     1       1.430   4.845  -9.255  0.00  0.00    +0.097 A 
ATOM     13  N   UNK     1       0.970   4.978 -10.529  0.00  0.00    -0.253 NA
ATOM     14  C   UNK     1       0.623   3.880 -11.238  0.00  0.00    +0.111 A 
ATOM     15  C   UNK     1       0.713   2.596 -10.751  0.00  0.00    +0.020 A 
ATOM     16  C   UNK     1       1.192   2.437  -9.463  0.00  0.00    +0.011 A 
ATOM     17  C   UNK     1       1.554   3.560  -8.705  0.00  0.00    +0.004 A 
ATOM     18  C   UNK     1       2.013   3.385  -7.403  0.00  0.00    +0.034 A 
ENDBRANCH   2   5
BRANCH   1  19
ATOM     19  C   UNK     1       2.799   2.992  -3.047  0.00  0.00    +0.165 C 
BRANCH  19  20
ATOM     20  S   UNK     1       2.247   1.385  -2.344  0.00  0.00    -0.149 S 
BRANCH  20  21
ATOM     21  C   UNK     1       2.838   1.459  -0.627  0.00  0.00    +0.099 C 
BRANCH  21  22
ATOM     22  C   UNK     1       2.437   0.133   0.051  0.00  0.00    +0.171 C 
BRANCH  22  23
ATOM     23  N   UNK     1       0.958  -0.142   0.034  0.00  0.00    -0.318 NA
ATOM     24  H   UNK     1       0.475   0.728   0.287  0.00  0.00    +0.119 HD
ATOM     25  H   UNK     1       0.706  -0.253  -0.959  0.00  0.00    +0.119 HD
ENDBRANCH  22  23
BRANCH  22  26
ATOM     26  C   UNK     1       2.903   0.090   1.506  0.00  0.00    +0.323 C 
ATOM     27  O   UNK     1       3.897   0.641   1.950  0.00  0.00    -0.249 OA
BRANCH  26  28
ATOM     28  O   UNK     1       2.076  -0.690   2.254  0.00  0.00    -0.480 OA
ATOM     29  H   UNK     1       1.337  -0.964   1.650  0.00  0.00    +0.295 HD
ENDBRANCH  26  28
ENDBRANCH  22  26
ENDBRANCH  21  22
ENDBRANCH  20  21
ENDBRANCH  19  20
ENDBRANCH   1  19
TORSDOF 8
