REMARK  Name = 
REMARK  3 active torsions:
REMARK  status: ('A' for Active; 'I' for Inactive)
REMARK    1  A    between atoms: O_1  and  C_2
REMARK    2  A    between atoms: C_3  and  O_4
REMARK    3  A    between atoms: C_9  and  C_12
REMARK                            x       y       z     vdW  Elec       q    Type
REMARK                         _______ _______ _______ _____ _____    ______ ____
ROOT
ATOM      1  C   UNL     1       2.203   0.180  -0.048  0.00  0.00    +0.167 C 
ATOM      2  C   UNL     1       3.009   1.393   0.042  0.00  0.00    +0.031 A 
ATOM      3  C   UNL     1       2.408   2.660   0.114  0.00  0.00    +0.012 A 
ATOM      4  C   UNL     1       3.182   3.821   0.112  0.00  0.00    +0.001 A 
ATOM      5  C   UNL     1       4.569   3.729   0.053  0.00  0.00    +0.001 A 
ATOM      6  C   UNL     1       5.179   2.475  -0.008  0.00  0.00    +0.012 A 
ATOM      7  C   UNL     1       4.402   1.304  -0.023  0.00  0.00    +0.033 A 
ATOM      8  C   UNL     1       5.080  -0.019  -0.129  0.00  0.00    +0.197 C 
ATOM      9  O   UNL     1       6.303  -0.017  -0.215  0.00  0.00    -0.287 OA
ATOM     10  C   UNL     1       4.215  -1.283  -0.074  0.00  0.00    +0.067 C 
ATOM     11  C   UNL     1       4.774  -2.532  -0.006  0.00  0.00    -0.055 C 
ATOM     12  C   UNL     1       3.943  -3.789   0.249  0.00  0.00    +0.032 C 
ATOM     13  C   UNL     1       4.617  -4.853   1.119  0.00  0.00    +0.012 C 
ATOM     14  C   UNL     1       5.985  -5.272   0.567  0.00  0.00    +0.020 C 
ATOM     15  C   UNL     1       6.834  -3.989   0.594  0.00  0.00    +0.012 C 
ATOM     16  C   UNL     1       6.245  -2.867  -0.271  0.00  0.00    +0.032 C 
ATOM     17  C   UNL     1       2.760  -1.034  -0.115  0.00  0.00    +0.170 C 
ENDROOT
BRANCH  14  18
ATOM     18  C   UNL     1       5.943  -6.020  -0.771  0.00  0.00    -0.044 A 
ATOM     19  C   UNL     1       4.813  -6.762  -1.167  0.00  0.00    +0.005 A 
ATOM     20  C   UNL     1       4.776  -7.445  -2.388  0.00  0.00    +0.020 A 
ATOM     21  C   UNL     1       5.884  -7.425  -3.223  0.00  0.00    +0.041 A 
ATOM     22 CL   UNL     1       5.842  -8.266  -4.723  0.00  0.00    -0.084 Cl
ATOM     23  C   UNL     1       7.028  -6.733  -2.844  0.00  0.00    +0.020 A 
ATOM     24  C   UNL     1       7.059  -6.045  -1.625  0.00  0.00    +0.005 A 
ENDBRANCH  14  18
BRANCH   1  25
ATOM     25  O   UNL     1       0.837   0.354  -0.174  0.00  0.00    -0.503 OA
ATOM     26  H   UNL     1       0.486  -0.473  -0.554  0.00  0.00    +0.292 HD
ENDBRANCH   1  25
BRANCH  17  27
ATOM     27  O   UNL     1       1.921  -2.101  -0.401  0.00  0.00    -0.503 OA
ATOM     28  H   UNL     1       1.364  -2.217   0.390  0.00  0.00    +0.292 HD
ENDBRANCH  17  27
TORSDOF 3
