REMARK  Name = 
REMARK  5 active torsions:
REMARK  status: ('A' for Active; 'I' for Inactive)
REMARK    1  A    between atoms: O_1  and  C_2
REMARK    2  A    between atoms: C_5  and  C_14
REMARK    3  A    between atoms: C_8  and  O_10
REMARK    4  A    between atoms: C_11  and  O_13
REMARK    5  A    between atoms: C_14  and  O_15
REMARK                            x       y       z     vdW  Elec       q    Type
REMARK                         _______ _______ _______ _____ _____    ______ ____
ROOT
ATOM      1  C   UNL     1       2.417   0.042  -0.033  0.00  0.00    +0.151 C 
ATOM      2  C   UNL     1       2.962   1.019  -1.078  0.00  0.00    +0.199 C 
ATOM      3  C   UNL     1       2.458   0.601  -2.478  0.00  0.00    +0.279 C 
ATOM      4  O   UNL     1       2.731  -0.762  -2.803  0.00  0.00    -0.334 OA
ATOM      5  C   UNL     1       2.296  -1.723  -1.840  0.00  0.00    +0.232 C 
ATOM      6  C   UNL     1       2.762  -1.392  -0.422  0.00  0.00    +0.077 C 
ENDROOT
BRANCH   1   7
ATOM      7  O   UNL     1       0.999   0.204   0.051  0.00  0.00    -0.389 OA
ATOM      8  H   UNL     1       0.670  -0.413   0.735  0.00  0.00    +0.210 HD
ENDBRANCH   1   7
BRANCH   2   9
ATOM      9  O   UNL     1       4.391   1.024  -1.013  0.00  0.00    -0.384 OA
ATOM     10  H   UNL     1       4.715   1.662  -1.673  0.00  0.00    +0.210 HD
ENDBRANCH   2   9
BRANCH   3  11
ATOM     11  O   UNL     1       1.079   0.858  -2.675  0.00  0.00    -0.365 OA
ATOM     12  H   UNL     1       0.643   0.800  -1.797  0.00  0.00    +0.213 HD
ENDBRANCH   3  11
BRANCH   5  13
ATOM     13  C   UNL     1       0.793  -2.050  -1.902  0.00  0.00    +0.334 C 
ATOM     14  O   UNL     1       0.164  -2.597  -1.008  0.00  0.00    -0.248 OA
BRANCH  13  15
ATOM     15  O   UNL     1       0.233  -1.710  -3.088  0.00  0.00    -0.479 OA
ATOM     16  H   UNL     1       0.860  -1.153  -3.604  0.00  0.00    +0.295 HD
ENDBRANCH  13  15
ENDBRANCH   5  13
TORSDOF 5
