REMARK  Name = 
REMARK  9 active torsions:
REMARK  status: ('A' for Active; 'I' for Inactive)
REMARK    1  A    between atoms: CA_2  and  N_3
REMARK    2  A    between atoms: CA_2  and  C_7
REMARK    3  A    between atoms: CA_2  and  C_18
REMARK    4  A    between atoms: C_7  and  C_8
REMARK    5  A    between atoms: C_9  and  C_14
REMARK    6  A    between atoms: C_14  and  C_15
REMARK    7  A    between atoms: C_14  and  C_16
REMARK    8  A    between atoms: C_14  and  C_17
REMARK    9  A    between atoms: C_18  and  O_19
REMARK                            x       y       z     vdW  Elec       q    Type
REMARK                         _______ _______ _______ _____ _____    ______ ____
ROOT
ATOM      1  C   UNL     1       2.373   1.074  -0.311  0.00  0.00    +0.102 C 
ENDROOT
BRANCH   1   2
ATOM      2  C   UNL     1       1.963   1.852  -1.519  0.00  0.00    -0.019 A 
ATOM      3  C   UNL     1       2.132   3.269  -1.542  0.00  0.00    +0.001 A 
ATOM      4  O   UNL     1       2.799   3.869  -0.573  0.00  0.00    -0.860 OA
ATOM      5  N   UNL     1       1.736   3.941  -2.600  0.00  0.00    -0.226 NA
ATOM      6  S   UNL     1       1.058   2.878  -3.652  0.00  0.00    +0.007 S 
ATOM      7  C   UNL     1       1.408   1.431  -2.735  0.00  0.00    +0.018 A 
BRANCH   7   8
ATOM      8  C   UNL     1       1.006   0.071  -3.329  0.00  0.00    -0.005 C 
ATOM      9  C   UNL     1       1.831  -1.103  -2.776  0.00  0.00    +0.016 C 
ATOM     10  C   UNL     1       1.219   0.030  -4.863  0.00  0.00    +0.016 C 
ATOM     11  C   UNL     1      -0.477  -0.196  -3.017  0.00  0.00    +0.016 C 
ENDBRANCH   7   8
ENDBRANCH   1   2
BRANCH   1  12
ATOM     12  CA  UNL     1       3.756   0.462  -0.390  0.00  0.00    +0.175 C 
BRANCH  12  13
ATOM     13  N   UNL     1       4.032  -0.235   0.944  0.00  0.00    +0.229 N 
ATOM     14  H1  UNL     1       4.307   0.476   1.635  0.00  0.00    +0.200 HD
ATOM     15  H2  UNL     1       4.851  -0.846   0.813  0.00  0.00    +0.200 HD
ATOM     16  H3  UNL     1       3.235  -0.769   1.298  0.00  0.00    +0.200 HD
ENDBRANCH  12  13
BRANCH  12  17
ATOM     17  C   UNL     1       5.042   1.215  -0.752  0.00  0.00    +0.354 C 
ATOM     18  OXT UNL     1       6.088   0.562  -0.713  0.00  0.00    -0.245 OA
BRANCH  17  19
ATOM     19  O   UNL     1       5.073   2.525  -0.948  0.00  0.00    -0.477 OA
ATOM     20  H   UNL     1       4.231   3.080  -0.900  0.00  0.00    +0.295 HD
ENDBRANCH  17  19
ENDBRANCH  12  17
ENDBRANCH   1  12
TORSDOF 6
