REMARK  Name = 
REMARK  5 active torsions:
REMARK  status: ('A' for Active; 'I' for Inactive)
REMARK    1  A    between atoms: N_1  and  C_2
REMARK    2  A    between atoms: C_2  and  C_3
REMARK    3  A    between atoms: C_5  and  C_6
REMARK    4  A    between atoms: C_6  and  S_7
REMARK    5  A    between atoms: S_7  and  C_8
REMARK                            x       y       z     vdW  Elec       q    Type
REMARK                         _______ _______ _______ _____ _____    ______ ____
ROOT
ATOM      1  C   UNL     1       2.857  -0.985   1.020  0.00  0.00    -0.033 A 
ATOM      2  C   UNL     1       3.508  -0.611   2.194  0.00  0.00    +0.020 A 
ATOM      3  C   UNL     1       3.804  -1.582   3.157  0.00  0.00    +0.065 A 
ATOM      4  C   UNL     1       3.487  -2.938   2.977  0.00  0.00    +0.084 A 
ATOM      5  N   UNL     1       3.726  -3.884   3.998  0.00  0.00    -0.216 NA
ATOM      6  C   UNL     1       4.245  -3.483   5.113  0.00  0.00    +0.194 A 
ATOM      7  N   UNL     1       4.610  -2.191   5.338  0.00  0.00    -0.295 N 
ATOM      8  H   UNL     1       4.991  -1.915   6.227  0.00  0.00    +0.172 HD
ATOM      9  N   UNL     1       4.454  -4.351   6.131  0.00  0.00    -0.329 N 
ATOM     10  H   UNL     1       5.208  -4.156   6.774  0.00  0.00    +0.145 HD
ATOM     11  H   UNL     1       4.398  -5.322   5.844  0.00  0.00    +0.145 HD
ATOM     12  C   UNL     1       2.875  -3.336   1.771  0.00  0.00    -0.011 A 
ATOM     13  C   UNL     1       4.432  -1.185   4.428  0.00  0.00    +0.260 A 
ATOM     14  O   UNL     1       4.762  -0.028   4.664  0.00  0.00    -0.267 OA
ATOM     15  C   UNL     1       2.531  -2.336   0.833  0.00  0.00    +0.011 A 
ENDROOT
BRANCH   1  16
ATOM     16  C   UNL     1       2.442   0.042   0.001  0.00  0.00    +0.113 C 
BRANCH  16  17
ATOM     17  N   UNL     1       1.095   0.520   0.278  0.00  0.00    -0.326 NA
ATOM     18  H   UNL     1       1.077   0.946   1.203  0.00  0.00    +0.119 HD
ATOM     19  H   UNL     1       0.856   1.255  -0.383  0.00  0.00    +0.119 HD
ENDBRANCH  16  17
ENDBRANCH   1  16
BRANCH  12  20
ATOM     20  C   UNL     1       2.500  -4.792   1.528  0.00  0.00    +0.111 C 
BRANCH  20  21
ATOM     21  S   UNL     1       2.642  -5.281  -0.242  0.00  0.00    -0.120 S 
BRANCH  21  22
ATOM     22  C   UNL     1       2.096  -6.977  -0.315  0.00  0.00    +0.008 A 
ATOM     23  C   UNL     1       2.053  -7.550  -1.597  0.00  0.00    +0.015 A 
ATOM     24  C   UNL     1       1.699  -8.889  -1.781  0.00  0.00    +0.001 A 
ATOM     25  C   UNL     1       1.378  -9.674  -0.680  0.00  0.00    +0.000 A 
ATOM     26  C   UNL     1       1.394  -9.115   0.597  0.00  0.00    +0.001 A 
ATOM     27  C   UNL     1       1.749  -7.771   0.780  0.00  0.00    +0.015 A 
ENDBRANCH  21  22
ENDBRANCH  20  21
ENDBRANCH  12  20
TORSDOF 5
