REMARK  Name = 
REMARK  8 active torsions:
REMARK  status: ('A' for Active; 'I' for Inactive)
REMARK    1  A    between atoms: C_1  and  C_2
REMARK    2  A    between atoms: N_4  and  CA_5
REMARK    3  A    between atoms: CA_5  and  CB_7
REMARK    4  A    between atoms: CA_5  and  C_12
REMARK    5  A    between atoms: CB_7  and  CG_8
REMARK    6  A    between atoms: CG_8  and  CD_9
REMARK    7  A    between atoms: CD_9  and  OE1_10
REMARK    8  A    between atoms: C_12  and  O_13
REMARK                            x       y       z     vdW  Elec       q    Type
REMARK                         _______ _______ _______ _____ _____    ______ ____
ROOT
ATOM      1  CA  GLU A   1       4.621   0.643  -1.102  0.00  0.00    +0.182 C 
ENDROOT
BRANCH   1   4
ATOM      2  C   UNK A   0       0.960   0.517  -0.093  0.00  0.00    +0.109 C 
ATOM      3  C   UNK A   0       2.453   0.545   0.079  0.00  0.00    +0.211 C 
ATOM      4  N   GLU A   1       3.163   0.613  -1.094  0.00  0.00    -0.303 N 
ATOM      5  H   GLU A   1       2.684   0.561  -1.988  0.00  0.00    +0.149 HD
ATOM      6  O   UNK A   0       2.990   0.556   1.183  0.00  0.00    -0.276 OA
ENDBRANCH   1   4
BRANCH   1   7
ATOM      7  C   GLU A   1       5.071   1.574  -2.230  0.00  0.00    +0.325 C 
ATOM      8  OXT GLU A   1       4.701   1.468  -3.391  0.00  0.00    -0.249 OA
BRANCH   7   9
ATOM      9  O   GLU A   1       5.943   2.533  -1.836  0.00  0.00    -0.479 OA
ATOM     10  H   GLU A   1       6.074   2.595  -0.870  0.00  0.00    +0.295 HD
ENDBRANCH   7   9
ENDBRANCH   1   7
BRANCH   1  11
ATOM     11  CB  GLU A   1       5.189  -0.766  -1.301  0.00  0.00    +0.045 C 
BRANCH  11  12
ATOM     12  CG  GLU A   1       6.718  -0.793  -1.281  0.00  0.00    +0.123 C 
BRANCH  12  13
ATOM     13  CD  GLU A   1       7.256  -2.195  -1.435  0.00  0.00    +0.305 C 
ATOM     14  OE2 GLU A   1       6.577  -3.201  -1.551  0.00  0.00    -0.251 OA
BRANCH  13  15
ATOM     15  OE1 GLU A   1       8.609  -2.230  -1.430  0.00  0.00    -0.481 OA
ATOM     16  HE1 GLU A   1       9.035  -1.356  -1.346  0.00  0.00    +0.295 HD
ENDBRANCH  13  15
ENDBRANCH  12  13
ENDBRANCH  11  12
ENDBRANCH   1  11
TORSDOF 7
