REMARK  Name = 
REMARK  10 active torsions:
REMARK  status: ('A' for Active; 'I' for Inactive)
REMARK    1  A    between atoms: N_1  and  CA_2
REMARK    2  A    between atoms: CA_2  and  CB_4
REMARK    3  A    between atoms: CA_2  and  C_19
REMARK    4  A    between atoms: CB_4  and  SG_5
REMARK    5  A    between atoms: SG_5  and  C_6
REMARK    6  A    between atoms: C_9  and  CA_13
REMARK    7  A    between atoms: CA_13  and  N_15
REMARK    8  A    between atoms: CA_13  and  C_16
REMARK    9  A    between atoms: C_16  and  O_17
REMARK   10  A    between atoms: C_19  and  O_20
REMARK                            x       y       z     vdW  Elec       q    Type
REMARK                         _______ _______ _______ _____ _____    ______ ____
ROOT
ATOM      1  C   UNL     1       2.889  -2.036  -3.755  0.00  0.00    +0.141 C 
ATOM      2  N   UNL     1       3.259  -3.397  -4.140  0.00  0.00    -0.188 NA
ATOM      3  H   UNL     1       3.610  -3.882  -3.308  0.00  0.00    +0.155 HD
ATOM      4  O   UNL     1       4.487  -3.314  -4.933  0.00  0.00    -0.293 OA
ATOM      5  C   UNL     1       4.803  -1.930  -5.180  0.00  0.00    +0.172 C 
ATOM      6  C   UNL     1       4.120  -1.203  -4.040  0.00  0.00    +0.067 C 
ENDROOT
BRANCH   1   7
ATOM      7  SG  UNL     1       1.451  -1.441  -4.710  0.00  0.00    -0.138 S 
BRANCH   7   8
ATOM      8  CB  UNL     1       0.198  -2.683  -4.208  0.00  0.00    +0.100 C 
BRANCH   8   9
ATOM      9  CA  UNL     1      -1.090  -2.523  -5.031  0.00  0.00    +0.171 C 
BRANCH   9  10
ATOM     10  N   UNL     1      -1.678  -1.142  -4.988  0.00  0.00    -0.318 NA
ATOM     11  H1  UNL     1      -1.658  -0.827  -4.012  0.00  0.00    +0.119 HD
ATOM     12  H2  UNL     1      -0.985  -0.527  -5.438  0.00  0.00    +0.119 HD
ENDBRANCH   9  10
BRANCH   9  13
ATOM     13  C   UNL     1      -2.161  -3.503  -4.534  0.00  0.00    +0.323 C 
ATOM     14  OXT UNL     1      -1.953  -4.617  -4.083  0.00  0.00    -0.249 OA
BRANCH  13  15
ATOM     15  O   UNL     1      -3.406  -2.977  -4.689  0.00  0.00    -0.480 OA
ATOM     16  H   UNL     1      -3.275  -2.060  -5.040  0.00  0.00    +0.295 HD
ENDBRANCH  13  15
ENDBRANCH   9  13
ENDBRANCH   8   9
ENDBRANCH   7   8
ENDBRANCH   1   7
BRANCH   5  17
ATOM     17  CA  UNL     1       4.352  -1.546  -6.605  0.00  0.00    +0.192 C 
BRANCH  17  18
ATOM     18  N   UNL     1       4.563  -0.092  -6.834  0.00  0.00    -0.316 NA
ATOM     19  H1  UNL     1       4.551   0.066  -7.848  0.00  0.00    +0.119 HD
ATOM     20  H2  UNL     1       3.772   0.430  -6.461  0.00  0.00    +0.119 HD
ENDBRANCH  17  18
BRANCH  17  21
ATOM     21  C   UNL     1       5.099  -2.342  -7.699  0.00  0.00    +0.324 C 
ATOM     22  OXT UNL     1       5.421  -1.853  -8.777  0.00  0.00    -0.249 OA
BRANCH  21  23
ATOM     23  O   UNL     1       5.284  -3.657  -7.447  0.00  0.00    -0.479 OA
ATOM     24  H   UNL     1       4.909  -3.962  -6.594  0.00  0.00    +0.295 HD
ENDBRANCH  21  23
ENDBRANCH  17  21
ENDBRANCH   5  17
TORSDOF 10
