REMARK  Name = 
REMARK  9 active torsions:
REMARK  status: ('A' for Active; 'I' for Inactive)
REMARK    1  A    between atoms: C_1  and  C_2
REMARK    2  A    between atoms: C_2  and  C_3
REMARK    3  A    between atoms: C_2  and  C_4
REMARK    4  A    between atoms: C_4  and  C_6
REMARK    5  A    between atoms: C_4  and  C_12
REMARK    6  A    between atoms: C_6  and  O_8
REMARK    7  A    between atoms: C_6  and  C_9
REMARK    8  A    between atoms: C_9  and  O_10
REMARK    9  A    between atoms: C_12  and  O_13
REMARK                            x       y       z     vdW  Elec       q    Type
REMARK                         _______ _______ _______ _____ _____    ______ ____
ROOT
ATOM      1  C   UNL     1       3.215   0.701  -2.492  0.00  0.00    +0.139 C 
ENDROOT
BRANCH   1   3
ATOM      2  C   UNL     1       5.312  -0.499  -1.530  0.00  0.00    +0.008 C 
ATOM      3  C   UNL     1       4.657   0.162  -2.742  0.00  0.00    -0.000 C 
ATOM      4  C   UNL     1       4.765  -0.763  -3.960  0.00  0.00    +0.008 C 
ENDBRANCH   1   3
BRANCH   1   5
ATOM      5  C   UNL     1       3.125   1.794  -1.424  0.00  0.00    +0.311 C 
ATOM      6  O   UNL     1       2.156   1.936  -0.684  0.00  0.00    -0.251 OA
BRANCH   5   7
ATOM      7  O   UNL     1       4.146   2.671  -1.369  0.00  0.00    -0.480 OA
ATOM      8  H   UNL     1       4.875   2.554  -2.001  0.00  0.00    +0.295 HD
ENDBRANCH   5   7
ENDBRANCH   1   5
BRANCH   1   9
ATOM      9  C   UNL     1       2.116  -0.329  -2.146  0.00  0.00    +0.236 C 
BRANCH   9  10
ATOM     10  C   UNL     1       1.811  -1.301  -3.282  0.00  0.00    +0.334 C 
ATOM     11  O   UNL     1       1.453  -0.983  -4.403  0.00  0.00    -0.248 OA
BRANCH  10  12
ATOM     12  O   UNL     1       2.008  -2.590  -2.896  0.00  0.00    -0.479 OA
ATOM     13  H   UNL     1       2.341  -2.572  -1.965  0.00  0.00    +0.295 HD
ENDBRANCH  10  12
ENDBRANCH   9  10
BRANCH   9  14
ATOM     14  O   UNL     1       2.430  -1.111  -0.980  0.00  0.00    -0.380 OA
ATOM     15  H   UNL     1       1.704  -0.947  -0.344  0.00  0.00    +0.211 HD
ENDBRANCH   9  14
ENDBRANCH   1   9
TORSDOF 7
