REMARK  Name = 
REMARK  7 active torsions:
REMARK  status: ('A' for Active; 'I' for Inactive)
REMARK    1  A    between atoms: C_1  and  C_2
REMARK    2  A    between atoms: C_2  and  C_3
REMARK    3  A    between atoms: C_2  and  C_4
REMARK    4  A    between atoms: C_4  and  C_5
REMARK    5  A    between atoms: C_5  and  C_6
REMARK    6  A    between atoms: C_6  and  C_8
REMARK    7  A    between atoms: C_8  and  C_9
REMARK                            x       y       z     vdW  Elec       q    Type
REMARK                         _______ _______ _______ _____ _____    ______ ____
ROOT
ATOM      1  C   UNL     1       6.836   2.246   3.935  0.00  0.00    +0.121 C 
ATOM      2  C   UNL     1       5.610   2.634   4.687  0.00  0.00    -0.014 A 
ATOM      3  C   UNL     1       5.514   4.020   4.734  0.00  0.00    +0.042 A 
ATOM      4  C   UNL     1       4.381   4.635   5.236  0.00  0.00    +0.013 A 
ATOM      5  C   UNL     1       3.342   3.812   5.703  0.00  0.00    +0.001 A 
ATOM      6  C   UNL     1       3.465   2.411   5.693  0.00  0.00    +0.000 A 
ATOM      7  C   UNL     1       6.756   4.593   4.151  0.00  0.00    +0.253 C 
ATOM      8  O   UNL     1       6.970   5.789   4.113  0.00  0.00    -0.270 OA
ATOM      9  C   UNL     1       4.613   1.807   5.185  0.00  0.00    +0.006 A 
ATOM     10  N   UNL     1       7.556   3.505   3.774  0.00  0.00    -0.244 N 
ATOM     11  C   UNL     1       8.881   3.553   3.261  0.00  0.00    +0.131 A 
ATOM     12  C   UNL     1       9.639   2.382   3.283  0.00  0.00    +0.045 A 
ATOM     13  C   UNL     1      10.896   2.354   2.707  0.00  0.00    +0.015 A 
ATOM     14  C   UNL     1      11.385   3.509   2.119  0.00  0.00    +0.019 A 
ATOM     15  C   UNL     1      12.641   3.493   1.500  0.00  0.00    +0.014 A 
ATOM     16  C   UNL     1      13.108   4.653   0.914  0.00  0.00    +0.041 A 
ATOM     17  C   UNL     1      12.290   5.764   0.993  0.00  0.00    +0.132 A 
ATOM     18  N   UNL     1      11.074   5.797   1.584  0.00  0.00    -0.216 NA
ATOM     19 CL   UNL     1      12.801   7.250   0.301  0.00  0.00    -0.062 Cl
ATOM     20  C   UNL     1      10.603   4.683   2.148  0.00  0.00    +0.163 A 
ATOM     21  N   UNL     1       9.382   4.681   2.718  0.00  0.00    -0.212 NA
ENDROOT
BRANCH   1  22
ATOM     22  C   UNL     1       6.490   1.575   2.597  0.00  0.00    +0.102 C 
BRANCH  22  23
ATOM     23  C   UNL     1       5.623   2.415   1.667  0.00  0.00    +0.135 C 
ATOM     24  O   UNL     1       4.476   2.745   1.970  0.00  0.00    -0.297 OA
BRANCH  23  25
ATOM     25  C   UNL     1       6.181   2.763   0.304  0.00  0.00    +0.074 C 
BRANCH  25  26
ATOM     26  C   UNL     1       6.313   1.524  -0.582  0.00  0.00    +0.010 C 
BRANCH  26  28
ATOM     27  C   UNL     1       3.972   1.637  -1.589  0.00  0.00    +0.007 C 
ATOM     28  C   UNL     1       4.991   0.773  -0.846  0.00  0.00    -0.017 C 
ATOM     29  C   UNL     1       5.269  -0.503  -1.644  0.00  0.00    +0.007 C 
ENDBRANCH  26  28
ENDBRANCH  25  26
ENDBRANCH  23  25
ENDBRANCH  22  23
ENDBRANCH   1  22
TORSDOF 5
