REMARK  Name = 
REMARK  9 active torsions:
REMARK  status: ('A' for Active; 'I' for Inactive)
REMARK    1  A    between atoms: C_1  and  C_2
REMARK    2  A    between atoms: C_2  and  C_3
REMARK    3  A    between atoms: C_3  and  C_4
REMARK    4  A    between atoms: N_6  and  C_7
REMARK    5  A    between atoms: C_13  and  C_14
REMARK    6  A    between atoms: C_15  and  C_16
REMARK    7  A    between atoms: C_15  and  C_18
REMARK    8  A    between atoms: C_16  and  C_17
REMARK    9  A    between atoms: C_18  and  O_19
REMARK                            x       y       z     vdW  Elec       q    Type
REMARK                         _______ _______ _______ _____ _____    ______ ____
ROOT
ATOM      1  C   UNL     1       6.735   1.523  -1.780  0.00  0.00    +0.061 A 
ATOM      2  C   UNL     1       7.397   2.162  -0.702  0.00  0.00    +0.044 A 
ATOM      3  I   UNL     1       6.350   2.456   1.163  0.00  0.00    -0.041 I 
ATOM      4  C   UNL     1       8.791   2.415  -0.743  0.00  0.00    +0.004 A 
ATOM      5  C   UNL     1       9.525   1.871  -1.816  0.00  0.00    +0.023 A 
ATOM      6  I   UNL     1      11.620   2.078  -1.989  0.00  0.00    -0.043 I 
ATOM      7  C   UNL     1       8.898   1.124  -2.818  0.00  0.00    +0.031 A 
ATOM      8  C   UNL     1       7.514   0.958  -2.806  0.00  0.00    +0.037 A 
ATOM      9  I   UNL     1       6.655  -0.117  -4.401  0.00  0.00    -0.042 I 
ENDROOT
BRANCH   1  11
ATOM     10  C   UNL     1       4.563   2.636  -1.846  0.00  0.00    +0.217 C 
ATOM     11  N   UNL     1       5.316   1.469  -1.899  0.00  0.00    -0.284 N 
ATOM     12  H   UNL     1       4.964   0.784  -2.561  0.00  0.00    +0.155 HD
ATOM     13  O   UNL     1       5.018   3.760  -1.654  0.00  0.00    -0.275 OA
BRANCH  10  14
ATOM     14  C   UNL     1       3.089   2.427  -2.130  0.00  0.00    +0.096 C 
BRANCH  14  16
ATOM     15  C   UNL     1       3.298   2.767  -4.638  0.00  0.00    +0.004 C 
ATOM     16  C   UNL     1       2.641   3.235  -3.347  0.00  0.00    +0.006 C 
ENDBRANCH  14  16
ENDBRANCH  10  14
ENDBRANCH   1  11
BRANCH   4  17
ATOM     17  C   UNL     1       9.468   3.214   0.303  0.00  0.00    +0.020 C 
ATOM     18  C   UNL     1       9.680   4.551   0.323  0.00  0.00    +0.037 C 
BRANCH  18  19
ATOM     19  C   UNL     1      10.450   5.138   1.473  0.00  0.00    +0.333 C 
ATOM     20  O   UNL     1      10.275   6.273   1.887  0.00  0.00    -0.245 OA
BRANCH  19  21
ATOM     21  O   UNL     1      11.419   4.340   1.966  0.00  0.00    -0.477 OA
ATOM     22  H   UNL     1      11.616   3.558   1.421  0.00  0.00    +0.295 HD
ENDBRANCH  19  21
ENDBRANCH  18  19
BRANCH  18  23
ATOM     23  C   UNL     1       9.222   5.641  -0.630  0.00  0.00    +0.039 C 
ATOM     24  C   UNL     1       8.312   5.300  -1.798  0.00  0.00    +0.009 C 
ENDBRANCH  18  23
ENDBRANCH   4  17
TORSDOF 7
