REMARK  Name = 
REMARK  5 active torsions:
REMARK  status: ('A' for Active; 'I' for Inactive)
REMARK    1  A    between atoms: C_1  and  C_2
REMARK    2  A    between atoms: C_4  and  C_5
REMARK    3  A    between atoms: C_6  and  C_8
REMARK    4  A    between atoms: N_11  and  C_12
REMARK    5  A    between atoms: C_16  and  O_17
REMARK                            x       y       z     vdW  Elec       q    Type
REMARK                         _______ _______ _______ _____ _____    ______ ____
ROOT
ATOM      1  C   UNL     1       5.962  -1.923   0.004  0.00  0.00    +0.084 A 
ATOM      2  C   UNL     1       7.313  -1.696   0.169  0.00  0.00    +0.049 A 
ATOM      3  C   UNL     1       8.113  -2.806   0.189  0.00  0.00    +0.116 A 
ATOM      4  N   UNL     1       7.639  -4.052   0.066  0.00  0.00    -0.223 NA
ATOM      5  C   UNL     1       6.317  -4.204  -0.088  0.00  0.00    +0.220 A 
ATOM      6  N   UNL     1       5.755  -5.472  -0.220  0.00  0.00    -0.284 N 
ATOM      7  H   UNL     1       4.765  -5.389  -0.393  0.00  0.00    +0.155 HD
ATOM      8  N   UNL     1       5.462  -3.171  -0.143  0.00  0.00    -0.214 NA
ENDROOT
BRANCH   1  12
ATOM      9  C   UNL     1       3.446   2.747   0.194  0.00  0.00    +0.073 C 
ATOM     10  C   UNL     1       3.790   1.304   0.090  0.00  0.00    +0.076 A 
ATOM     11  S   UNL     1       5.424   0.814   0.134  0.00  0.00    -0.071 S 
ATOM     12  C   UNL     1       4.954  -0.845   0.001  0.00  0.00    +0.060 A 
ATOM     13  C   UNL     1       3.563  -0.896  -0.084  0.00  0.00    +0.055 A 
ATOM     14  C   UNL     1       2.704  -2.106  -0.209  0.00  0.00    +0.067 C 
ATOM     15  N   UNL     1       2.915   0.334  -0.031  0.00  0.00    -0.249 NA
ENDBRANCH   1  12
BRANCH   6  16
ATOM     16  C   UNL     1       6.212  -6.736   0.186  0.00  0.00    +0.037 A 
ATOM     17  C   UNL     1       7.399  -6.936   0.900  0.00  0.00    +0.068 A 
ATOM     18  C   UNL     1       7.823  -8.219   1.243  0.00  0.00    +0.119 A 
ATOM     19  C   UNL     1       7.090  -9.336   0.871  0.00  0.00    +0.045 A 
ATOM     20  C   UNL     1       5.917  -9.163   0.141  0.00  0.00    +0.005 A 
ATOM     21  C   UNL     1       5.488  -7.875  -0.202  0.00  0.00    +0.023 A 
BRANCH  18  22
ATOM     22  O   UNL     1       8.980  -8.331   1.960  0.00  0.00    -0.507 OA
ATOM     23  H   UNL     1       9.158  -9.272   2.114  0.00  0.00    +0.292 HD
ENDBRANCH  18  22
ENDBRANCH   6  16
TORSDOF 3
