REMARK  Name = 
REMARK  3 active torsions:
REMARK  status: ('A' for Active; 'I' for Inactive)
REMARK    1  A    between atoms: C_1  and  C_2
REMARK    2  A    between atoms: C_2  and  C_3
REMARK    3  A    between atoms: C_3  and  O_4
REMARK                            x       y       z     vdW  Elec       q    Type
REMARK                         _______ _______ _______ _____ _____    ______ ____
ROOT
ATOM      1  C   UNL     1       4.761   0.556   3.193  0.00  0.00    +0.188 C 
ATOM      2  C   UNL     1       5.903   1.151   4.034  0.00  0.00    +0.008 A 
ATOM      3  C   UNL     1       6.047   1.341   5.521  0.00  0.00    +0.035 A 
ATOM      4  C   UNL     1       6.641   2.462   5.999  0.00  0.00    +0.071 A 
ATOM      5  C   UNL     1       7.087   3.090   7.302  0.00  0.00    +0.093 A 
ATOM      6  C   UNL     1       7.262   4.445   7.041  0.00  0.00    +0.000 A 
ATOM      7  C   UNL     1       7.681   5.345   8.000  0.00  0.00    +0.017 A 
ATOM      8  C   UNL     1       8.077   4.833   9.223  0.00  0.00    +0.001 A 
ATOM      9  C   UNL     1       8.062   3.419   9.420  0.00  0.00    +0.072 A 
ATOM     10  C   UNL     1       8.657   3.015  10.620  0.00  0.00    +0.028 A 
ATOM     11  C   UNL     1       9.150   3.915  11.592  0.00  0.00    +0.002 A 
ATOM     12  C   UNL     1       9.066   5.287  11.387  0.00  0.00    +0.001 A 
ATOM     13  C   UNL     1       8.539   5.747  10.194  0.00  0.00    +0.010 A 
ATOM     14  C   UNL     1       7.078   4.759   5.609  0.00  0.00    +0.162 C 
ATOM     15  N   UNL     1       7.526   2.548   8.463  0.00  0.00    -0.245 NA
ATOM     16  N   UNL     1       6.935   3.433   5.039  0.00  0.00    -0.302 N 
ATOM     17  C   UNL     1       7.136   3.190   3.717  0.00  0.00    +0.259 A 
ATOM     18  O   UNL     1       7.510   4.044   2.922  0.00  0.00    -0.267 OA
ATOM     19  C   UNL     1       6.818   1.802   3.279  0.00  0.00    +0.061 A 
ATOM     20  C   UNL     1       7.152   1.483   1.865  0.00  0.00    +0.273 C 
ATOM     21  O   UNL     1       6.152   0.756   1.155  0.00  0.00    -0.457 OA
ATOM     22  C   UNL     1       5.330  -0.054   1.862  0.00  0.00    +0.344 C 
ATOM     23  O   UNL     1       4.944  -1.111   1.370  0.00  0.00    -0.247 OA
ENDROOT
BRANCH   1  25
ATOM     24  C   UNL     1       2.861   0.014   4.886  0.00  0.00    +0.007 C 
ATOM     25  C   UNL     1       3.701  -0.440   3.709  0.00  0.00    +0.048 C 
ENDBRANCH   1  25
BRANCH   1  26
ATOM     26  O   UNL     1       3.999   1.728   2.767  0.00  0.00    -0.373 OA
ATOM     27  H   UNL     1       3.440   1.460   2.016  0.00  0.00    +0.211 HD
ENDBRANCH   1  26
TORSDOF 2
