REMARK  Name = 
REMARK  19 active torsions:
REMARK  status: ('A' for Active; 'I' for Inactive)
REMARK    1  A    between atoms: C_1  and  C_2
REMARK    2  A    between atoms: C_2  and  C_3
REMARK    3  A    between atoms: C_3  and  C_5
REMARK    4  A    between atoms: C_3  and  C_6
REMARK    5  A    between atoms: C_6  and  N_8
REMARK    6  A    between atoms: C_6  and  C_22
REMARK    7  A    between atoms: N_8  and  S_9
REMARK    8  A    between atoms: S_9  and  C_12
REMARK    9  A    between atoms: C_12  and  C_13
REMARK   10  A    between atoms: C_15  and  C_19
REMARK   11  A    between atoms: C_19  and  O_20
REMARK   12  A    between atoms: N_24  and  C_25
REMARK   13  A    between atoms: C_25  and  C_27
REMARK   14  A    between atoms: C_25  and  C_32
REMARK   15  A    between atoms: C_27  and  C_28
REMARK   16  A    between atoms: C_28  and  C_29
REMARK   17  A    between atoms: N_34  and  C_35
REMARK   18  A    between atoms: C_35  and  C_36
REMARK   19  A    between atoms: C_39  and  C_42
REMARK                            x       y       z     vdW  Elec       q    Type
REMARK                         _______ _______ _______ _____ _____    ______ ____
ROOT
ATOM      1  C   UNL     1       7.246   0.423   1.950  0.00  0.00    +0.159 C 
ENDROOT
BRANCH   1   3
ATOM      2  C   UNL     1       5.033   1.707   2.249  0.00  0.00    +0.233 C 
ATOM      3  N   UNL     1       6.388   1.539   2.379  0.00  0.00    -0.303 N 
ATOM      4  H   UNL     1       6.785   2.122   3.118  0.00  0.00    +0.149 HD
ATOM      5  O   UNL     1       4.491   2.553   2.958  0.00  0.00    -0.274 OA
BRANCH   2   6
ATOM      6  C   UNL     1       4.272   0.923   1.162  0.00  0.00    +0.164 C 
BRANCH   6   7
ATOM      7  C   UNL     1       2.740   0.800   1.372  0.00  0.00    +0.013 C 
ATOM      8  C   UNL     1       2.414   0.288   2.784  0.00  0.00    +0.009 C 
BRANCH   7  10
ATOM      9  C   UNL     1       0.634  -0.261   0.312  0.00  0.00    +0.004 C 
ATOM     10  C   UNL     1       2.151  -0.151   0.299  0.00  0.00    +0.002 C 
ENDBRANCH   7  10
ENDBRANCH   6   7
BRANCH   6  11
ATOM     11  N   UNL     1       4.615   1.453  -0.186  0.00  0.00    -0.182 NA
ATOM     12  H   UNL     1       4.591   0.774  -0.951  0.00  0.00    +0.148 HD
BRANCH  11  13
ATOM     13  S   UNL     1       4.212   2.958  -0.772  0.00  0.00    +0.034 S 
ATOM     14  O   UNL     1       2.795   3.143  -0.577  0.00  0.00    -0.158 OA
ATOM     15  O   UNL     1       4.768   2.964  -2.113  0.00  0.00    -0.158 OA
BRANCH  13  16
ATOM     16  C   UNL     1       5.149   4.136   0.222  0.00  0.00    +0.220 C 
BRANCH  16  17
ATOM     17  C   UNL     1       4.728   5.528  -0.162  0.00  0.00    -0.024 A 
ATOM     18  C   UNL     1       3.590   6.106   0.425  0.00  0.00    +0.005 A 
ATOM     19  C   UNL     1       3.194   7.393   0.085  0.00  0.00    +0.001 A 
ATOM     20  C   UNL     1       3.934   8.126  -0.846  0.00  0.00    +0.015 A 
ATOM     21  C   UNL     1       5.058   7.553  -1.455  0.00  0.00    +0.059 A 
ATOM     22  C   UNL     1       5.457   6.258  -1.106  0.00  0.00    +0.020 A 
BRANCH  21  23
ATOM     23  C   UNL     1       5.899   8.281  -2.440  0.00  0.00    +0.337 C 
ATOM     24  O   UNL     1       7.084   8.041  -2.596  0.00  0.00    -0.245 OA
BRANCH  23  25
ATOM     25  O   UNL     1       5.232   9.202  -3.165  0.00  0.00    -0.477 OA
ATOM     26  H   UNL     1       4.262   9.162  -3.087  0.00  0.00    +0.295 HD
ENDBRANCH  23  25
ENDBRANCH  21  23
ENDBRANCH  16  17
ENDBRANCH  13  16
ENDBRANCH  11  13
ENDBRANCH   6  11
ENDBRANCH   2   6
ENDBRANCH   1   3
BRANCH   1  27
ATOM     27  C   UNL     1       8.577   0.514   2.746  0.00  0.00    +0.234 C 
ATOM     28  N   UNL     1       9.390  -0.584   2.594  0.00  0.00    -0.310 N 
ATOM     29  H   UNL     1       8.986  -1.456   2.280  0.00  0.00    +0.149 HD
ATOM     30  O   UNL     1       8.886   1.501   3.410  0.00  0.00    -0.274 OA
BRANCH  28  31
ATOM     31  C   UNL     1      10.755  -0.648   3.054  0.00  0.00    +0.139 C 
BRANCH  31  32
ATOM     32  C   UNL     1      10.820  -1.521   4.272  0.00  0.00    -0.030 A 
ATOM     33  C   UNL     1      10.612  -0.952   5.534  0.00  0.00    +0.006 A 
ATOM     34  C   UNL     1      10.572  -1.761   6.667  0.00  0.00    +0.016 A 
ATOM     35  C   UNL     1      10.731  -3.145   6.550  0.00  0.00    +0.065 A 
ATOM     36  C   UNL     1      10.945  -3.717   5.293  0.00  0.00    +0.016 A 
ATOM     37  C   UNL     1      10.984  -2.908   4.156  0.00  0.00    +0.006 A 
BRANCH  35  38
ATOM     38  C   UNL     1      10.665  -3.989   7.774  0.00  0.00    +0.308 C 
ATOM     39  N   UNL     1      10.242  -5.213   7.763  0.00  0.00    -0.099 NA
ATOM     40  H   UNL     1       9.920  -5.490   6.833  0.00  0.00    +0.363 HD
ATOM     41  N   UNL     1      11.058  -3.486   8.977  0.00  0.00    -0.247 N 
ATOM     42  H   UNL     1      11.157  -4.226   9.665  0.00  0.00    +0.288 HD
ATOM     43  H   UNL     1      11.849  -2.854   8.963  0.00  0.00    +0.288 HD
ENDBRANCH  35  38
ENDBRANCH  31  32
ENDBRANCH  28  31
ENDBRANCH   1  27
BRANCH   1  44
ATOM     44  C   UNL     1       7.545   0.455   0.441  0.00  0.00    +0.044 C 
BRANCH  44  45
ATOM     45  C   UNL     1       8.299  -0.757  -0.101  0.00  0.00    +0.130 C 
BRANCH  45  46
ATOM     46  C   UNL     1       8.357  -0.724  -1.607  0.00  0.00    +0.276 C 
ATOM     47  N   UNL     1       7.449  -1.284  -2.329  0.00  0.00    -0.104 NA
ATOM     48  H   UNL     1       6.740  -1.745  -1.752  0.00  0.00    +0.363 HD
ATOM     49  N   UNL     1       9.389  -0.075  -2.206  0.00  0.00    -0.251 N 
ATOM     50  H   UNL     1       9.236   0.079  -3.196  0.00  0.00    +0.288 HD
ATOM     51  H   UNL     1       9.792   0.721  -1.726  0.00  0.00    +0.288 HD
ENDBRANCH  45  46
ENDBRANCH  44  45
ENDBRANCH   1  44
TORSDOF 17
