REMARK  Name = 
REMARK  9 active torsions:
REMARK  status: ('A' for Active; 'I' for Inactive)
REMARK    1  A    between atoms: O_1  and  C_2
REMARK    2  A    between atoms: C_2  and  C_3
REMARK    3  A    between atoms: C_3  and  O_4
REMARK    4  A    between atoms: C_3  and  C_5
REMARK    5  A    between atoms: C_10  and  C_13
REMARK    6  A    between atoms: C_17  and  N_21
REMARK    7  A    between atoms: C_23  and  C_24
REMARK    8  A    between atoms: C_24  and  O_25
REMARK    9  A    between atoms: O_25  and  C_26
REMARK                            x       y       z     vdW  Elec       q    Type
REMARK                         _______ _______ _______ _____ _____    ______ ____
ROOT
ATOM      1  C   UNL     1       7.149  -6.267  -1.692  0.00  0.00    +0.048 A 
ATOM      2  C   UNL     1       6.619  -7.522  -1.350  0.00  0.00    +0.135 A 
ATOM      3  F   UNL     1       5.493  -7.618  -0.621  0.00  0.00    -0.205 F 
ATOM      4  C   UNL     1       7.229  -8.729  -1.717  0.00  0.00    +0.062 A 
ATOM      5  C   UNL     1       8.426  -8.740  -2.434  0.00  0.00    +0.045 A 
ATOM      6  C   UNL     1       8.984  -7.505  -2.759  0.00  0.00    +0.062 A 
ATOM      7  C   UNL     1       8.361  -6.306  -2.393  0.00  0.00    +0.135 A 
ATOM      8  F   UNL     1       8.986  -5.178  -2.760  0.00  0.00    -0.205 F 
ENDROOT
BRANCH   1  13
ATOM      9  C   UNL     1       4.529  -1.255  -0.335  0.00  0.00    +0.247 C 
ATOM     10  N   UNL     1       5.142  -2.464  -0.678  0.00  0.00    -0.295 N 
ATOM     11  C   UNL     1       4.361  -3.663  -0.935  0.00  0.00    +0.135 C 
ATOM     12  C   UNL     1       5.147  -4.886  -1.242  0.00  0.00    -0.004 C 
ATOM     13  C   UNL     1       6.482  -4.980  -1.335  0.00  0.00    -0.036 C 
ATOM     14  C   UNL     1       7.320  -3.748  -1.151  0.00  0.00    +0.054 C 
ATOM     15  C   UNL     1       6.598  -2.477  -0.696  0.00  0.00    +0.113 C 
ATOM     16  O   UNL     1       5.187  -0.251  -0.047  0.00  0.00    -0.273 OA
BRANCH   9  17
ATOM     17  C   UNL     1       2.991  -1.184  -0.407  0.00  0.00    +0.225 C 
BRANCH  17  18
ATOM     18  O   UNL     1       2.598  -1.037  -1.777  0.00  0.00    -0.380 OA
ATOM     19  H   UNL     1       2.873  -0.146  -2.054  0.00  0.00    +0.211 HD
ENDBRANCH  17  18
BRANCH  17  20
ATOM     20  C   UNL     1       2.472  -0.015   0.440  0.00  0.00    +0.196 C 
BRANCH  20  21
ATOM     21  O   UNL     1       1.044  -0.026   0.469  0.00  0.00    -0.392 OA
ATOM     22  H   UNL     1       0.761   0.775   0.942  0.00  0.00    +0.210 HD
ENDBRANCH  20  21
ENDBRANCH  17  20
ENDBRANCH   9  17
ENDBRANCH   1  13
BRANCH   5  23
ATOM     23  N   UNL     1       9.077  -9.953  -2.766  0.00  0.00    -0.233 N 
ATOM     24  C   UNL     1      10.223 -10.107  -3.544  0.00  0.00    +0.408 C 
ATOM     25  O   UNL     1      10.804  -9.278  -4.221  0.00  0.00    -0.226 OA
ATOM     26  O   UNL     1      10.661 -11.405  -3.449  0.00  0.00    -0.442 OA
ATOM     27  C   UNL     1       9.951 -12.026  -2.372  0.00  0.00    +0.233 C 
ATOM     28  C   UNL     1       8.651 -11.251  -2.331  0.00  0.00    +0.165 C 
BRANCH  27  29
ATOM     29  C   UNL     1      10.712 -11.856  -1.050  0.00  0.00    +0.277 C 
BRANCH  29  30
ATOM     30  O   UNL     1      11.954 -12.564  -1.098  0.00  0.00    -0.471 OA
BRANCH  30  31
ATOM     31  C   UNL     1      12.674 -12.415   0.039  0.00  0.00    +0.255 A 
ATOM     32  C   UNL     1      14.070 -12.481   0.156  0.00  0.00    +0.111 A 
ATOM     33  C   UNL     1      14.286 -12.284   1.496  0.00  0.00    +0.234 A 
ATOM     34  O   UNL     1      13.098 -12.129   2.136  0.00  0.00    -0.360 OA
ATOM     35  N   UNL     1      12.068 -12.215   1.212  0.00  0.00    -0.040 NA
ENDBRANCH  30  31
ENDBRANCH  29  30
ENDBRANCH  27  29
ENDBRANCH   5  23
TORSDOF 9
