REMARK  Name = 
REMARK  6 active torsions:
REMARK  status: ('A' for Active; 'I' for Inactive)
REMARK    1  A    between atoms: O_1  and  C_2
REMARK    2  A    between atoms: C_2  and  C_4
REMARK    3  A    between atoms: C_6  and  C_7
REMARK    4  A    between atoms: C_7  and  O_8
REMARK    5  A    between atoms: C_10  and  C_13
REMARK    6  A    between atoms: C_25  and  O_26
REMARK                            x       y       z     vdW  Elec       q    Type
REMARK                         _______ _______ _______ _____ _____    ______ ____
ROOT
ATOM      1  C   UNL     1       4.546   4.695  -2.765  0.00  0.00    +0.004 A 
ATOM      2  C   UNL     1       5.001   4.553  -4.179  0.00  0.00    +0.029 A 
ATOM      3  C   UNL     1       5.297   5.702  -4.928  0.00  0.00    +0.140 A 
ATOM      4  C   UNL     1       5.821   5.632  -6.225  0.00  0.00    +0.095 A 
ATOM      5  C   UNL     1       6.067   4.388  -6.787  0.00  0.00    +0.155 A 
ATOM      6  C   UNL     1       5.767   3.234  -6.067  0.00  0.00    +0.165 A 
ATOM      7  F   UNL     1       6.016   2.026  -6.592  0.00  0.00    -0.202 F 
ATOM      8  O   UNL     1       5.094   6.966  -4.443  0.00  0.00    -0.455 OA
ATOM      9  C   UNL     1       4.572   7.123  -3.172  0.00  0.00    +0.140 A 
ATOM     10  C   UNL     1       4.140   8.337  -2.800  0.00  0.00    +0.100 A 
ATOM     11  C   UNL     1       3.570   8.562  -1.452  0.00  0.00    +0.217 A 
ATOM     12  O   UNL     1       3.031   9.624  -1.169  0.00  0.00    -0.285 OA
ATOM     13  C   UNL     1       3.723   7.451  -0.487  0.00  0.00    +0.171 A 
ATOM     14  F   UNL     1       3.452   7.724   0.804  0.00  0.00    -0.201 F 
ATOM     15  C   UNL     1       4.130   6.237  -0.870  0.00  0.00    +0.054 A 
ATOM     16  C   UNL     1       5.226   3.307  -4.781  0.00  0.00    +0.054 A 
ATOM     17  C   UNL     1       4.428   5.960  -2.279  0.00  0.00    +0.029 A 
ENDROOT
BRANCH   1  21
ATOM     18  C   UNL     1       2.851   1.648  -0.218  0.00  0.00    +0.060 A 
ATOM     19  C   UNL     1       2.077   2.388  -1.107  0.00  0.00    +0.015 A 
ATOM     20  C   UNL     1       2.685   3.319  -1.956  0.00  0.00    +0.010 A 
ATOM     21  C   UNL     1       4.080   3.552  -1.920  0.00  0.00    -0.003 A 
ATOM     22  C   UNL     1       4.861   2.783  -1.034  0.00  0.00    +0.067 A 
ATOM     23  C   UNL     1       4.237   1.812  -0.217  0.00  0.00    +0.030 A 
BRANCH  18  24
ATOM     24  C   UNL     1       2.164   0.714   0.709  0.00  0.00    +0.337 C 
ATOM     25  O   UNL     1       1.118   0.160   0.424  0.00  0.00    -0.245 OA
BRANCH  24  26
ATOM     26  O   UNL     1       2.768   0.586   1.908  0.00  0.00    -0.477 OA
ATOM     27  H   UNL     1       3.497   1.205   2.101  0.00  0.00    +0.295 HD
ENDBRANCH  24  26
ENDBRANCH  18  24
BRANCH  22  28
ATOM     28  C   UNL     1       6.306   2.989  -0.738  0.00  0.00    +0.337 C 
ATOM     29  O   UNL     1       6.750   2.738   0.372  0.00  0.00    -0.245 OA
BRANCH  28  30
ATOM     30  O   UNL     1       7.088   3.429  -1.735  0.00  0.00    -0.477 OA
ATOM     31  H   UNL     1       6.685   3.486  -2.616  0.00  0.00    +0.295 HD
ENDBRANCH  28  30
ENDBRANCH  22  28
ENDBRANCH   1  21
BRANCH   5  32
ATOM     32  O   UNL     1       6.610   4.278  -8.034  0.00  0.00    -0.504 OA
ATOM     33  H   UNL     1       6.775   5.163  -8.402  0.00  0.00    +0.292 HD
ENDBRANCH   5  32
TORSDOF 6
