REMARK  Name = 
REMARK  4 active torsions:
REMARK  status: ('A' for Active; 'I' for Inactive)
REMARK    1  A    between atoms: C_1  and  C_2
REMARK    2  A    between atoms: C_5  and  O_7
REMARK    3  A    between atoms: C_8  and  O_10
REMARK    4  A    between atoms: C_12  and  O_14
REMARK                            x       y       z     vdW  Elec       q    Type
REMARK                         _______ _______ _______ _____ _____    ______ ____
ROOT
ATOM      1  C   UNL     1       2.967   0.325   1.456  0.00  0.00    +0.040 C 
ATOM      2  C   UNL     1       2.474   0.069   0.035  0.00  0.00    +0.147 C 
ATOM      3  C   UNL     1       2.968   1.165  -0.929  0.00  0.00    +0.146 C 
ATOM      4  C   UNL     1       2.572   0.825  -2.365  0.00  0.00    +0.070 C 
ATOM      5  C   UNL     1       2.950  -0.600  -2.736  0.00  0.00    +0.173 C 
ATOM      6  C   UNL     1       2.457  -1.585  -1.652  0.00  0.00    +0.276 C 
ATOM      7  O   UNL     1       2.937  -1.228  -0.365  0.00  0.00    -0.343 OA
ENDROOT
BRANCH   3   8
ATOM      8  O   UNL     1       2.441   2.435  -0.586  0.00  0.00    -0.389 OA
ATOM      9  H   UNL     1       1.485   2.437  -0.763  0.00  0.00    +0.210 HD
ENDBRANCH   3   8
BRANCH   5  10
ATOM     10  O   UNL     1       2.362  -0.861  -4.018  0.00  0.00    -0.387 OA
ATOM     11  H   UNL     1       1.984  -1.755  -3.987  0.00  0.00    +0.210 HD
ENDBRANCH   5  10
BRANCH   6  12
ATOM     12  O   UNL     1       2.928  -2.891  -1.952  0.00  0.00    -0.365 OA
ATOM     13  H   UNL     1       2.742  -3.401  -1.147  0.00  0.00    +0.213 HD
ENDBRANCH   6  12
TORSDOF 3
