REMARK  Name = 
REMARK  21 active torsions:
REMARK  status: ('A' for Active; 'I' for Inactive)
REMARK    1  A    between atoms: C_1  and  C_2
REMARK    2  A    between atoms: N_4  and  C_5
REMARK    3  A    between atoms: C_7  and  O_9
REMARK    4  A    between atoms: C_11  and  C_13
REMARK    5  A    between atoms: C_13  and  O_14
REMARK    6  A    between atoms: C_15  and  O_17
REMARK    7  A    between atoms: O_17  and  C_18
REMARK    8  A    between atoms: C_21  and  C_23
REMARK    9  A    between atoms: C_23  and  O_24
REMARK   10  A    between atoms: C_25  and  O_27
REMARK   11  A    between atoms: O_27  and  C_28
REMARK   12  A    between atoms: C_31  and  C_33
REMARK   13  A    between atoms: C_33  and  O_34
REMARK   14  A    between atoms: C_35  and  O_37
REMARK   15  A    between atoms: C_38  and  O_40
REMARK   16  A    between atoms: C_41  and  N_43
REMARK   17  A    between atoms: C_44  and  C_45
REMARK   18  A    between atoms: C_47  and  O_49
REMARK   19  A    between atoms: C_50  and  N_52
REMARK   20  A    between atoms: C_53  and  C_54
REMARK   21  A    between atoms: C_56  and  O_58
REMARK                            x       y       z     vdW  Elec       q    Type
REMARK                         _______ _______ _______ _____ _____    ______ ____
ROOT
ATOM      1  C   UNL     1       3.054  -3.933  -2.094  0.00  0.00    +0.274 C 
ATOM      2  C   UNL     1       1.509  -3.933  -2.109  0.00  0.00    +0.160 C 
ATOM      3  C   UNL     1       1.016  -5.105  -1.251  0.00  0.00    +0.171 C 
ATOM      4  C   UNL     1       1.561  -6.458  -1.746  0.00  0.00    +0.183 C 
ATOM      5  C   UNL     1       3.089  -6.392  -2.027  0.00  0.00    +0.178 C 
ATOM      6  O   UNL     1       3.554  -5.163  -2.617  0.00  0.00    -0.341 OA
ENDROOT
BRANCH   2   7
ATOM      7  N   UNL     1       0.973  -3.946  -3.486  0.00  0.00    -0.305 N 
ATOM      8  H   UNL     1       1.612  -4.116  -4.254  0.00  0.00    +0.149 HD
ATOM      9  C   UNL     1      -0.352  -3.698  -3.762  0.00  0.00    +0.210 C 
ATOM     10  O   UNL     1      -1.194  -3.502  -2.892  0.00  0.00    -0.276 OA
ATOM     11  C   UNL     1      -0.706  -3.701  -5.228  0.00  0.00    +0.109 C 
ENDBRANCH   2   7
BRANCH   3  12
ATOM     12  O   UNL     1       1.367  -4.955   0.136  0.00  0.00    -0.387 OA
ATOM     13  H   UNL     1       1.907  -4.145   0.241  0.00  0.00    +0.210 HD
ENDBRANCH   3  12
BRANCH   4  14
ATOM     14  O   UNL     1       1.237  -7.576  -0.866  0.00  0.00    -0.341 OA
BRANCH  14  15
ATOM     15  C   UNL     1      -0.174  -7.679  -0.581  0.00  0.00    +0.274 C 
ATOM     16  C   UNL     1      -0.485  -8.698   0.560  0.00  0.00    +0.160 C 
ATOM     17  C   UNL     1      -0.450 -10.144   0.030  0.00  0.00    +0.171 C 
ATOM     18  C   UNL     1      -1.325 -10.273  -1.227  0.00  0.00    +0.176 C 
ATOM     19  C   UNL     1      -0.898  -9.258  -2.300  0.00  0.00    +0.178 C 
ATOM     20  O   UNL     1      -0.921  -7.919  -1.776  0.00  0.00    -0.341 OA
BRANCH  16  21
ATOM     21  N   UNL     1      -1.805  -8.453   1.172  0.00  0.00    -0.305 N 
ATOM     22  H   UNL     1      -2.602  -8.810   0.647  0.00  0.00    +0.149 HD
ATOM     23  C   UNL     1      -2.018  -7.581   2.205  0.00  0.00    +0.210 C 
ATOM     24  O   UNL     1      -1.120  -6.966   2.765  0.00  0.00    -0.276 OA
ATOM     25  C   UNL     1      -3.456  -7.452   2.630  0.00  0.00    +0.109 C 
ENDBRANCH  16  21
BRANCH  17  26
ATOM     26  O   UNL     1       0.877 -10.608  -0.236  0.00  0.00    -0.387 OA
ATOM     27  H   UNL     1       1.501  -9.879  -0.053  0.00  0.00    +0.210 HD
ENDBRANCH  17  26
BRANCH  18  28
ATOM     28  O   UNL     1      -2.704 -10.043  -0.865  0.00  0.00    -0.387 OA
ATOM     29  H   UNL     1      -3.219  -9.985  -1.692  0.00  0.00    +0.210 HD
ENDBRANCH  18  28
BRANCH  19  30
ATOM     30  C   UNL     1       0.423  -9.645  -2.989  0.00  0.00    +0.190 C 
BRANCH  30  31
ATOM     31  O   UNL     1       0.648  -8.833  -4.142  0.00  0.00    -0.392 OA
ATOM     32  H   UNL     1       1.506  -9.108  -4.510  0.00  0.00    +0.210 HD
ENDBRANCH  30  31
ENDBRANCH  19  30
ENDBRANCH  14  15
ENDBRANCH   4  14
BRANCH   1  33
ATOM     33  O   UNL     1       3.546  -3.533  -0.797  0.00  0.00    -0.341 OA
BRANCH  33  36
ATOM     34  C   UNL     1       5.044  -0.897  -1.079  0.00  0.00    +0.160 C 
ATOM     35  C   UNL     1       5.575  -2.263  -1.551  0.00  0.00    +0.171 C 
ATOM     36  C   UNL     1       4.985  -3.399  -0.674  0.00  0.00    +0.183 C 
ATOM     37  C   UNL     1       5.410  -3.045   0.793  0.00  0.00    +0.178 C 
ATOM     38  O   UNL     1       4.919  -1.739   1.193  0.00  0.00    -0.341 OA
ATOM     39  C   UNL     1       5.455  -0.696   0.390  0.00  0.00    +0.270 C 
BRANCH  34  42
ATOM     40  C   UNL     1       6.920   1.741  -3.066  0.00  0.00    +0.109 C 
ATOM     41  C   UNL     1       6.755   0.591  -2.112  0.00  0.00    +0.210 C 
ATOM     42  N   UNL     1       5.444   0.188  -1.985  0.00  0.00    -0.305 N 
ATOM     43  H   UNL     1       4.720   0.842  -2.263  0.00  0.00    +0.149 HD
ATOM     44  O   UNL     1       7.691   0.072  -1.513  0.00  0.00    -0.276 OA
ENDBRANCH  34  42
BRANCH  35  45
ATOM     45  O   UNL     1       5.323  -2.455  -2.948  0.00  0.00    -0.387 OA
ATOM     46  H   UNL     1       5.017  -1.600  -3.301  0.00  0.00    +0.210 HD
ENDBRANCH  35  45
BRANCH  39  47
ATOM     47  O   UNL     1       4.943   0.553   0.840  0.00  0.00    -0.365 OA
ATOM     48  H   UNL     1       5.705   1.157   0.853  0.00  0.00    +0.213 HD
ENDBRANCH  39  47
BRANCH  37  49
ATOM     49  C   UNL     1       4.977  -3.995   1.909  0.00  0.00    +0.190 C 
BRANCH  49  50
ATOM     50  O   UNL     1       5.541  -3.521   3.146  0.00  0.00    -0.392 OA
ATOM     51  H   UNL     1       5.301  -2.574   3.188  0.00  0.00    +0.210 HD
ENDBRANCH  49  50
ENDBRANCH  37  49
ENDBRANCH  33  36
ENDBRANCH   1  33
BRANCH   5  52
ATOM     52  C   UNL     1       4.021  -6.828  -0.889  0.00  0.00    +0.190 C 
BRANCH  52  53
ATOM     53  O   UNL     1       3.826  -6.108   0.312  0.00  0.00    -0.392 OA
ATOM     54  H   UNL     1       2.865  -6.076   0.499  0.00  0.00    +0.210 HD
ENDBRANCH  52  53
ENDBRANCH   5  52
TORSDOF 18
