REMARK  Name = 
REMARK  2 active torsions:
REMARK  status: ('A' for Active; 'I' for Inactive)
REMARK    1  A    between atoms: C_11  and  N_12
REMARK    2  A    between atoms: N_15  and  C_16
REMARK                            x       y       z     vdW  Elec       q    Type
REMARK                         _______ _______ _______ _____ _____    ______ ____
ROOT
ATOM      1  C   UNL     1       2.176   0.065  -0.192  0.00  0.00    +0.109 C 
ATOM      2  C   UNL     1       2.659   1.394   0.281  0.00  0.00    +0.006 A 
ATOM      3  C   UNL     1       2.452   2.672  -0.212  0.00  0.00    +0.040 A 
ATOM      4  C   UNL     1       2.955   3.756   0.530  0.00  0.00    +0.024 A 
ATOM      5  C   UNL     1       3.653   3.560   1.738  0.00  0.00    +0.003 A 
ATOM      6  C   UNL     1       3.838   2.276   2.243  0.00  0.00    +0.013 A 
ATOM      7  C   UNL     1       3.318   1.228   1.507  0.00  0.00    +0.044 A 
ATOM      8  C   UNL     1       3.338  -0.202   1.837  0.00  0.00    +0.247 C 
ATOM      9  O   UNL     1       3.986  -0.703   2.735  0.00  0.00    -0.270 OA
ATOM     10  N   UNL     1       2.556  -0.827   0.886  0.00  0.00    -0.290 N 
ATOM     11  C   UNL     1       2.790  -2.169   0.429  0.00  0.00    +0.109 C 
ATOM     12  C   UNL     1       3.270  -1.972  -1.006  0.00  0.00    +0.021 C 
ATOM     13  C   UNL     1       2.859  -0.543  -1.414  0.00  0.00    +0.029 C 
ENDROOT
BRANCH   3  14
ATOM     14  N   UNL     1       1.778   2.904  -1.431  0.00  0.00    -0.269 N 
ATOM     15  H   UNL     1       1.690   2.131  -2.075  0.00  0.00    +0.156 HD
ATOM     16  C   UNL     1       0.682   3.758  -1.481  0.00  0.00    +0.309 C 
ATOM     17  N   UNL     1       0.313   4.025  -2.784  0.00  0.00    -0.254 N 
ATOM     18  H   UNL     1       1.084   4.274  -3.387  0.00  0.00    +0.158 HD
ATOM     19  O   UNL     1       0.110   4.196  -0.489  0.00  0.00    -0.252 OA
BRANCH  17  20
ATOM     20  C   UNL     1      -0.840   4.764  -3.085  0.00  0.00    +0.126 A 
ATOM     21  N   UNL     1      -0.680   5.733  -4.009  0.00  0.00    -0.240 NA
ATOM     22  C   UNL     1      -1.767   6.487  -4.296  0.00  0.00    +0.113 A 
ATOM     23  C   UNL     1      -3.027   6.267  -3.763  0.00  0.00    +0.020 A 
ATOM     24  C   UNL     1      -3.181   5.220  -2.865  0.00  0.00    +0.005 A 
ATOM     25  C   UNL     1      -2.068   4.465  -2.504  0.00  0.00    +0.044 A 
ENDBRANCH  17  20
ENDBRANCH   3  14
TORSDOF 2
