REMARK  Name = 
REMARK  12 active torsions:
REMARK  status: ('A' for Active; 'I' for Inactive)
REMARK    1  A    between atoms: C_2  and  N_3
REMARK    2  A    between atoms: C_2  and  C_4
REMARK    3  A    between atoms: C_2  and  C_9
REMARK    4  A    between atoms: C_4  and  C_5
REMARK    5  A    between atoms: C_5  and  S_6
REMARK    6  A    between atoms: S_6  and  C_7
REMARK    7  A    between atoms: C_7  and  C_8
REMARK    8  A    between atoms: C_9  and  O_11
REMARK    9  A    between atoms: C_9  and  C_12
REMARK   10  A    between atoms: N_14  and  C_15
REMARK   11  A    between atoms: C_15  and  C_17
REMARK   12  A    between atoms: C_15  and  C_18
REMARK                            x       y       z     vdW  Elec       q    Type
REMARK                         _______ _______ _______ _____ _____    ______ ____
ROOT
ATOM      1  C   UNL     1       4.227  -0.963   0.895  0.00  0.00    +0.244 C 
ATOM      2  N   UNL     1       5.021  -1.717   1.720  0.00  0.00    -0.307 N 
ATOM      3  H   UNL     1       4.533  -2.140   2.513  0.00  0.00    +0.149 HD
ATOM      4  O   UNL     1       4.651  -0.233  -0.003  0.00  0.00    -0.273 OA
ENDROOT
BRANCH   2   5
ATOM      5  C   UNL     1       6.472  -1.696   1.804  0.00  0.00    +0.101 C 
ATOM      6  C   UNL     1       7.173  -1.675   0.441  0.00  0.00    +0.033 C 
BRANCH   5   7
ATOM      7  C   UNL     1       6.919  -0.635   2.808  0.00  0.00    -0.020 A 
ATOM      8  C   UNL     1       7.070   0.692   2.359  0.00  0.00    +0.006 A 
ATOM      9  C   UNL     1       7.384   1.722   3.238  0.00  0.00    +0.001 A 
ATOM     10  C   UNL     1       7.526   1.455   4.594  0.00  0.00    +0.008 A 
ATOM     11  C   UNL     1       7.393   0.152   5.088  0.00  0.00    -0.018 A 
ATOM     12  C   UNL     1       7.545  -0.075   6.466  0.00  0.00    +0.008 A 
ATOM     13  C   UNL     1       7.461  -1.357   7.001  0.00  0.00    +0.001 A 
ATOM     14  C   UNL     1       7.217  -2.431   6.157  0.00  0.00    +0.001 A 
ATOM     15  C   UNL     1       7.032  -2.215   4.786  0.00  0.00    +0.009 A 
ATOM     16  C   UNL     1       7.107  -0.924   4.202  0.00  0.00    -0.013 A 
ENDBRANCH   5   7
ENDBRANCH   2   5
BRANCH   1  17
ATOM     17  C   UNL     1       2.705  -1.033   1.172  0.00  0.00    +0.216 C 
BRANCH  17  18
ATOM     18  O   UNL     1       2.023  -0.876  -0.081  0.00  0.00    -0.381 OA
ATOM     19  H   UNL     1       2.535  -0.202  -0.575  0.00  0.00    +0.210 HD
ENDBRANCH  17  18
BRANCH  17  20
ATOM     20  C   UNL     1       2.199  -2.329   1.870  0.00  0.00    +0.089 C 
BRANCH  20  21
ATOM     21  N   UNL     1       2.876  -2.554   3.171  0.00  0.00    -0.325 NA
ATOM     22  H   UNL     1       2.526  -1.877   3.854  0.00  0.00    +0.119 HD
ATOM     23  H   UNL     1       2.622  -3.472   3.539  0.00  0.00    +0.119 HD
ENDBRANCH  20  21
BRANCH  20  24
ATOM     24  C   UNL     1       0.667  -2.260   2.067  0.00  0.00    +0.032 C 
BRANCH  24  25
ATOM     25  C   UNL     1       0.065  -3.534   2.658  0.00  0.00    +0.071 C 
BRANCH  25  26
ATOM     26  S   UNL     1      -1.731  -3.317   2.852  0.00  0.00    -0.161 S 
BRANCH  26  27
ATOM     27  C   UNL     1      -2.130  -4.935   3.575  0.00  0.00    +0.066 C 
ATOM     28  C   UNL     1      -3.620  -5.011   3.852  0.00  0.00    +0.015 C 
ENDBRANCH  26  27
ENDBRANCH  25  26
ENDBRANCH  24  25
ENDBRANCH  20  24
ENDBRANCH  17  20
ENDBRANCH   1  17
TORSDOF 10
