REMARK  Name = 
REMARK  5 active torsions:
REMARK  status: ('A' for Active; 'I' for Inactive)
REMARK    1  A    between atoms: N_9  and  C1*_10
REMARK    2  A    between atoms: C4*_13  and  C5*_15
REMARK    3  A    between atoms: C5*_15  and  O5*_16
REMARK    4  A    between atoms: C3*_17  and  O3*_19
REMARK    5  A    between atoms: C2*_20  and  O2*_22
REMARK                            x       y       z     vdW  Elec       q    Type
REMARK                         _______ _______ _______ _____ _____    ______ ____
ROOT
ATOM      1  N   UNL     1       1.291   2.667   3.151  0.00  0.00    -0.329 N 
ATOM      2  H   UNL     1       2.112   2.290   3.608  0.00  0.00    +0.145 HD
ATOM      3  H   UNL     1       0.448   2.222   3.508  0.00  0.00    +0.145 HD
ATOM      4  C   UNL     1       1.315   2.630   1.798  0.00  0.00    +0.195 A 
ATOM      5  N   UNL     1       2.492   3.031   1.254  0.00  0.00    -0.313 N 
ATOM      6  H   UNL     1       3.247   3.399   1.821  0.00  0.00    +0.170 HD
ATOM      7  C   UNL     1       2.654   3.062  -0.099  0.00  0.00    +0.138 A 
ATOM      8  N   UNL     1       3.767   3.456  -0.829  0.00  0.00    -0.258 N 
ATOM      9  C   UNL     1       3.669   3.149  -2.186  0.00  0.00    +0.295 A 
ATOM     10  S   UNL     1       2.018   2.627  -2.548  0.00  0.00    -0.019 S 
ATOM     11  O   UNL     1       4.558   3.188  -3.021  0.00  0.00    -0.259 OA
ATOM     12  C   UNL     1       1.645   2.649  -0.876  0.00  0.00    +0.124 A 
ATOM     13  C   UNL     1       0.358   2.222  -0.266  0.00  0.00    +0.290 A 
ATOM     14  O   UNL     1      -0.583   1.866  -0.973  0.00  0.00    -0.264 OA
ATOM     15  N   UNL     1       0.282   2.245   1.120  0.00  0.00    -0.176 NA
ENDROOT
BRANCH   8  16
ATOM     16  C1* UNL     1       5.054   3.810  -0.258  0.00  0.00    +0.256 C 
ATOM     17  C2* UNL     1       5.856   4.938  -0.945  0.00  0.00    +0.195 C 
ATOM     18  C3* UNL     1       5.582   6.187  -0.114  0.00  0.00    +0.178 C 
ATOM     19  C4* UNL     1       4.929   5.676   1.167  0.00  0.00    +0.177 C 
ATOM     20  O4* UNL     1       4.896   4.232   1.118  0.00  0.00    -0.346 OA
BRANCH  17  21
ATOM     21  O2* UNL     1       7.278   4.677  -0.924  0.00  0.00    -0.385 OA
ATOM     22  H2* UNL     1       7.483   4.090  -0.173  0.00  0.00    +0.210 HD
ENDBRANCH  17  21
BRANCH  18  23
ATOM     23  O3* UNL     1       6.795   6.881   0.208  0.00  0.00    -0.386 OA
ATOM     24  H3* UNL     1       7.532   6.302  -0.075  0.00  0.00    +0.210 HD
ENDBRANCH  18  23
BRANCH  19  25
ATOM     25  C5* UNL     1       3.502   6.214   1.350  0.00  0.00    +0.190 C 
BRANCH  25  26
ATOM     26  O5* UNL     1       3.456   7.629   1.407  0.00  0.00    -0.392 OA
ATOM     27  H5* UNL     1       3.619   7.903   2.327  0.00  0.00    +0.210 HD
ENDBRANCH  25  26
ENDBRANCH  19  25
ENDBRANCH   8  16
TORSDOF 5
