REMARK  Name = 
REMARK  13 active torsions:
REMARK  status: ('A' for Active; 'I' for Inactive)
REMARK    1  A    between atoms: C_2  and  C_3
REMARK    2  A    between atoms: C_2  and  N_9
REMARK    3  A    between atoms: C_2  and  C_27
REMARK    4  A    between atoms: C_3  and  C_4
REMARK    5  A    between atoms: C_5  and  C_6
REMARK    6  A    between atoms: C_6  and  O_7
REMARK    7  A    between atoms: O_7  and  C_8
REMARK    8  A    between atoms: N_9  and  S_10
REMARK    9  A    between atoms: S_10  and  C_13
REMARK   10  A    between atoms: C_16  and  C_19
REMARK   11  A    between atoms: C_22  and  O_23
REMARK   12  A    between atoms: O_23  and  C_24
REMARK   13  A    between atoms: C_27  and  O_28
REMARK                            x       y       z     vdW  Elec       q    Type
REMARK                         _______ _______ _______ _____ _____    ______ ____
ROOT
ATOM      1  S   UNL     1       1.916   2.357  -1.270  0.00  0.00    +0.059 S 
ATOM      2  O   UNL     1       3.000   1.519  -0.810  0.00  0.00    -0.153 OA
ATOM      3  O   UNL     1       0.579   2.274  -0.729  0.00  0.00    -0.153 OA
ENDROOT
BRANCH   1   4
ATOM      4  C   UNL     1       2.465   4.034  -1.155  0.00  0.00    +0.105 A 
ATOM      5  C   UNL     1       3.830   4.309  -1.255  0.00  0.00    +0.029 A 
ATOM      6  C   UNL     1       4.264   5.633  -1.295  0.00  0.00    +0.010 A 
ATOM      7  C   UNL     1       3.351   6.701  -1.234  0.00  0.00    -0.018 A 
ATOM      8  C   UNL     1       1.991   6.383  -1.029  0.00  0.00    +0.010 A 
ATOM      9  C   UNL     1       1.545   5.061  -0.985  0.00  0.00    +0.029 A 
BRANCH   7  10
ATOM     10  C   UNL     1       3.778   8.099  -1.467  0.00  0.00    -0.018 A 
ATOM     11  C   UNL     1       4.823   8.399  -2.362  0.00  0.00    +0.012 A 
ATOM     12  C   UNL     1       5.154   9.719  -2.694  0.00  0.00    +0.046 A 
ATOM     13  C   UNL     1       4.438  10.775  -2.142  0.00  0.00    +0.120 A 
ATOM     14  C   UNL     1       3.413  10.503  -1.239  0.00  0.00    +0.046 A 
ATOM     15  C   UNL     1       3.103   9.185  -0.889  0.00  0.00    +0.012 A 
BRANCH  13  16
ATOM     16  O   UNL     1       4.599  12.093  -2.461  0.00  0.00    -0.495 OA
ATOM     17  C   UNL     1       5.910  12.484  -2.850  0.00  0.00    +0.277 C 
ENDBRANCH  13  16
ENDBRANCH   7  10
ENDBRANCH   1   4
BRANCH   1  18
ATOM     18  N   UNL     1       1.779   2.173  -2.938  0.00  0.00    -0.175 NA
ATOM     19  H   UNL     1       0.891   1.738  -3.200  0.00  0.00    +0.149 HD
BRANCH  18  20
ATOM     20  C   UNL     1       2.980   1.720  -3.685  0.00  0.00    +0.196 C 
BRANCH  20  21
ATOM     21  C   UNL     1       3.251   0.249  -3.363  0.00  0.00    +0.324 C 
ATOM     22  O   UNL     1       2.458  -0.651  -3.611  0.00  0.00    -0.249 OA
BRANCH  21  23
ATOM     23  O   UNL     1       4.454   0.006  -2.796  0.00  0.00    -0.479 OA
ATOM     24  H   UNL     1       4.868   0.790  -2.386  0.00  0.00    +0.295 HD
ENDBRANCH  21  23
ENDBRANCH  20  21
BRANCH  20  25
ATOM     25  C   UNL     1       2.767   1.808  -5.206  0.00  0.00    +0.120 C 
BRANCH  25  26
ATOM     26  C   UNL     1       2.597   3.184  -5.712  0.00  0.00    -0.098 C 
ATOM     27  C   UNL     1       2.392   4.365  -6.226  0.00  0.00    -0.074 C 
BRANCH  27  28
ATOM     28  C   UNL     1       2.152   5.741  -6.825  0.00  0.00    +0.247 C 
BRANCH  28  29
ATOM     29  O   UNL     1       1.282   5.622  -7.944  0.00  0.00    -0.371 OA
ATOM     30  C   UNL     1       1.030   6.890  -8.534  0.00  0.00    +0.195 C 
ENDBRANCH  28  29
ENDBRANCH  27  28
ENDBRANCH  25  26
ENDBRANCH  20  25
ENDBRANCH  18  20
ENDBRANCH   1  18
TORSDOF 11
