REMARK  Name = 
REMARK  6 active torsions:
REMARK  status: ('A' for Active; 'I' for Inactive)
REMARK    1  A    between atoms: C_2  and  C_11
REMARK    2  A    between atoms: N_3  and  C_4
REMARK    3  A    between atoms: C_4  and  C_5
REMARK    4  A    between atoms: C_13  and  C_17
REMARK    5  A    between atoms: N_19  and  C_20
REMARK    6  A    between atoms: C_20  and  C_21
REMARK                            x       y       z     vdW  Elec       q    Type
REMARK                         _______ _______ _______ _____ _____    ______ ____
ROOT
ATOM      1  C   UNL     1       3.113  -0.958   0.869  0.00  0.00    +0.129 A 
ATOM      2  N   UNL     1       2.675  -2.241   0.844  0.00  0.00    -0.231 NA
ATOM      3  C   UNL     1       3.374  -3.099   1.601  0.00  0.00    +0.222 A 
ATOM      4  N   UNL     1       4.441  -2.801   2.356  0.00  0.00    -0.231 NA
ATOM      5  C   UNL     1       4.821  -1.499   2.339  0.00  0.00    +0.129 A 
ATOM      6  C   UNL     1       4.187  -0.523   1.610  0.00  0.00    +0.066 A 
ENDROOT
BRANCH   1   8
ATOM      7  O   UNL     1       2.696   1.212   0.016  0.00  0.00    -0.269 OA
ATOM      8  C   UNL     1       2.379   0.027   0.013  0.00  0.00    +0.263 C 
ATOM      9  N   UNL     1       1.352  -0.480  -0.757  0.00  0.00    -0.306 N 
ATOM     10  H   UNL     1       1.067  -1.440  -0.586  0.00  0.00    +0.149 HD
BRANCH   9  11
ATOM     11  C   UNL     1       0.510   0.400  -1.536  0.00  0.00    +0.141 C 
BRANCH  11  12
ATOM     12  C   UNL     1      -0.076  -0.261  -2.748  0.00  0.00    -0.012 A 
ATOM     13  C   UNL     1      -1.444  -0.202  -3.004  0.00  0.00    +0.115 A 
ATOM     14  N   UNL     1      -2.034  -0.697  -4.117  0.00  0.00    -0.263 NA
ATOM     15  C   UNL     1      -1.223  -1.267  -5.031  0.00  0.00    +0.111 A 
ATOM     16  C   UNL     1       0.148  -1.378  -4.879  0.00  0.00    +0.020 A 
ATOM     17  C   UNL     1       0.727  -0.867  -3.720  0.00  0.00    +0.008 A 
ENDBRANCH  11  12
ENDBRANCH   9  11
ENDBRANCH   1   8
BRANCH   5  18
ATOM     18  C   UNL     1       6.020  -1.134   3.165  0.00  0.00    +0.263 C 
ATOM     19  N   UNL     1       6.603  -2.182   3.843  0.00  0.00    -0.306 N 
ATOM     20  H   UNL     1       6.166  -3.091   3.756  0.00  0.00    +0.149 HD
ATOM     21  O   UNL     1       6.428   0.020   3.206  0.00  0.00    -0.269 OA
BRANCH  19  22
ATOM     22  C   UNL     1       7.761  -2.017   4.693  0.00  0.00    +0.141 C 
BRANCH  22  23
ATOM     23  C   UNL     1       7.441  -2.375   6.113  0.00  0.00    -0.012 A 
ATOM     24  C   UNL     1       6.878  -1.443   6.990  0.00  0.00    +0.008 A 
ATOM     25  C   UNL     1       6.561  -1.822   8.291  0.00  0.00    +0.020 A 
ATOM     26  C   UNL     1       6.812  -3.128   8.673  0.00  0.00    +0.111 A 
ATOM     27  N   UNL     1       7.354  -4.058   7.857  0.00  0.00    -0.263 NA
ATOM     28  C   UNL     1       7.655  -3.660   6.600  0.00  0.00    +0.115 A 
ENDBRANCH  22  23
ENDBRANCH  19  22
ENDBRANCH   5  18
TORSDOF 6
