REMARK  Name = 
REMARK  11 active torsions:
REMARK  status: ('A' for Active; 'I' for Inactive)
REMARK    1  A    between atoms: O_1  and  C_2
REMARK    2  A    between atoms: C_2  and  C_3
REMARK    3  A    between atoms: C_3  and  C_4
REMARK    4  A    between atoms: C_4  and  O_6
REMARK    5  A    between atoms: C_4  and  C_7
REMARK    6  A    between atoms: C_7  and  O_9
REMARK    7  A    between atoms: C_7  and  C_10
REMARK    8  A    between atoms: C_10  and  O_11
REMARK    9  A    between atoms: O_11  and  P_12
REMARK   10  A    between atoms: P_12  and  O_13
REMARK   11  A    between atoms: P_12  and  O_14
REMARK                            x       y       z     vdW  Elec       q    Type
REMARK                         _______ _______ _______ _____ _____    ______ ____
ROOT
ATOM      1  C   UNL     1       4.796  -0.747   3.044  0.00  0.00    +0.169 C 
ENDROOT
BRANCH   1   2
ATOM      2  O   UNL     1       4.226  -2.016   3.386  0.00  0.00    -0.387 OA
ATOM      3  H   UNL     1       4.640  -2.684   2.814  0.00  0.00    +0.210 HD
ENDBRANCH   1   2
BRANCH   1   4
ATOM      4  C   UNL     1       4.358   0.352   4.042  0.00  0.00    +0.147 C 
BRANCH   4   5
ATOM      5  O   UNL     1       4.777   0.046   5.373  0.00  0.00    -0.389 OA
ATOM      6  H   UNL     1       4.852   0.894   5.841  0.00  0.00    +0.210 HD
ENDBRANCH   4   5
BRANCH   4   7
ATOM      7  C   UNL     1       2.829   0.539   4.022  0.00  0.00    +0.062 C 
BRANCH   7   8
ATOM      8  C   UNL     1       2.355   1.652   4.933  0.00  0.00    +0.158 C 
BRANCH   8   9
ATOM      9  O   UNL     1       2.972   2.886   4.556  0.00  0.00    -0.395 OA
ATOM     10  H   UNL     1       2.563   3.585   5.097  0.00  0.00    +0.209 HD
ENDBRANCH   8   9
ENDBRANCH   7   8
ENDBRANCH   4   7
ENDBRANCH   1   4
BRANCH   1  11
ATOM     11  C   UNL     1       6.322  -0.832   2.883  0.00  0.00    +0.206 C 
BRANCH  11  12
ATOM     12  O   UNL     1       7.002  -1.223   4.080  0.00  0.00    -0.284 OA
BRANCH  12  13
ATOM     13  P   UNL     1       8.725  -1.380   4.063  0.00  0.00    +0.472 P 
ATOM     14  O   UNL     1      10.267  -1.521   4.047  0.00  0.00    -0.228 OA
BRANCH  13  15
ATOM     15  O   UNL     1       8.820   0.022   3.231  0.00  0.00    -0.303 OA
ATOM     16  H   UNL     1       9.776   0.191   3.119  0.00  0.00    +0.222 HD
ENDBRANCH  13  15
BRANCH  13  17
ATOM     17  O   UNL     1       8.546  -2.430   2.818  0.00  0.00    -0.303 OA
ATOM     18  H   UNL     1       8.518  -3.340   3.163  0.00  0.00    +0.222 HD
ENDBRANCH  13  17
ENDBRANCH  12  13
ENDBRANCH  11  12
ENDBRANCH   1  11
TORSDOF 11
