REMARK  Name = 
REMARK  5 active torsions:
REMARK  status: ('A' for Active; 'I' for Inactive)
REMARK    1  A    between atoms: N_1  and  CA_2
REMARK    2  A    between atoms: CA_2  and  C_4
REMARK    3  A    between atoms: CA_2  and  C_14
REMARK    4  A    between atoms: C_4  and  N_5
REMARK    5  A    between atoms: C_14  and  O_15
REMARK                            x       y       z     vdW  Elec       q    Type
REMARK                         _______ _______ _______ _____ _____    ______ ____
ROOT
ATOM      1  N   UNL     1       2.550  -0.702  -2.446  0.00  0.00    -0.297 N 
ATOM      2  C   UNL     1       3.210  -1.921  -2.532  0.00  0.00    +0.329 A 
ATOM      3  O   UNL     1       4.137  -2.240  -1.790  0.00  0.00    -0.246 OA
ATOM      4  N   UNL     1       2.713  -2.805  -3.446  0.00  0.00    -0.274 N 
ATOM      5  H   UNL     1       3.134  -3.721  -3.461  0.00  0.00    +0.173 HD
ATOM      6  C   UNL     1       1.542  -2.664  -4.140  0.00  0.00    +0.268 A 
ATOM      7  O   UNL     1       1.064  -3.604  -4.766  0.00  0.00    -0.267 OA
ATOM      8  C   UNL     1       0.899  -1.326  -4.058  0.00  0.00    +0.098 A 
ATOM      9 BR   UNL     1      -0.626  -0.979  -5.063  0.00  0.00    -0.043 Br
ATOM     10  C   UNL     1       1.439  -0.428  -3.222  0.00  0.00    +0.111 A 
ENDROOT
BRANCH   1  11
ATOM     11  C   UNL     1       2.991   0.288  -1.447  0.00  0.00    +0.156 C 
BRANCH  11  12
ATOM     12  CA  UNL     1       2.416   0.060  -0.030  0.00  0.00    +0.181 C 
BRANCH  12  13
ATOM     13  N   UNL     1       2.753  -1.264   0.585  0.00  0.00    -0.317 NA
ATOM     14  H1  UNL     1       2.840  -1.959  -0.167  0.00  0.00    +0.119 HD
ATOM     15  H2  UNL     1       3.730  -1.210   0.903  0.00  0.00    +0.119 HD
ENDBRANCH  12  13
BRANCH  12  16
ATOM     16  C   UNL     1       0.891   0.213  -0.063  0.00  0.00    +0.323 C 
ATOM     17  OXT UNL     1       0.293   1.157  -0.556  0.00  0.00    -0.249 OA
BRANCH  16  18
ATOM     18  O   UNL     1       0.271  -0.849   0.512  0.00  0.00    -0.479 OA
ATOM     19  H   UNL     1       0.996  -1.430   0.857  0.00  0.00    +0.295 HD
ENDBRANCH  16  18
ENDBRANCH  12  16
ENDBRANCH  11  12
ENDBRANCH   1  11
TORSDOF 5
