REMARK  Name = 
REMARK  6 active torsions:
REMARK  status: ('A' for Active; 'I' for Inactive)
REMARK    1  A    between atoms: C_4  and  O_5
REMARK    2  A    between atoms: C_8  and  C_9
REMARK    3  A    between atoms: C_9  and  N_10
REMARK    4  A    between atoms: N_10  and  C_11
REMARK    5  A    between atoms: C_14  and  C_17
REMARK    6  A    between atoms: C_17  and  O_18
REMARK                            x       y       z     vdW  Elec       q    Type
REMARK                         _______ _______ _______ _____ _____    ______ ____
ROOT
ATOM      1  N   UNL     1       1.177  -0.819   1.218  0.00  0.00    -0.288 N 
ATOM      2  H   UNL     1       0.577  -1.004   0.430  0.00  0.00    +0.149 HD
ATOM      3  H   UNL     1       0.731  -0.730   2.128  0.00  0.00    +0.149 HD
ATOM      4  C   UNL     1       2.541  -0.878   1.237  0.00  0.00    +0.375 A 
ATOM      5  N   UNL     1       3.199  -1.064   0.103  0.00  0.00    -0.156 N 
ATOM      6  H   UNL     1       2.702  -1.175  -0.769  0.00  0.00    +0.458 HD
ATOM      7  C   UNL     1       4.536  -1.104   0.049  0.00  0.00    +0.337 A 
ATOM      8  C   UNL     1       5.269  -0.921   1.228  0.00  0.00    +0.218 A 
ATOM      9  N   UNL     1       6.625  -0.916   1.214  0.00  0.00    -0.236 NA
ATOM     10  C   UNL     1       7.266  -1.159   0.042  0.00  0.00    +0.078 A 
ATOM     11  C   UNL     1       6.528  -1.359  -1.114  0.00  0.00    +0.142 A 
ATOM     12  C   UNL     1       4.492  -0.756   2.368  0.00  0.00    +0.253 A 
ATOM     13  N   UNL     1       5.166  -1.313  -1.138  0.00  0.00    -0.191 NA
ATOM     14  N   UNL     1       3.151  -0.727   2.416  0.00  0.00    -0.134 NA
ENDROOT
BRANCH  12  15
ATOM     15  O   UNL     1       5.084  -0.614   3.588  0.00  0.00    -0.491 OA
ATOM     16  H   UNL     1       4.339  -0.538   4.211  0.00  0.00    +0.294 HD
ENDBRANCH  12  15
BRANCH  10  17
ATOM     17  C   UNL     1       8.781  -1.207   0.043  0.00  0.00    +0.158 C 
BRANCH  17  18
ATOM     18  N   UNL     1       9.302  -2.566   0.232  0.00  0.00    -0.338 N 
ATOM     19  H   UNL     1      10.078  -2.750  -0.404  0.00  0.00    +0.146 HD
BRANCH  18  20
ATOM     20  C   UNL     1       9.657  -2.987   1.527  0.00  0.00    +0.027 A 
ATOM     21  C   UNL     1      10.640  -3.979   1.670  0.00  0.00    +0.024 A 
ATOM     22  C   UNL     1      10.999  -4.480   2.929  0.00  0.00    +0.017 A 
ATOM     23  C   UNL     1      10.351  -4.021   4.078  0.00  0.00    +0.059 A 
ATOM     24  C   UNL     1       9.322  -3.090   3.951  0.00  0.00    +0.017 A 
ATOM     25  C   UNL     1       8.988  -2.584   2.688  0.00  0.00    +0.024 A 
BRANCH  23  26
ATOM     26  C   UNL     1      10.734  -4.593   5.392  0.00  0.00    +0.337 C 
ATOM     27  O   UNL     1      11.171  -5.724   5.511  0.00  0.00    -0.245 OA
BRANCH  26  28
ATOM     28  O   UNL     1      10.580  -3.745   6.429  0.00  0.00    -0.477 OA
ATOM     29  H   UNL     1      10.409  -2.817   6.189  0.00  0.00    +0.295 HD
ENDBRANCH  26  28
ENDBRANCH  23  26
ENDBRANCH  18  20
ENDBRANCH  17  18
ENDBRANCH  10  17
TORSDOF 6
