REMARK  Name = 
REMARK  8 active torsions:
REMARK  status: ('A' for Active; 'I' for Inactive)
REMARK    1  A    between atoms: O_1  and  C_2
REMARK    2  A    between atoms: C_2  and  C_3
REMARK    3  A    between atoms: C_3  and  O_5
REMARK    4  A    between atoms: C_3  and  C_6
REMARK    5  A    between atoms: C_9  and  O_11
REMARK    6  A    between atoms: C_12  and  O_14
REMARK    7  A    between atoms: C_15  and  O_17
REMARK    8  A    between atoms: C_18  and  O_20
REMARK                            x       y       z     vdW  Elec       q    Type
REMARK                         _______ _______ _______ _____ _____    ______ ____
ROOT
ATOM      1  C   UNL     1       4.322  -0.673  -1.314  0.00  0.00    +0.183 C 
ATOM      2  C   UNL     1       4.766   0.428  -2.292  0.00  0.00    +0.177 C 
ATOM      3  C   UNL     1       4.358   0.070  -3.722  0.00  0.00    +0.179 C 
ATOM      4  C   UNL     1       4.777  -1.343  -4.094  0.00  0.00    +0.201 C 
ATOM      5  C   UNL     1       4.275  -2.318  -3.022  0.00  0.00    +0.279 C 
ATOM      6  O   UNL     1       4.759  -1.981  -1.734  0.00  0.00    -0.340 OA
ENDROOT
BRANCH   2   7
ATOM      7  O   UNL     1       4.120   1.665  -1.951  0.00  0.00    -0.386 OA
ATOM      8  H   UNL     1       4.240   2.242  -2.728  0.00  0.00    +0.210 HD
ENDBRANCH   2   7
BRANCH   3   9
ATOM      9  O   UNL     1       4.928   1.025  -4.631  0.00  0.00    -0.386 OA
ATOM     10  H   UNL     1       4.836   0.621  -5.519  0.00  0.00    +0.210 HD
ENDBRANCH   3   9
BRANCH   4  11
ATOM     11  O   UNL     1       4.217  -1.654  -5.382  0.00  0.00    -0.384 OA
ATOM     12  H   UNL     1       4.282  -2.627  -5.464  0.00  0.00    +0.210 HD
ENDBRANCH   4  11
BRANCH   5  13
ATOM     13  O   UNL     1       4.750  -3.614  -3.350  0.00  0.00    -0.365 OA
ATOM     14  H   UNL     1       4.671  -4.111  -2.518  0.00  0.00    +0.213 HD
ENDBRANCH   5  13
BRANCH   1  15
ATOM     15  C   UNL     1       4.816  -0.384   0.119  0.00  0.00    +0.171 C 
BRANCH  15  16
ATOM     16  O   UNL     1       6.253  -0.443   0.192  0.00  0.00    -0.387 OA
ATOM     17  H   UNL     1       6.448  -0.412   1.147  0.00  0.00    +0.210 HD
ENDBRANCH  15  16
BRANCH  15  18
ATOM     18  C   UNL     1       4.238  -1.382   1.129  0.00  0.00    +0.189 C 
BRANCH  18  19
ATOM     19  O   UNL     1       4.678  -1.005   2.436  0.00  0.00    -0.392 OA
ATOM     20  H   UNL     1       4.261  -1.623   3.061  0.00  0.00    +0.210 HD
ENDBRANCH  18  19
ENDBRANCH  15  18
ENDBRANCH   1  15
TORSDOF 8
