REMARK  Name = 
REMARK  10 active torsions:
REMARK  status: ('A' for Active; 'I' for Inactive)
REMARK    1  A    between atoms: C_2  and  O_3
REMARK    2  A    between atoms: C_5  and  O_6
REMARK    3  A    between atoms: C_5  and  C_23
REMARK    4  A    between atoms: C_8  and  C_10
REMARK    5  A    between atoms: C_10  and  C_11
REMARK    6  A    between atoms: C_11  and  C_12
REMARK    7  A    between atoms: C_12  and  O_13
REMARK    8  A    between atoms: O_13  and  C_14
REMARK    9  A    between atoms: C_20  and  O_22
REMARK   10  A    between atoms: C_23  and  O_24
REMARK                            x       y       z     vdW  Elec       q    Type
REMARK                         _______ _______ _______ _____ _____    ______ ____
ROOT
ATOM      1  C   UNL     1       2.034  -0.044   0.186  0.00  0.00    +0.146 C 
ATOM      2  C   UNL     1       2.485   1.015  -0.847  0.00  0.00    +0.146 C 
ATOM      3  C   UNL     1       2.049   0.650  -2.280  0.00  0.00    +0.023 C 
ATOM      4  C   UNL     1       2.464  -0.784  -2.641  0.00  0.00    +0.052 C 
ATOM      5  C   UNL     1       2.019  -1.819  -1.599  0.00  0.00    +0.165 C 
ATOM      6  C   UNL     1       2.499  -1.447  -0.200  0.00  0.00    +0.080 C 
ENDROOT
BRANCH   2   7
ATOM      7  O   UNL     1       1.923   2.296  -0.532  0.00  0.00    -0.389 OA
ATOM      8  H   UNL     1       0.993   2.175  -0.278  0.00  0.00    +0.210 HD
ENDBRANCH   2   7
BRANCH   5   9
ATOM      9  C   UNL     1       2.584  -3.194  -2.012  0.00  0.00    +0.337 C 
ATOM     10  O   UNL     1       3.770  -3.459  -2.118  0.00  0.00    -0.248 OA
BRANCH   9  11
ATOM     11  O   UNL     1       1.594  -4.079  -2.278  0.00  0.00    -0.479 OA
ATOM     12  H   UNL     1       0.733  -3.648  -2.077  0.00  0.00    +0.295 HD
ENDBRANCH   9  11
ENDBRANCH   5   9
BRANCH   5  13
ATOM     13  O   UNL     1       0.579  -1.913  -1.570  0.00  0.00    -0.377 OA
ATOM     14  H   UNL     1       0.209  -1.363  -2.286  0.00  0.00    +0.211 HD
ENDBRANCH   5  13
BRANCH   1  15
ATOM     15  O   UNL     1       2.566   0.287   1.470  0.00  0.00    -0.389 OA
ATOM     16  H   UNL     1       2.158  -0.303   2.127  0.00  0.00    +0.210 HD
ENDBRANCH   1  15
BRANCH   3  17
ATOM     17  C   UNL     1       2.605   1.670  -3.303  0.00  0.00    +0.009 C 
BRANCH  17  18
ATOM     18  C   UNL     1       2.169   1.438  -4.754  0.00  0.00    +0.041 C 
BRANCH  18  19
ATOM     19  C   UNL     1       0.655   1.482  -4.950  0.00  0.00    +0.229 C 
BRANCH  19  20
ATOM     20  O   UNL     1       0.391   1.228  -6.328  0.00  0.00    -0.492 OA
BRANCH  20  21
ATOM     21  C   UNL     1      -0.919   1.315  -6.712  0.00  0.00    +0.120 A 
ATOM     22  C   UNL     1      -2.023   1.069  -5.894  0.00  0.00    +0.045 A 
ATOM     23  C   UNL     1      -3.316   1.168  -6.418  0.00  0.00    +0.004 A 
ATOM     24  C   UNL     1      -3.506   1.512  -7.756  0.00  0.00    +0.000 A 
ATOM     25  C   UNL     1      -2.405   1.746  -8.576  0.00  0.00    +0.004 A 
ATOM     26  C   UNL     1      -1.115   1.638  -8.055  0.00  0.00    +0.045 A 
ENDBRANCH  20  21
ENDBRANCH  19  20
ENDBRANCH  18  19
ENDBRANCH  17  18
ENDBRANCH   3  17
TORSDOF 10
