REMARK  Name = 
REMARK  13 active torsions:
REMARK  status: ('A' for Active; 'I' for Inactive)
REMARK    1  A    between atoms: O_1  and  C_2
REMARK    2  A    between atoms: C_4  and  O_6
REMARK    3  A    between atoms: C_7  and  O_8
REMARK    4  A    between atoms: C_7  and  C_9
REMARK    5  A    between atoms: C_9  and  O_10
REMARK    6  A    between atoms: O_10  and  P_11
REMARK    7  A    between atoms: P_11  and  O_12
REMARK    8  A    between atoms: P_11  and  O_13
REMARK    9  A    between atoms: C_16  and  C_18
REMARK   10  A    between atoms: C_18  and  O_19
REMARK   11  A    between atoms: O_19  and  P_20
REMARK   12  A    between atoms: P_20  and  O_21
REMARK   13  A    between atoms: P_20  and  O_22
REMARK                            x       y       z     vdW  Elec       q    Type
REMARK                         _______ _______ _______ _____ _____    ______ ____
ROOT
ATOM      1  C   UNL     1       2.315   0.079   0.107  0.00  0.00    +0.179 C 
ATOM      2  C   UNL     1       3.027  -1.096   0.798  0.00  0.00    +0.179 C 
ATOM      3  O   UNL     1       4.271  -0.588   1.325  0.00  0.00    -0.336 OA
ATOM      4  C   UNL     1       4.274   0.833   1.199  0.00  0.00    +0.221 C 
ATOM      5  C   UNL     1       2.831   1.287   0.876  0.00  0.00    +0.207 C 
ENDROOT
BRANCH   1   6
ATOM      6  O   UNL     1       2.647   0.175  -1.280  0.00  0.00    -0.386 OA
ATOM      7  H   UNL     1       3.590   0.414  -1.350  0.00  0.00    +0.210 HD
ENDBRANCH   1   6
BRANCH   4   8
ATOM      8  O   UNL     1       5.088   1.068   0.050  0.00  0.00    -0.361 OA
ATOM      9  H   UNL     1       5.672   0.286   0.039  0.00  0.00    +0.213 HD
ENDBRANCH   4   8
BRANCH   5  10
ATOM     10  O   UNL     1       2.004   1.540   2.009  0.00  0.00    -0.384 OA
ATOM     11  H   UNL     1       1.153   1.869   1.668  0.00  0.00    +0.210 HD
ENDBRANCH   5  10
BRANCH   2  12
ATOM     12  C   UNL     1       3.339  -2.262  -0.125  0.00  0.00    +0.206 C 
BRANCH  12  13
ATOM     13  O   UNL     1       3.941  -3.306   0.633  0.00  0.00    -0.284 OA
BRANCH  13  14
ATOM     14  P   UNL     1       4.474  -4.585  -0.159  0.00  0.00    +0.472 P 
ATOM     15  O   UNL     1       5.204  -5.601   0.650  0.00  0.00    -0.228 OA
BRANCH  14  16
ATOM     16  O   UNL     1       5.341  -3.994  -1.362  0.00  0.00    -0.303 OA
ATOM     17  H   UNL     1       6.268  -3.869  -1.092  0.00  0.00    +0.222 HD
ENDBRANCH  14  16
BRANCH  14  18
ATOM     18  O   UNL     1       3.174  -5.164  -0.879  0.00  0.00    -0.303 OA
ATOM     19  H   UNL     1       2.694  -5.767  -0.284  0.00  0.00    +0.222 HD
ENDBRANCH  14  18
ENDBRANCH  13  14
ENDBRANCH  12  13
ENDBRANCH   2  12
BRANCH   4  20
ATOM     20  C   UNL     1       4.912   1.449   2.455  0.00  0.00    +0.239 C 
BRANCH  20  21
ATOM     21  O   UNL     1       4.173   1.113   3.621  0.00  0.00    -0.281 OA
BRANCH  21  22
ATOM     22  P   UNL     1       4.654   1.705   5.020  0.00  0.00    +0.473 P 
ATOM     23  O   UNL     1       5.548   2.889   4.965  0.00  0.00    -0.228 OA
BRANCH  22  24
ATOM     24  O   UNL     1       5.251   0.399   5.722  0.00  0.00    -0.303 OA
ATOM     25  H   UNL     1       6.120   0.150   5.369  0.00  0.00    +0.222 HD
ENDBRANCH  22  24
BRANCH  22  26
ATOM     26  O   UNL     1       3.254   1.885   5.763  0.00  0.00    -0.303 OA
ATOM     27  H   UNL     1       2.564   2.154   5.134  0.00  0.00    +0.222 HD
ENDBRANCH  22  26
ENDBRANCH  21  22
ENDBRANCH  20  21
ENDBRANCH   4  20
TORSDOF 13
