REMARK  Name = 
REMARK  8 active torsions:
REMARK  status: ('A' for Active; 'I' for Inactive)
REMARK    1  A    between atoms: C_1  and  C_2
REMARK    2  A    between atoms: C_2  and  C_3
REMARK    3  A    between atoms: C_6  and  C_7
REMARK    4  A    between atoms: C_6  and  C_8
REMARK    5  A    between atoms: C_13  and  N_14
REMARK    6  A    between atoms: C_15  and  C_17
REMARK    7  A    between atoms: C_20  and  C_23
REMARK    8  A    between atoms: C_23  and  O_24
REMARK                            x       y       z     vdW  Elec       q    Type
REMARK                         _______ _______ _______ _____ _____    ______ ____
ROOT
ATOM      1  C   UNL     1       1.024   0.028  -0.028  0.00  0.00    +0.016 C 
ATOM      2  C   UNL     1       2.567  -0.057  -0.009  0.00  0.00    -0.010 C 
ATOM      3  C   UNL     1       3.088   0.672   1.236  0.00  0.00    -0.038 A 
ATOM      4  C   UNL     1       3.033   2.076   1.270  0.00  0.00    +0.006 A 
ATOM      5  C   UNL     1       3.497   2.808   2.365  0.00  0.00    +0.023 A 
ATOM      6  C   UNL     1       4.026   2.166   3.475  0.00  0.00    +0.034 A 
ATOM      7  C   UNL     1       4.072   0.766   3.465  0.00  0.00    +0.027 A 
ATOM      8  C   UNL     1       3.592  -0.005   2.371  0.00  0.00    -0.036 A 
ATOM      9  C   UNL     1       3.666  -1.538   2.434  0.00  0.00    -0.009 C 
ATOM     10  C   UNL     1       5.141  -1.970   2.282  0.00  0.00    +0.016 C 
ATOM     11  C   UNL     1       3.133  -2.083   3.780  0.00  0.00    +0.016 C 
ATOM     12  C   UNL     1       2.813  -2.200   1.327  0.00  0.00    +0.012 C 
ATOM     13  C   UNL     1       3.013  -1.535  -0.025  0.00  0.00    +0.012 C 
ATOM     14  C   UNL     1       3.101   0.580  -1.314  0.00  0.00    +0.016 C 
ENDROOT
BRANCH   6  15
ATOM     15  N   UNL     1       4.503   2.850   4.623  0.00  0.00    -0.281 N 
ATOM     16  H   UNL     1       4.802   2.263   5.388  0.00  0.00    +0.155 HD
ATOM     17  C   UNL     1       4.507   4.224   4.808  0.00  0.00    +0.248 C 
ATOM     18  O   UNL     1       4.129   5.068   4.002  0.00  0.00    -0.270 OA
BRANCH  17  19
ATOM     19  C   UNL     1       4.983   4.728   6.129  0.00  0.00    +0.037 A 
ATOM     20  C   UNL     1       4.455   5.951   6.573  0.00  0.00    +0.014 A 
ATOM     21  C   UNL     1       4.879   6.517   7.776  0.00  0.00    +0.016 A 
ATOM     22  C   UNL     1       5.839   5.865   8.554  0.00  0.00    +0.059 A 
ATOM     23  C   UNL     1       6.394   4.657   8.103  0.00  0.00    +0.016 A 
ATOM     24  C   UNL     1       5.963   4.086   6.895  0.00  0.00    +0.014 A 
BRANCH  22  25
ATOM     25  C   UNL     1       6.271   6.527   9.812  0.00  0.00    +0.337 C 
ATOM     26  O   UNL     1       6.258   7.736   9.961  0.00  0.00    -0.245 OA
BRANCH  25  27
ATOM     27  O   UNL     1       6.630   5.668  10.787  0.00  0.00    -0.477 OA
ATOM     28  H   UNL     1       6.411   4.734  10.621  0.00  0.00    +0.295 HD
ENDBRANCH  25  27
ENDBRANCH  22  25
ENDBRANCH  17  19
ENDBRANCH   6  15
TORSDOF 4
