REMARK  Name = 
REMARK  7 active torsions:
REMARK  status: ('A' for Active; 'I' for Inactive)
REMARK    1  A    between atoms: C_1  and  N_2
REMARK    2  A    between atoms: N_5  and  C_6
REMARK    3  A    between atoms: C_6  and  C_7
REMARK    4  A    between atoms: C_10  and  C_13
REMARK    5  A    between atoms: N_15  and  C_16
REMARK    6  A    between atoms: C_20  and  N_21
REMARK    7  A    between atoms: C_26  and  C_28
REMARK                            x       y       z     vdW  Elec       q    Type
REMARK                         _______ _______ _______ _____ _____    ______ ____
ROOT
ATOM      1  C   UNL     1       5.537   3.680  -9.322  0.00  0.00    +0.035 A 
ATOM      2  C   UNL     1       6.669   3.935 -10.089  0.00  0.00    +0.046 A 
ATOM      3  C   UNL     1       6.628   4.761 -11.214  0.00  0.00    +0.035 A 
ATOM      4  C   UNL     1       5.390   5.319 -11.565  0.00  0.00    +0.023 A 
ATOM      5  C   UNL     1       4.235   5.035 -10.827  0.00  0.00    +0.004 A 
ATOM      6  C   UNL     1       4.310   4.221  -9.698  0.00  0.00    +0.023 A 
ENDROOT
BRANCH   3   7
ATOM      7  N   UNL     1       7.769   5.067 -11.967  0.00  0.00    -0.284 N 
ATOM      8  H   UNL     1       7.631   5.598 -12.814  0.00  0.00    +0.155 HD
ATOM      9  C   UNL     1       9.048   4.512 -11.965  0.00  0.00    +0.220 A 
ATOM     10  N   UNL     1       9.461   3.712 -10.966  0.00  0.00    -0.214 NA
ATOM     11  C   UNL     1      10.683   3.150 -11.034  0.00  0.00    +0.077 A 
ATOM     12  C   UNL     1      11.516   3.395 -12.105  0.00  0.00    +0.048 A 
ATOM     13  C   UNL     1      11.024   4.234 -13.076  0.00  0.00    +0.116 A 
ATOM     14  N   UNL     1       9.808   4.802 -13.026  0.00  0.00    -0.223 NA
BRANCH  11  15
ATOM     15  C   UNL     1      11.035   2.255  -9.916  0.00  0.00    +0.019 A 
ATOM     16  C   UNL     1      11.920   1.174 -10.052  0.00  0.00    +0.013 A 
ATOM     17  C   UNL     1      12.231   0.363  -8.960  0.00  0.00    +0.020 A 
ATOM     18  C   UNL     1      11.636   0.641  -7.742  0.00  0.00    +0.111 A 
ATOM     19  N   UNL     1      10.765   1.650  -7.557  0.00  0.00    -0.263 NA
ATOM     20  C   UNL     1      10.490   2.426  -8.640  0.00  0.00    +0.120 A 
ENDBRANCH  11  15
ENDBRANCH   3   7
BRANCH   1  22
ATOM     21  C   UNL     1       5.071   3.125  -6.991  0.00  0.00    +0.248 C 
ATOM     22  N   UNL     1       5.706   2.867  -8.188  0.00  0.00    -0.281 N 
ATOM     23  H   UNL     1       6.552   2.314  -8.146  0.00  0.00    +0.155 HD
ATOM     24  O   UNL     1       4.385   4.115  -6.765  0.00  0.00    -0.270 OA
BRANCH  21  28
ATOM     25  C   UNL     1       5.017   0.198  -3.904  0.00  0.00    -0.033 A 
ATOM     26  C   UNL     1       5.534  -0.156  -5.160  0.00  0.00    +0.005 A 
ATOM     27  C   UNL     1       5.656   0.806  -6.163  0.00  0.00    +0.013 A 
ATOM     28  C   UNL     1       5.273   2.128  -5.905  0.00  0.00    +0.037 A 
ATOM     29  C   UNL     1       4.890   2.504  -4.612  0.00  0.00    +0.013 A 
ATOM     30  C   UNL     1       4.768   1.545  -3.613  0.00  0.00    +0.005 A 
BRANCH  25  31
ATOM     31  C   UNL     1       4.532  -0.870  -2.947  0.00  0.00    +0.119 C 
BRANCH  31  36
ATOM     32  C   UNL     1       0.565  -3.590  -3.535  0.00  0.00    +0.105 C 
ATOM     33  N   UNL     1       2.021  -3.535  -3.669  0.00  0.00    -0.303 NA
ATOM     34  C   UNL     1       2.668  -3.304  -2.361  0.00  0.00    +0.099 C 
ATOM     35  C   UNL     1       2.597  -1.849  -1.835  0.00  0.00    +0.100 C 
ATOM     36  N   UNL     1       3.060  -0.834  -2.799  0.00  0.00    -0.296 NA
ATOM     37  C   UNL     1       2.338  -1.043  -4.076  0.00  0.00    +0.100 C 
ATOM     38  C   UNL     1       2.423  -2.485  -4.627  0.00  0.00    +0.099 C 
ENDBRANCH  31  36
ENDBRANCH  25  31
ENDBRANCH  21  28
ENDBRANCH   1  22
TORSDOF 6
