REMARK  Name = 
REMARK  12 active torsions:
REMARK  status: ('A' for Active; 'I' for Inactive)
REMARK    1  A    between atoms: C_4  and  C_5
REMARK    2  A    between atoms: C_10  and  C_11
REMARK    3  A    between atoms: C_16  and  C_18
REMARK    4  A    between atoms: C_18  and  C_19
REMARK    5  A    between atoms: C_18  and  C_21
REMARK    6  A    between atoms: C_21  and  C_22
REMARK    7  A    between atoms: C_23  and  C_24
REMARK    8  A    between atoms: C_24  and  C_25
REMARK    9  A    between atoms: C_24  and  C_26
REMARK   10  A    between atoms: C_24  and  O_27
REMARK   11  A    between atoms: C_29  and  O_30
REMARK   12  A    between atoms: C_33  and  O_34
REMARK                            x       y       z     vdW  Elec       q    Type
REMARK                         _______ _______ _______ _____ _____    ______ ____
ROOT
ATOM      1  C   UNL     1       1.648  -2.385   1.395  0.00  0.00    -0.000 C 
ATOM      2  C   UNL     1       1.670  -3.203   2.501  0.00  0.00    -0.066 C 
ATOM      3  C   UNL     1       2.677  -4.222   2.988  0.00  0.00    +0.021 C 
ATOM      4  C   UNL     1       3.948  -4.071   2.169  0.00  0.00    +0.009 C 
ATOM      5  C   UNL     1       5.002  -4.794   2.911  0.00  0.00    +0.005 C 
ATOM      6  C   UNL     1       4.700  -4.683   4.421  0.00  0.00    -0.001 C 
ATOM      7  C   UNL     1       3.175  -4.103   4.510  0.00  0.00    -0.022 C 
ATOM      8  C   UNL     1       2.494  -4.902   5.644  0.00  0.00    +0.012 C 
ATOM      9  C   UNL     1       2.864  -2.622   4.997  0.00  0.00    +0.008 C 
ATOM     10  C   UNL     1       1.449  -2.063   4.574  0.00  0.00    +0.005 C 
ATOM     11  C   UNL     1       0.671  -2.914   3.573  0.00  0.00    +0.031 C 
ENDROOT
BRANCH   1  19
ATOM     12  C   UNL     1       1.371   0.604  -0.029  0.00  0.00    +0.015 C 
ATOM     13  C   UNL     1       2.656   0.214   0.008  0.00  0.00    -0.023 C 
ATOM     14  C   UNL     1       3.777   1.221   0.216  0.00  0.00    +0.147 C 
ATOM     15  C   UNL     1       4.792   1.176  -0.922  0.00  0.00    +0.067 C 
ATOM     16  C   UNL     1       5.302  -0.248  -1.139  0.00  0.00    +0.122 C 
ATOM     17  C   UNL     1       4.130  -1.228  -1.378  0.00  0.00    +0.067 C 
ATOM     18  C   UNL     1       3.048  -1.163  -0.307  0.00  0.00    -0.040 C 
ATOM     19  C   UNL     1       2.579  -2.288   0.276  0.00  0.00    +0.004 C 
BRANCH  14  20
ATOM     20  O   UNL     1       4.448   0.971   1.450  0.00  0.00    -0.387 OA
ATOM     21  H   UNL     1       4.263   0.054   1.713  0.00  0.00    +0.210 HD
ENDBRANCH  14  20
BRANCH  16  22
ATOM     22  O   UNL     1       6.174  -0.240  -2.271  0.00  0.00    -0.391 OA
ATOM     23  H   UNL     1       6.607  -1.110  -2.317  0.00  0.00    +0.210 HD
ENDBRANCH  16  22
ENDBRANCH   1  19
BRANCH   6  24
ATOM     24  C   UNL     1       5.028  -6.170   4.949  0.00  0.00    +0.001 C 
ATOM     25  C   UNL     1       5.090  -6.419   6.467  0.00  0.00    +0.009 C 
BRANCH  24  26
ATOM     26  C   UNL     1       6.348  -6.754   4.370  0.00  0.00    +0.092 C 
BRANCH  26  27
ATOM     27  C   UNL     1       7.555  -5.916   4.761  0.00  0.00    -0.099 C 
ATOM     28  C   UNL     1       8.590  -5.198   5.097  0.00  0.00    -0.068 C 
BRANCH  28  29
ATOM     29  C   UNL     1       9.772  -4.394   5.451  0.00  0.00    +0.121 C 
ATOM     30  C   UNL     1       9.851  -3.154   4.567  0.00  0.00    +0.055 C 
ATOM     31  C   UNL     1      11.049  -5.226   5.333  0.00  0.00    +0.055 C 
BRANCH  29  32
ATOM     32  O   UNL     1       9.650  -3.955   6.803  0.00  0.00    -0.377 OA
ATOM     33  H   UNL     1       9.422  -4.737   7.334  0.00  0.00    +0.211 HD
ENDBRANCH  29  32
ENDBRANCH  28  29
ENDBRANCH  26  27
ENDBRANCH  24  26
ENDBRANCH   6  24
TORSDOF 8
