REMARK  Name = 
REMARK  18 active torsions:
REMARK  status: ('A' for Active; 'I' for Inactive)
REMARK    1  A    between atoms: O_1  and  C_2
REMARK    2  A    between atoms: C_2  and  C_3
REMARK    3  A    between atoms: C_6  and  O_8
REMARK    4  A    between atoms: O_8  and  C_9
REMARK    5  A    between atoms: C_11  and  O_13
REMARK    6  A    between atoms: C_14  and  O_16
REMARK    7  A    between atoms: C_17  and  O_19
REMARK    8  A    between atoms: O_19  and  C_20
REMARK    9  A    between atoms: C_22  and  O_24
REMARK   10  A    between atoms: C_25  and  O_27
REMARK   11  A    between atoms: C_28  and  O_30
REMARK   12  A    between atoms: C_32  and  C_34
REMARK   13  A    between atoms: C_34  and  O_35
REMARK   14  A    between atoms: C_37  and  C_39
REMARK   15  A    between atoms: C_39  and  O_40
REMARK   16  A    between atoms: C_41  and  O_43
REMARK   17  A    between atoms: C_44  and  O_46
REMARK   18  A    between atoms: C_47  and  O_49
REMARK                            x       y       z     vdW  Elec       q    Type
REMARK                         _______ _______ _______ _____ _____    ______ ____
ROOT
ATOM      1  C   UNL     1       2.533  -2.536   0.343  0.00  0.00    +0.183 C 
ATOM      2  C   UNL     1       1.881  -2.389   1.811  0.00  0.00    +0.178 C 
ATOM      3  O   UNL     1       0.763  -1.467   1.952  0.00  0.00    -0.341 OA
ATOM      4  C   UNL     1       0.845  -0.182   1.280  0.00  0.00    +0.282 C 
ATOM      5  C   UNL     1       1.505  -0.341  -0.068  0.00  0.00    +0.201 C 
ATOM      6  C   UNL     1       2.881  -1.078   0.084  0.00  0.00    +0.179 C 
ENDROOT
BRANCH   6   7
ATOM      7  O   UNL     1       3.740  -0.566   1.111  0.00  0.00    -0.386 OA
ATOM      8  H   UNL     1       3.831   0.397   0.975  0.00  0.00    +0.210 HD
ENDBRANCH   6   7
BRANCH   5   9
ATOM      9  O   UNL     1       0.454  -0.967  -0.850  0.00  0.00    -0.384 OA
ATOM     10  H   UNL     1       0.448  -1.915  -0.612  0.00  0.00    +0.210 HD
ENDBRANCH   5   9
BRANCH   4  11
ATOM     11  O   UNL     1       1.380   0.926   2.011  0.00  0.00    -0.340 OA
BRANCH  11  12
ATOM     12  C   UNL     1       1.259   2.193   1.325  0.00  0.00    +0.183 C 
ATOM     13  C   UNL     1       2.002   3.305   2.108  0.00  0.00    +0.178 C 
ATOM     14  O   UNL     1       1.407   3.495   3.392  0.00  0.00    -0.341 OA
ATOM     15  C   UNL     1       0.018   3.860   3.331  0.00  0.00    +0.279 C 
ATOM     16  C   UNL     1      -0.880   2.946   2.454  0.00  0.00    +0.201 C 
ATOM     17  C   UNL     1      -0.193   2.709   1.109  0.00  0.00    +0.179 C 
BRANCH  17  18
ATOM     18  O   UNL     1      -0.191   3.909   0.310  0.00  0.00    -0.386 OA
ATOM     19  H   UNL     1      -0.138   4.681   0.916  0.00  0.00    +0.210 HD
ENDBRANCH  17  18
BRANCH  16  20
ATOM     20  O   UNL     1      -1.190   1.731   3.123  0.00  0.00    -0.384 OA
ATOM     21  H   UNL     1      -1.576   1.107   2.485  0.00  0.00    +0.210 HD
ENDBRANCH  16  20
BRANCH  15  22
ATOM     22  O   UNL     1      -0.105   5.195   2.835  0.00  0.00    -0.365 OA
ATOM     23  H   UNL     1      -0.602   5.680   3.517  0.00  0.00    +0.213 HD
ENDBRANCH  15  22
BRANCH  13  24
ATOM     24  C   UNL     1       3.497   2.963   2.217  0.00  0.00    +0.190 C 
BRANCH  24  25
ATOM     25  O   UNL     1       4.072   2.757   0.920  0.00  0.00    -0.392 OA
ATOM     26  H   UNL     1       4.133   3.632   0.485  0.00  0.00    +0.210 HD
ENDBRANCH  24  25
ENDBRANCH  13  24
ENDBRANCH  11  12
ENDBRANCH   4  11
BRANCH   2  27
ATOM     27  C   UNL     1       1.562  -3.662   2.612  0.00  0.00    +0.190 C 
BRANCH  27  28
ATOM     28  O   UNL     1       1.604  -3.359   4.026  0.00  0.00    -0.392 OA
ATOM     29  H   UNL     1       1.406  -2.407   4.131  0.00  0.00    +0.210 HD
ENDBRANCH  27  28
ENDBRANCH   2  27
BRANCH   1  30
ATOM     30  O   UNL     1       1.774  -3.088  -0.815  0.00  0.00    -0.340 OA
BRANCH  30  35
ATOM     31  C   UNL     1       2.630  -0.659  -3.557  0.00  0.00    +0.178 C 
ATOM     32  C   UNL     1       1.941  -1.259  -4.776  0.00  0.00    +0.177 C 
ATOM     33  C   UNL     1       1.042  -2.465  -4.431  0.00  0.00    +0.179 C 
ATOM     34  C   UNL     1       1.611  -3.432  -3.361  0.00  0.00    +0.201 C 
ATOM     35  C   UNL     1       2.365  -2.740  -2.183  0.00  0.00    +0.282 C 
ATOM     36  O   UNL     1       2.308  -1.340  -2.363  0.00  0.00    -0.341 OA
BRANCH  34  37
ATOM     37  O   UNL     1       2.519  -4.309  -4.059  0.00  0.00    -0.384 OA
ATOM     38  H   UNL     1       2.746  -5.031  -3.445  0.00  0.00    +0.210 HD
ENDBRANCH  34  37
BRANCH  33  39
ATOM     39  O   UNL     1      -0.289  -2.047  -4.106  0.00  0.00    -0.386 OA
ATOM     40  H   UNL     1      -0.284  -1.682  -3.200  0.00  0.00    +0.210 HD
ENDBRANCH  33  39
BRANCH  32  41
ATOM     41  O   UNL     1       3.000  -1.623  -5.681  0.00  0.00    -0.386 OA
ATOM     42  H   UNL     1       2.632  -2.228  -6.347  0.00  0.00    +0.210 HD
ENDBRANCH  32  41
BRANCH  31  43
ATOM     43  C   UNL     1       2.202   0.821  -3.357  0.00  0.00    +0.190 C 
BRANCH  43  44
ATOM     44  O   UNL     1       0.829   0.912  -2.975  0.00  0.00    -0.392 OA
ATOM     45  H   UNL     1       0.570   1.849  -2.958  0.00  0.00    +0.210 HD
ENDBRANCH  43  44
ENDBRANCH  31  43
ENDBRANCH  30  35
ENDBRANCH   1  30
TORSDOF 18
