REMARK  Name = 
REMARK  13 active torsions:
REMARK  status: ('A' for Active; 'I' for Inactive)
REMARK    1  A    between atoms: O_1  and  C_2
REMARK    2  A    between atoms: C_2  and  C_3
REMARK    3  A    between atoms: C_3  and  C_4
REMARK    4  A    between atoms: C_4  and  O_6
REMARK    5  A    between atoms: C_4  and  C_7
REMARK    6  A    between atoms: C_7  and  O_9
REMARK    7  A    between atoms: C_7  and  C_10
REMARK    8  A    between atoms: C_10  and  O_12
REMARK    9  A    between atoms: C_10  and  C_13
REMARK   10  A    between atoms: C_13  and  O_14
REMARK   11  A    between atoms: O_14  and  P_15
REMARK   12  A    between atoms: P_15  and  O_16
REMARK   13  A    between atoms: P_15  and  O_17
REMARK                            x       y       z     vdW  Elec       q    Type
REMARK                         _______ _______ _______ _____ _____    ______ ____
ROOT
ATOM      1  C   UNL     1       6.760   1.857  -1.902  0.00  0.00    +0.172 C 
ENDROOT
BRANCH   1   2
ATOM      2  O   UNL     1       5.418   1.340  -1.969  0.00  0.00    -0.387 OA
ATOM      3  H   UNL     1       5.308   1.034  -2.889  0.00  0.00    +0.210 HD
ENDBRANCH   1   2
BRANCH   1   4
ATOM      4  C   UNL     1       7.106   2.292  -0.468  0.00  0.00    +0.174 C 
BRANCH   4   5
ATOM      5  O   UNL     1       7.210   1.138   0.392  0.00  0.00    -0.387 OA
ATOM      6  H   UNL     1       7.535   1.487   1.242  0.00  0.00    +0.210 HD
ENDBRANCH   4   5
BRANCH   4   7
ATOM      7  C   UNL     1       6.082   3.269   0.145  0.00  0.00    +0.148 C 
BRANCH   7   8
ATOM      8  O   UNL     1       6.503   3.598   1.479  0.00  0.00    -0.389 OA
ATOM      9  H   UNL     1       6.095   2.935   2.063  0.00  0.00    +0.210 HD
ENDBRANCH   7   8
BRANCH   7  10
ATOM     10  C   UNL     1       5.846   4.571  -0.633  0.00  0.00    +0.062 C 
BRANCH  10  11
ATOM     11  C   UNL     1       7.068   5.474  -0.765  0.00  0.00    +0.158 C 
BRANCH  11  12
ATOM     12  O   UNL     1       8.066   4.864  -1.570  0.00  0.00    -0.395 OA
ATOM     13  H   UNL     1       8.821   5.480  -1.591  0.00  0.00    +0.209 HD
ENDBRANCH  11  12
ENDBRANCH  10  11
ENDBRANCH   7  10
ENDBRANCH   4   7
ENDBRANCH   1   4
BRANCH   1  14
ATOM     14  C   UNL     1       7.725   0.788  -2.427  0.00  0.00    +0.206 C 
BRANCH  14  15
ATOM     15  O   UNL     1       7.386   0.522  -3.788  0.00  0.00    -0.284 OA
BRANCH  15  16
ATOM     16  P   UNL     1       8.421  -0.612  -4.586  0.00  0.00    +0.472 P 
ATOM     17  O   UNL     1       9.347  -1.626  -5.300  0.00  0.00    -0.228 OA
BRANCH  16  18
ATOM     18  O   UNL     1       9.434   0.653  -4.837  0.00  0.00    -0.303 OA
ATOM     19  H   UNL     1      10.341   0.404  -4.600  0.00  0.00    +0.222 HD
ENDBRANCH  16  18
BRANCH  16  20
ATOM     20  O   UNL     1       7.492  -0.382  -5.912  0.00  0.00    -0.303 OA
ATOM     21  H   UNL     1       6.998  -1.186  -6.142  0.00  0.00    +0.222 HD
ENDBRANCH  16  20
ENDBRANCH  15  16
ENDBRANCH  14  15
ENDBRANCH   1  14
TORSDOF 13
