REMARK  Name = 
REMARK  6 active torsions:
REMARK  status: ('A' for Active; 'I' for Inactive)
REMARK    1  A    between atoms: C_1  and  N_2
REMARK    2  A    between atoms: N_2  and  C_3
REMARK    3  A    between atoms: C_8  and  O_10
REMARK    4  A    between atoms: C_11  and  O_13
REMARK    5  A    between atoms: C_14  and  C_16
REMARK    6  A    between atoms: C_16  and  O_17
REMARK                            x       y       z     vdW  Elec       q    Type
REMARK                         _______ _______ _______ _____ _____    ______ ____
ROOT
ATOM      1  C   UNL     1       1.241  -0.508  -0.278  0.00  0.00    +0.133 C 
ATOM      2  N   UNL     1       2.539  -0.005   0.133  0.00  0.00    -0.292 N 
ATOM      3  C   UNL     1       3.307  -0.647   1.062  0.00  0.00    +0.281 C 
ATOM      4  O   UNL     1       2.792  -1.822   1.509  0.00  0.00    -0.460 OA
ATOM      5  C   UNL     1       3.725  -2.337   2.447  0.00  0.00    +0.211 C 
ATOM      6  C   UNL     1       4.856  -1.311   2.473  0.00  0.00    +0.182 C 
ATOM      7  C   UNL     1       6.111  -2.042   1.973  0.00  0.00    +0.171 C 
ATOM      8  C   UNL     1       5.554  -3.219   1.167  0.00  0.00    +0.154 C 
ATOM      9  C   UNL     1       4.342  -3.660   1.991  0.00  0.00    +0.088 C 
ATOM     10  N   UNL     1       4.451  -0.268   1.524  0.00  0.00    -0.227 NA
ATOM     11  C   UNL     1       2.991   1.257  -0.425  0.00  0.00    +0.133 C 
ENDROOT
BRANCH   7  12
ATOM     12  O   UNL     1       6.920  -2.545   3.048  0.00  0.00    -0.387 OA
ATOM     13  H   UNL     1       6.347  -2.796   3.794  0.00  0.00    +0.210 HD
ENDBRANCH   7  12
BRANCH   8  14
ATOM     14  O   UNL     1       6.486  -4.287   1.041  0.00  0.00    -0.389 OA
ATOM     15  H   UNL     1       7.209  -4.089   1.673  0.00  0.00    +0.210 HD
ENDBRANCH   8  14
BRANCH   9  16
ATOM     16  C   UNL     1       3.414  -4.572   1.202  0.00  0.00    +0.165 C 
BRANCH  16  17
ATOM     17  O   UNL     1       4.056  -5.814   0.929  0.00  0.00    -0.395 OA
ATOM     18  H   UNL     1       4.984  -5.617   0.682  0.00  0.00    +0.209 HD
ENDBRANCH  16  17
ENDBRANCH   9  16
TORSDOF 4
