REMARK  Name = 
REMARK  11 active torsions:
REMARK  status: ('A' for Active; 'I' for Inactive)
REMARK    1  A    between atoms: C_1  and  C_2
REMARK    2  A    between atoms: N_12  and  C_13
REMARK    3  A    between atoms: C_13  and  C_14
REMARK    4  A    between atoms: C_16  and  C_20
REMARK    5  A    between atoms: C_20  and  C_22
REMARK    6  A    between atoms: C_20  and  C_27
REMARK    7  A    between atoms: N_29  and  CA_30
REMARK    8  A    between atoms: CA_30  and  C_32
REMARK    9  A    between atoms: CA_30  and  C_34
REMARK   10  A    between atoms: C_32  and  O_33
REMARK   11  A    between atoms: C_40  and  C_41
REMARK                            x       y       z     vdW  Elec       q    Type
REMARK                         _______ _______ _______ _____ _____    ______ ____
ROOT
ATOM      1  C   UNL     1      -2.143   2.485   2.032  0.00  0.00    -0.027 A 
ATOM      2  C   UNL     1      -2.964   1.384   2.308  0.00  0.00    +0.005 A 
ATOM      3  C   UNL     1      -2.643   0.116   1.790  0.00  0.00    +0.001 A 
ATOM      4  C   UNL     1      -1.557  -0.047   0.930  0.00  0.00    +0.004 A 
ATOM      5  C   UNL     1      -0.743   1.049   0.631  0.00  0.00    -0.035 A 
ATOM      6  C   UNL     1      -0.985   2.270   1.281  0.00  0.00    +0.009 A 
ENDROOT
BRANCH   1   7
ATOM      7  C   UNL     1      -2.553   3.922   2.268  0.00  0.00    +0.159 C 
BRANCH   7  16
ATOM      8  C   UNL     1       2.108   6.196   3.551  0.00  0.00    +0.065 C 
ATOM      9  C   UNL     1       0.737   6.033   4.151  0.00  0.00    +0.041 A 
ATOM     10  C   UNL     1       0.487   6.637   5.378  0.00  0.00    +0.027 A 
ATOM     11  C   UNL     1      -0.744   6.460   6.027  0.00  0.00    -0.038 A 
ATOM     12  C   UNL     1      -0.909   7.121   7.366  0.00  0.00    +0.044 C 
ATOM     13  C   UNL     1      -1.700   5.655   5.359  0.00  0.00    +0.030 A 
ATOM     14  C   UNL     1      -3.033   5.196   5.637  0.00  0.00    +0.009 A 
ATOM     15  C   UNL     1      -3.474   4.463   4.531  0.00  0.00    +0.052 A 
ATOM     16  N   UNL     1      -2.427   4.420   3.628  0.00  0.00    -0.320 N 
ATOM     17  C   UNL     1      -4.774   3.928   4.457  0.00  0.00    +0.026 A 
ATOM     18  C   UNL     1      -5.627   4.096   5.547  0.00  0.00    +0.002 A 
ATOM     19  C   UNL     1      -5.210   4.800   6.668  0.00  0.00    +0.001 A 
ATOM     20  C   UNL     1      -3.932   5.359   6.718  0.00  0.00    +0.010 A 
ATOM     21  C   UNL     1      -1.350   5.137   4.108  0.00  0.00    +0.143 A 
ATOM     22  N   UNL     1      -0.174   5.306   3.459  0.00  0.00    -0.234 NA
ENDBRANCH   7  16
ENDBRANCH   1   7
BRANCH   5  23
ATOM     23  C   UNL     1       0.263   1.080  -0.508  0.00  0.00    +0.108 C 
BRANCH  23  24
ATOM     24  C   UNL     1      -0.334   0.750  -1.903  0.00  0.00    +0.005 C 
ATOM     25  C   UNL     1       0.564   1.279  -3.040  0.00  0.00    +0.004 C 
ATOM     26  C   UNL     1      -0.366   1.761  -4.151  0.00  0.00    +0.000 C 
ATOM     27  C   UNL     1      -1.771   1.377  -3.719  0.00  0.00    +0.000 C 
ATOM     28  C   UNL     1      -1.702   1.377  -2.201  0.00  0.00    +0.004 C 
ENDBRANCH  23  24
BRANCH  23  29
ATOM     29  C   UNL     1       1.558   0.329  -0.209  0.00  0.00    +0.221 C 
ATOM     30  N   UNL     1       1.587  -0.991  -0.567  0.00  0.00    -0.306 N 
ATOM     31  H   UNL     1       0.723  -1.473  -0.771  0.00  0.00    +0.149 HD
ATOM     32  O   UNL     1       2.531   0.875   0.311  0.00  0.00    -0.275 OA
BRANCH  30  33
ATOM     33  CA  UNL     1       2.811  -1.778  -0.552  0.00  0.00    +0.128 C 
BRANCH  33  34
ATOM     34  C   UNL     1       2.720  -2.790  -1.679  0.00  0.00    -0.025 A 
ATOM     35  C   UNL     1       2.087  -4.032  -1.525  0.00  0.00    +0.005 A 
ATOM     36  C   UNL     1       1.965  -4.908  -2.606  0.00  0.00    +0.000 A 
ATOM     37  C   UNL     1       2.460  -4.550  -3.858  0.00  0.00    +0.000 A 
ATOM     38  C   UNL     1       3.075  -3.314  -4.033  0.00  0.00    +0.000 A 
ATOM     39  C   UNL     1       3.199  -2.438  -2.953  0.00  0.00    +0.005 A 
ENDBRANCH  33  34
BRANCH  33  40
ATOM     40  C   UNL     1       3.070  -2.378   0.849  0.00  0.00    +0.182 C 
BRANCH  40  41
ATOM     41  O   UNL     1       3.328  -1.386   1.846  0.00  0.00    -0.393 OA
ATOM     42  H   UNL     1       3.132  -0.502   1.469  0.00  0.00    +0.209 HD
ENDBRANCH  40  41
ENDBRANCH  33  40
ENDBRANCH  30  33
ENDBRANCH  23  29
ENDBRANCH   5  23
TORSDOF 9
