REMARK  Name = 
REMARK  4 active torsions:
REMARK  status: ('A' for Active; 'I' for Inactive)
REMARK    1  A    between atoms: C_1  and  C_2
REMARK    2  A    between atoms: N_4  and  C_5
REMARK    3  A    between atoms: C_8  and  C_11
REMARK    4  A    between atoms: C_11  and  O_12
REMARK                            x       y       z     vdW  Elec       q    Type
REMARK                         _______ _______ _______ _____ _____    ______ ____
ROOT
ATOM      1  C   UNL     1       4.742   0.427  -1.251  0.00  0.00    +0.033 A 
ATOM      2  C   UNL     1       5.455  -0.778  -1.195  0.00  0.00    +0.024 A 
ATOM      3  C   UNL     1       6.851  -0.775  -1.311  0.00  0.00    +0.017 A 
ATOM      4  C   UNL     1       7.543   0.429  -1.465  0.00  0.00    +0.059 A 
ATOM      5  C   UNL     1       6.841   1.635  -1.433  0.00  0.00    +0.017 A 
ATOM      6  C   UNL     1       5.449   1.628  -1.333  0.00  0.00    +0.024 A 
ENDROOT
BRANCH   1   9
ATOM      7  C   UNL     1       1.022   1.047  -1.364  0.00  0.00    +0.109 C 
ATOM      8  C   UNL     1       2.471   1.402  -1.561  0.00  0.00    +0.214 C 
ATOM      9  N   UNL     1       3.331   0.370  -1.217  0.00  0.00    -0.286 N 
ATOM     10  H   UNL     1       2.916  -0.539  -1.048  0.00  0.00    +0.155 HD
ATOM     11  O   UNL     1       2.789   2.507  -1.987  0.00  0.00    -0.276 OA
ENDBRANCH   1   9
BRANCH   4  12
ATOM     12  C   UNL     1       9.017   0.392  -1.627  0.00  0.00    +0.337 C 
ATOM     13  O   UNL     1       9.713  -0.479  -1.135  0.00  0.00    -0.245 OA
BRANCH  12  14
ATOM     14  O   UNL     1       9.505   1.376  -2.411  0.00  0.00    -0.477 OA
ATOM     15  H   UNL     1       8.835   1.903  -2.884  0.00  0.00    +0.295 HD
ENDBRANCH  12  14
ENDBRANCH   4  12
TORSDOF 3
