REMARK  Name = 
REMARK  14 active torsions:
REMARK  status: ('A' for Active; 'I' for Inactive)
REMARK    1  A    between atoms: C_2  and  C_4
REMARK    2  A    between atoms: C_4  and  C_5
REMARK    3  A    between atoms: C_8  and  C_10
REMARK    4  A    between atoms: C_13  and  C_14
REMARK    5  A    between atoms: C_13  and  C_37
REMARK    6  A    between atoms: C_14  and  C_15
REMARK    7  A    between atoms: C_15  and  O_17
REMARK    8  A    between atoms: C_15  and  C_18
REMARK    9  A    between atoms: C_18  and  C_20
REMARK   10  A    between atoms: C_18  and  N_27
REMARK   11  A    between atoms: C_20  and  C_21
REMARK   12  A    between atoms: C_28  and  O_30
REMARK   13  A    between atoms: O_30  and  C_31
REMARK   14  A    between atoms: C_37  and  C_38
REMARK                            x       y       z     vdW  Elec       q    Type
REMARK                         _______ _______ _______ _____ _____    ______ ____
ROOT
ATOM      1  C   UNL     1      -0.243  -2.096   2.692  0.00  0.00    +0.018 C 
ATOM      2  C   UNL     1      -0.820  -0.719   2.814  0.00  0.00    +0.184 C 
ATOM      3  O   UNL     1      -0.525   0.216   2.078  0.00  0.00    -0.290 OA
ATOM      4  C   UNL     1      -1.784  -0.605   4.042  0.00  0.00    +0.101 C 
ATOM      5  N   UNL     1      -1.737  -2.028   4.487  0.00  0.00    -0.337 N 
ATOM      6  H   UNL     1      -2.632  -2.495   4.630  0.00  0.00    +0.147 HD
ATOM      7  C   UNL     1      -0.867  -2.751   3.674  0.00  0.00    +0.076 C 
ENDROOT
BRANCH   1  14
ATOM      8  C   UNL     1       2.489  -1.174   0.403  0.00  0.00    +0.029 C 
ATOM      9  C   UNL     1       1.569  -2.014  -0.433  0.00  0.00    -0.040 A 
ATOM     10  C   UNL     1       0.695  -2.783   0.343  0.00  0.00    -0.036 A 
ATOM     11  C   UNL     1      -0.137  -3.699  -0.291  0.00  0.00    +0.004 A 
ATOM     12  C   UNL     1      -0.164  -3.748  -1.695  0.00  0.00    +0.000 A 
ATOM     13  C   UNL     1       0.653  -2.907  -2.460  0.00  0.00    +0.000 A 
ATOM     14  C   UNL     1       0.906  -2.561   1.823  0.00  0.00    +0.054 C 
ATOM     15  C   UNL     1       1.547  -2.053  -1.826  0.00  0.00    +0.004 A 
ATOM     16  C   UNL     1       2.111  -1.579   1.847  0.00  0.00    +0.021 C 
BRANCH   8  17
ATOM     17  C   UNL     1       2.287   0.299   0.058  0.00  0.00    +0.103 C 
BRANCH  17  21
ATOM     18  N   UNL     1       2.880   2.559   0.585  0.00  0.00    -0.329 N 
ATOM     19  H   UNL     1       2.120   2.846  -0.015  0.00  0.00    +0.145 HD
ATOM     20  H   UNL     1       3.353   3.259   1.138  0.00  0.00    +0.145 HD
ATOM     21  C   UNL     1       3.115   1.246   0.881  0.00  0.00    +0.211 C 
ATOM     22  O   UNL     1       3.947   0.919   1.717  0.00  0.00    -0.276 OA
ENDBRANCH  17  21
ENDBRANCH   8  17
ENDBRANCH   1  14
BRANCH   4  23
ATOM     23  C   UNL     1      -1.181   0.320   5.176  0.00  0.00    +0.067 C 
BRANCH  23  24
ATOM     24  C   UNL     1      -1.291   1.866   4.901  0.00  0.00    +0.138 C 
BRANCH  24  25
ATOM     25  O   UNL     1      -0.277   2.220   3.942  0.00  0.00    -0.390 OA
ATOM     26  H   UNL     1      -0.393   1.679   3.133  0.00  0.00    +0.210 HD
ENDBRANCH  24  25
BRANCH  24  27
ATOM     27  C   UNL     1      -1.125   2.857   6.109  0.00  0.00    +0.109 C 
BRANCH  27  28
ATOM     28  N   UNL     1      -1.073   4.300   5.630  0.00  0.00    -0.275 N 
ATOM     29  H   UNL     1      -0.228   4.498   5.108  0.00  0.00    +0.152 HD
ATOM     30  C   UNL     1      -1.983   5.322   5.514  0.00  0.00    +0.401 C 
ATOM     31  O   UNL     1      -3.114   5.347   5.968  0.00  0.00    -0.226 OA
BRANCH  30  32
ATOM     32  O   UNL     1      -1.441   6.375   4.817  0.00  0.00    -0.445 OA
BRANCH  32  33
ATOM     33  C   UNL     1      -2.137   7.658   4.812  0.00  0.00    +0.206 C 
ATOM     34  C   UNL     1      -3.539   7.716   4.207  0.00  0.00    +0.204 C 
ATOM     35  O   UNL     1      -3.724   9.026   3.629  0.00  0.00    -0.376 OA
ATOM     36  C   UNL     1      -2.465   9.701   3.595  0.00  0.00    +0.163 C 
ATOM     37  C   UNL     1      -1.405   8.672   3.939  0.00  0.00    +0.075 C 
ENDBRANCH  32  33
ENDBRANCH  30  32
ENDBRANCH  27  28
BRANCH  27  38
ATOM     38  C   UNL     1      -1.926   2.520   7.406  0.00  0.00    +0.060 C 
BRANCH  38  39
ATOM     39  C   UNL     1      -3.431   2.336   7.459  0.00  0.00    -0.046 A 
ATOM     40  C   UNL     1      -4.014   1.810   8.634  0.00  0.00    +0.004 A 
ATOM     41  C   UNL     1      -5.404   1.713   8.777  0.00  0.00    +0.000 A 
ATOM     42  C   UNL     1      -6.238   2.151   7.754  0.00  0.00    +0.000 A 
ATOM     43  C   UNL     1      -5.680   2.655   6.585  0.00  0.00    +0.000 A 
ATOM     44  C   UNL     1      -4.291   2.728   6.436  0.00  0.00    +0.004 A 
ENDBRANCH  38  39
ENDBRANCH  27  38
ENDBRANCH  24  27
ENDBRANCH  23  24
ENDBRANCH   4  23
BRANCH   4  45
ATOM     45  C   UNL     1      -3.189  -0.066   3.731  0.00  0.00    +0.069 C 
BRANCH  45  46
ATOM     46  C   UNL     1      -4.227  -0.773   2.911  0.00  0.00    -0.045 A 
ATOM     47  C   UNL     1      -4.444  -0.373   1.584  0.00  0.00    +0.004 A 
ATOM     48  C   UNL     1      -5.503  -0.900   0.850  0.00  0.00    +0.000 A 
ATOM     49  C   UNL     1      -6.351  -1.838   1.433  0.00  0.00    +0.000 A 
ATOM     50  C   UNL     1      -6.169  -2.212   2.764  0.00  0.00    +0.000 A 
ATOM     51  C   UNL     1      -5.118  -1.672   3.506  0.00  0.00    +0.004 A 
ENDBRANCH  45  46
ENDBRANCH   4  45
TORSDOF 14
