REMARK  Name = 
REMARK  20 active torsions:
REMARK  status: ('A' for Active; 'I' for Inactive)
REMARK    1  A    between atoms: C_1  and  N_2
REMARK    2  A    between atoms: N_2  and  C_3
REMARK    3  A    between atoms: C_8  and  O_10
REMARK    4  A    between atoms: C_11  and  O_13
REMARK    5  A    between atoms: O_13  and  C_14
REMARK    6  A    between atoms: C_17  and  C_19
REMARK    7  A    between atoms: C_19  and  O_20
REMARK    8  A    between atoms: C_21  and  O_23
REMARK    9  A    between atoms: O_23  and  C_24
REMARK   10  A    between atoms: C_27  and  C_29
REMARK   11  A    between atoms: C_29  and  O_30
REMARK   12  A    between atoms: C_31  and  O_33
REMARK   13  A    between atoms: C_34  and  O_36
REMARK   14  A    between atoms: C_37  and  N_39
REMARK   15  A    between atoms: C_40  and  C_41
REMARK   16  A    between atoms: C_43  and  O_45
REMARK   17  A    between atoms: C_46  and  N_48
REMARK   18  A    between atoms: C_49  and  C_50
REMARK   19  A    between atoms: C_52  and  C_54
REMARK   20  A    between atoms: C_54  and  O_55
REMARK                            x       y       z     vdW  Elec       q    Type
REMARK                         _______ _______ _______ _____ _____    ______ ____
ROOT
ATOM      1  C   UNL     1       0.675  -2.399  -2.257  0.00  0.00    +0.274 C 
ATOM      2  C   UNL     1      -0.858  -2.338  -2.476  0.00  0.00    +0.160 C 
ATOM      3  C   UNL     1      -1.059  -1.794  -3.912  0.00  0.00    +0.171 C 
ATOM      4  C   UNL     1      -0.429  -0.385  -4.021  0.00  0.00    +0.183 C 
ATOM      5  C   UNL     1       1.006  -0.339  -3.403  0.00  0.00    +0.178 C 
ATOM      6  O   UNL     1       1.111  -1.034  -2.140  0.00  0.00    -0.341 OA
ENDROOT
BRANCH   2   7
ATOM      7  N   UNL     1      -1.631  -3.563  -2.307  0.00  0.00    -0.305 N 
ATOM      8  H   UNL     1      -1.314  -4.385  -2.810  0.00  0.00    +0.149 HD
ATOM      9  C   UNL     1      -2.985  -3.423  -2.070  0.00  0.00    +0.210 C 
ATOM     10  O   UNL     1      -3.520  -2.340  -1.838  0.00  0.00    -0.276 OA
ATOM     11  C   UNL     1      -3.790  -4.687  -2.136  0.00  0.00    +0.109 C 
ENDBRANCH   2   7
BRANCH   3  12
ATOM     12  O   UNL     1      -0.523  -2.771  -4.833  0.00  0.00    -0.387 OA
ATOM     13  H   UNL     1       0.427  -2.626  -4.961  0.00  0.00    +0.210 HD
ENDBRANCH   3  12
BRANCH   4  14
ATOM     14  O   UNL     1      -0.592   0.225  -5.330  0.00  0.00    -0.341 OA
BRANCH  14  15
ATOM     15  C   UNL     1       0.151  -0.380  -6.389  0.00  0.00    +0.274 C 
ATOM     16  C   UNL     1      -0.061   0.288  -7.769  0.00  0.00    +0.160 C 
ATOM     17  C   UNL     1       0.911  -0.379  -8.791  0.00  0.00    +0.171 C 
ATOM     18  C   UNL     1       2.367  -0.370  -8.264  0.00  0.00    +0.176 C 
ATOM     19  C   UNL     1       2.386  -1.034  -6.887  0.00  0.00    +0.178 C 
ATOM     20  O   UNL     1       1.522  -0.288  -6.040  0.00  0.00    -0.341 OA
BRANCH  16  21
ATOM     21  N   UNL     1      -1.465   0.335  -8.229  0.00  0.00    -0.305 N 
ATOM     22  H   UNL     1      -1.912   1.245  -8.239  0.00  0.00    +0.149 HD
ATOM     23  C   UNL     1      -2.263  -0.765  -8.421  0.00  0.00    +0.210 C 
ATOM     24  O   UNL     1      -1.845  -1.911  -8.266  0.00  0.00    -0.276 OA
ATOM     25  C   UNL     1      -3.664  -0.482  -8.883  0.00  0.00    +0.109 C 
ENDBRANCH  16  21
BRANCH  18  26
ATOM     26  O   UNL     1       3.206  -1.099  -9.160  0.00  0.00    -0.387 OA
ATOM     27  H   UNL     1       2.648  -1.839  -9.485  0.00  0.00    +0.210 HD
ENDBRANCH  18  26
BRANCH  17  28
ATOM     28  O   UNL     1       0.638  -1.773  -9.056  0.00  0.00    -0.387 OA
ATOM     29  H   UNL     1      -0.294  -1.971  -8.812  0.00  0.00    +0.210 HD
ENDBRANCH  17  28
BRANCH  19  30
ATOM     30  C   UNL     1       3.763  -1.125  -6.213  0.00  0.00    +0.190 C 
BRANCH  30  31
ATOM     31  O   UNL     1       4.326   0.137  -5.889  0.00  0.00    -0.392 OA
ATOM     32  H   UNL     1       4.434   0.648  -6.707  0.00  0.00    +0.210 HD
ENDBRANCH  30  31
ENDBRANCH  19  30
ENDBRANCH  14  15
ENDBRANCH   4  14
BRANCH   5  33
ATOM     33  C   UNL     1       1.452   1.115  -3.199  0.00  0.00    +0.190 C 
BRANCH  33  34
ATOM     34  O   UNL     1       2.824   1.162  -2.809  0.00  0.00    -0.392 OA
ATOM     35  H   UNL     1       2.910   0.587  -2.025  0.00  0.00    +0.210 HD
ENDBRANCH  33  34
ENDBRANCH   5  33
BRANCH   1  36
ATOM     36  O   UNL     1       1.080  -3.185  -1.143  0.00  0.00    -0.343 OA
BRANCH  36  44
ATOM     37  C   UNL     1      -0.688  -7.453  -1.133  0.00  0.00    +0.133 C 
ATOM     38  N   UNL     1       0.297  -6.971  -2.086  0.00  0.00    -0.292 N 
ATOM     39  C   UNL     1       1.451  -6.407  -1.620  0.00  0.00    +0.281 C 
ATOM     40  O   UNL     1       2.222  -5.820  -2.572  0.00  0.00    -0.460 OA
ATOM     41  C   UNL     1       3.338  -5.263  -1.885  0.00  0.00    +0.211 C 
ATOM     42  C   UNL     1       3.067  -5.538  -0.415  0.00  0.00    +0.182 C 
ATOM     43  C   UNL     1       2.783  -4.178   0.253  0.00  0.00    +0.172 C 
ATOM     44  C   UNL     1       2.507  -3.191  -0.903  0.00  0.00    +0.161 C 
ATOM     45  C   UNL     1       3.361  -3.745  -2.075  0.00  0.00    +0.089 C 
ATOM     46  N   UNL     1       1.857  -6.370  -0.395  0.00  0.00    -0.227 NA
ATOM     47  C   UNL     1       0.118  -7.296  -3.487  0.00  0.00    +0.133 C 
BRANCH  43  48
ATOM     48  O   UNL     1       3.875  -3.760   1.076  0.00  0.00    -0.387 OA
ATOM     49  H   UNL     1       4.720  -3.907   0.626  0.00  0.00    +0.210 HD
ENDBRANCH  43  48
BRANCH  45  50
ATOM     50  C   UNL     1       4.790  -3.201  -2.090  0.00  0.00    +0.165 C 
BRANCH  50  51
ATOM     51  O   UNL     1       4.783  -1.783  -2.108  0.00  0.00    -0.395 OA
ATOM     52  H   UNL     1       4.455  -1.468  -2.971  0.00  0.00    +0.209 HD
ENDBRANCH  50  51
ENDBRANCH  45  50
ENDBRANCH  36  44
ENDBRANCH   1  36
TORSDOF 16
