REMARK  Name = 
REMARK  3 active torsions:
REMARK  status: ('A' for Active; 'I' for Inactive)
REMARK    1  A    between atoms: N_6  and  C_9
REMARK    2  A    between atoms: C_12  and  C_14
REMARK    3  A    between atoms: C_14  and  O_15
REMARK                            x       y       z     vdW  Elec       q    Type
REMARK                         _______ _______ _______ _____ _____    ______ ____
ROOT
ATOM      1  N   UNL     1       1.150   0.396   0.612  0.00  0.00    -0.343 N 
ATOM      2  H   UNL     1       0.602  -0.449   0.713  0.00  0.00    +0.144 HD
ATOM      3  H   UNL     1       0.817   1.007  -0.129  0.00  0.00    +0.144 HD
ATOM      4  C   UNL     1       2.511   0.271   0.612  0.00  0.00    +0.123 A 
ATOM      5  C   UNL     1       3.142  -0.821   1.377  0.00  0.00    +0.061 A 
ATOM      6  C   UNL     1       4.470  -0.889   1.309  0.00  0.00    +0.096 A 
ATOM      7  N   UNL     1       5.190   0.023   0.570  0.00  0.00    -0.270 N 
ATOM      8  C   UNL     1       4.555   1.059  -0.121  0.00  0.00    +0.352 A 
ATOM      9  O   UNL     1       5.215   1.889  -0.745  0.00  0.00    -0.244 OA
ATOM     10  N   UNL     1       3.184   1.134  -0.082  0.00  0.00    -0.178 NA
ENDROOT
BRANCH   7  11
ATOM     11  C   UNL     1       6.643  -0.005   0.505  0.00  0.00    +0.252 C 
ATOM     12  O   UNL     1       7.178  -1.209   1.076  0.00  0.00    -0.323 OA
ATOM     13  C   UNL     1       8.390  -0.823   1.728  0.00  0.00    +0.278 C 
ATOM     14  O   UNL     1       8.615   0.587   1.574  0.00  0.00    -0.345 OA
ATOM     15  C   UNL     1       7.316   1.108   1.290  0.00  0.00    +0.217 C 
BRANCH  13  16
ATOM     16  C   UNL     1       9.590  -1.581   1.151  0.00  0.00    +0.217 C 
BRANCH  16  17
ATOM     17  O   UNL     1      10.794  -1.232   1.834  0.00  0.00    -0.390 OA
ATOM     18  H   UNL     1      10.820  -0.255   1.844  0.00  0.00    +0.210 HD
ENDBRANCH  16  17
ENDBRANCH  13  16
ENDBRANCH   7  11
TORSDOF 3
