REMARK  Name = 
REMARK  4 active torsions:
REMARK  status: ('A' for Active; 'I' for Inactive)
REMARK    1  A    between atoms: C_2  and  N_3
REMARK    2  A    between atoms: C_2  and  C_4
REMARK    3  A    between atoms: C_2  and  C_14
REMARK    4  A    between atoms: C_4  and  C_5
REMARK                            x       y       z     vdW  Elec       q    Type
REMARK                         _______ _______ _______ _____ _____    ______ ____
ROOT
ATOM      1  C   UNL     1       2.570   0.503  -1.368  0.00  0.00    +0.065 C 
ENDROOT
BRANCH   1   2
ATOM      2  C   UNL     1       2.201  -0.463  -2.459  0.00  0.00    -0.020 A 
ATOM      3  C   UNL     1       1.557  -0.147  -3.703  0.00  0.00    +0.003 A 
ATOM      4  C   UNL     1       1.076   1.044  -4.289  0.00  0.00    +0.010 A 
ATOM      5  C   UNL     1       0.489   1.002  -5.559  0.00  0.00    +0.001 A 
ATOM      6  C   UNL     1       0.374  -0.203  -6.248  0.00  0.00    +0.002 A 
ATOM      7  C   UNL     1       0.837  -1.397  -5.691  0.00  0.00    +0.026 A 
ATOM      8  C   UNL     1       1.422  -1.335  -4.419  0.00  0.00    +0.047 A 
ATOM      9  N   UNL     1       1.951  -2.339  -3.645  0.00  0.00    -0.360 N 
ATOM     10  H   UNL     1       1.991  -3.312  -3.914  0.00  0.00    +0.165 HD
ATOM     11  C   UNL     1       2.405  -1.831  -2.460  0.00  0.00    +0.087 A 
ENDBRANCH   1   2
BRANCH   1  12
ATOM     12  C   UNL     1       3.850   0.132  -0.600  0.00  0.00    +0.142 C 
BRANCH  12  13
ATOM     13  C   UNL     1       5.085   0.071  -1.521  0.00  0.00    +0.228 C 
ATOM     14  O   UNL     1       5.786  -0.930  -1.643  0.00  0.00    -0.274 OA
ATOM     15  N   UNL     1       5.431   1.234  -2.154  0.00  0.00    -0.328 N 
ATOM     16  H   UNL     1       6.181   1.159  -2.830  0.00  0.00    +0.145 HD
ATOM     17  H   UNL     1       4.775   1.992  -2.272  0.00  0.00    +0.145 HD
ENDBRANCH  12  13
BRANCH  12  18
ATOM     18  N   UNL     1       4.117   1.096   0.498  0.00  0.00    -0.320 NA
ATOM     19  H   UNL     1       4.951   0.771   0.994  0.00  0.00    +0.119 HD
ATOM     20  H   UNL     1       4.378   1.995   0.098  0.00  0.00    +0.119 HD
ENDBRANCH  12  18
ENDBRANCH   1  12
TORSDOF 4
