REMARK  Name = 
REMARK  9 active torsions:
REMARK  status: ('A' for Active; 'I' for Inactive)
REMARK    1  A    between atoms: N_1  and  C_2
REMARK    2  A    between atoms: C_2  and  C_3
REMARK    3  A    between atoms: C_3  and  C_4
REMARK    4  A    between atoms: C_4  and  S_5
REMARK    5  A    between atoms: S_5  and  C_6
REMARK    6  A    between atoms: C_6  and  C_7
REMARK    7  A    between atoms: C_7  and  N_9
REMARK    8  A    between atoms: C_7  and  C_10
REMARK    9  A    between atoms: C_10  and  O_11
REMARK                            x       y       z     vdW  Elec       q    Type
REMARK                         _______ _______ _______ _____ _____    ______ ____
ROOT
ATOM      1  C   UNK     1       6.936   3.389  -4.597  0.00  0.00    +0.089 C 
ENDROOT
BRANCH   1   2
ATOM      2  S   UNK     1       7.417   4.865  -5.569  0.00  0.00    -0.159 S 
BRANCH   2   3
ATOM      3  C   UNK     1       6.893   4.294  -7.221  0.00  0.00    +0.070 C 
BRANCH   3   4
ATOM      4  C   UNK     1       7.162   5.402  -8.238  0.00  0.00    +0.025 C 
BRANCH   4   5
ATOM      5  C   UNK     1       6.759   5.011  -9.662  0.00  0.00    +0.078 C 
BRANCH   5   6
ATOM      6  N   UNK     1       5.328   4.767  -9.773  0.00  0.00    -0.330 NA
ATOM      7  H   UNK     1       4.814   5.608  -9.510  0.00  0.00    +0.118 HD
ATOM      8  H   UNK     1       5.092   4.589 -10.749  0.00  0.00    +0.118 HD
ENDBRANCH   5   6
ENDBRANCH   4   5
ENDBRANCH   3   4
ENDBRANCH   2   3
ENDBRANCH   1   2
BRANCH   1   9
ATOM      9  C   UNK     1       7.280   3.587  -3.104  0.00  0.00    +0.086 C 
BRANCH   9  10
ATOM     10  N   UNK     1       8.746   3.692  -2.917  0.00  0.00    -0.325 NA
ATOM     11  H   UNK     1       9.076   4.441  -3.535  0.00  0.00    +0.119 HD
ATOM     12  H   UNK     1       8.938   4.015  -1.968  0.00  0.00    +0.119 HD
ENDBRANCH   9  10
BRANCH   9  13
ATOM     13  C   UNK     1       6.762   2.410  -2.260  0.00  0.00    +0.175 C 
BRANCH  13  14
ATOM     14  O   UNK     1       7.397   1.198  -2.660  0.00  0.00    -0.393 OA
ATOM     15  H   UNK     1       8.330   1.451  -2.819  0.00  0.00    +0.209 HD
ENDBRANCH  13  14
ENDBRANCH   9  13
ENDBRANCH   1   9
TORSDOF 9
