REMARK  Name = 
REMARK  15 active torsions:
REMARK  status: ('A' for Active; 'I' for Inactive)
REMARK    1  A    between atoms: C_1  and  C_2
REMARK    2  A    between atoms: C_2  and  O_4
REMARK    3  A    between atoms: C_2  and  C_5
REMARK    4  A    between atoms: C_5  and  C_6
REMARK    5  A    between atoms: C_6  and  O_8
REMARK    6  A    between atoms: O_8  and  C_9
REMARK    7  A    between atoms: C_9  and  C_11
REMARK    8  A    between atoms: C_9  and  C_12
REMARK    9  A    between atoms: C_12  and  C_13
REMARK   10  A    between atoms: C_13  and  O_15
REMARK   11  A    between atoms: O_15  and  C_16
REMARK   12  A    between atoms: C_16  and  C_18
REMARK   13  A    between atoms: C_16  and  C_19
REMARK   14  A    between atoms: C_19  and  C_20
REMARK   15  A    between atoms: C_20  and  O_21
REMARK                            x       y       z     vdW  Elec       q    Type
REMARK                         _______ _______ _______ _____ _____    ______ ____
ROOT
ATOM      1  C   UNL     1      11.790   0.859  -2.274  0.00  0.00    +0.164 C 
ENDROOT
BRANCH   1   2
ATOM      2  C   UNL     1      12.661   0.380  -1.107  0.00  0.00    +0.184 C 
ATOM      3  C   UNL     1      14.118   0.786  -1.279  0.00  0.00    +0.052 C 
BRANCH   2   4
ATOM      4  O   UNL     1      12.064   0.917   0.089  0.00  0.00    -0.461 OA
BRANCH   4   5
ATOM      5  C   UNL     1      12.398   0.442   1.313  0.00  0.00    +0.310 C 
ATOM      6  O   UNL     1      13.248  -0.402   1.544  0.00  0.00    -0.251 OA
BRANCH   5   7
ATOM      7  C   UNL     1      11.477   1.070   2.328  0.00  0.00    +0.151 C 
BRANCH   7   9
ATOM      8  C   UNL     1      13.224   2.565   3.394  0.00  0.00    +0.038 C 
ATOM      9  C   UNL     1      12.174   1.482   3.612  0.00  0.00    +0.122 C 
BRANCH   9  10
ATOM     10  O   UNL     1      11.165   2.000   4.489  0.00  0.00    -0.392 OA
ATOM     11  H   UNL     1      11.585   2.185   5.347  0.00  0.00    +0.210 HD
ENDBRANCH   9  10
ENDBRANCH   7   9
ENDBRANCH   5   7
ENDBRANCH   4   5
ENDBRANCH   2   4
ENDBRANCH   1   2
BRANCH   1  12
ATOM     12  C   UNL     1      11.821   2.362  -2.505  0.00  0.00    +0.311 C 
ATOM     13  O   UNL     1      11.930   2.872  -3.612  0.00  0.00    -0.251 OA
BRANCH  12  14
ATOM     14  O   UNL     1      11.698   3.056  -1.349  0.00  0.00    -0.461 OA
BRANCH  14  15
ATOM     15  C   UNL     1      11.747   4.502  -1.283  0.00  0.00    +0.184 C 
ATOM     16  C   UNL     1      10.386   5.080  -1.653  0.00  0.00    +0.052 C 
BRANCH  15  17
ATOM     17  C   UNL     1      12.864   5.163  -2.087  0.00  0.00    +0.164 C 
BRANCH  17  18
ATOM     18  C   UNL     1      14.208   4.606  -1.712  0.00  0.00    +0.308 C 
ATOM     19  O   UNL     1      14.687   4.681  -0.592  0.00  0.00    -0.251 OA
BRANCH  18  20
ATOM     20  O   UNL     1      14.844   3.988  -2.730  0.00  0.00    -0.481 OA
ATOM     21  H   UNL     1      14.325   3.949  -3.562  0.00  0.00    +0.295 HD
ENDBRANCH  18  20
ENDBRANCH  17  18
ENDBRANCH  15  17
ENDBRANCH  14  15
ENDBRANCH  12  14
ENDBRANCH   1  12
TORSDOF 12
