REMARK  Name = 
REMARK  1 active torsions:
REMARK  status: ('A' for Active; 'I' for Inactive)
REMARK    1  A    between atoms: O_1  and  C_2
REMARK                            x       y       z     vdW  Elec       q    Type
REMARK                         _______ _______ _______ _____ _____    ______ ____
ROOT
ATOM      1  C   UNL     1       2.438  -0.072   0.072  0.00  0.00    +0.128 C 
ATOM      2  C   UNL     1       3.193   1.193   0.074  0.00  0.00    +0.027 A 
ATOM      3  C   UNL     1       4.595   1.194   0.075  0.00  0.00    +0.036 A 
ATOM      4  C   UNL     1       5.320   2.395   0.077  0.00  0.00    +0.012 A 
ATOM      5  C   UNL     1       4.645   3.613   0.080  0.00  0.00    +0.001 A 
ATOM      6  C   UNL     1       3.253   3.632   0.079  0.00  0.00    +0.001 A 
ATOM      7  C   UNL     1       5.326  -0.089   0.072  0.00  0.00    +0.233 C 
ATOM      8  O   UNL     1       6.549  -0.127   0.071  0.00  0.00    -0.283 OA
ATOM      9  C   UNL     1       4.513  -1.374   0.071  0.00  0.00    +0.229 C 
ATOM     10  O   UNL     1       5.050  -2.473   0.070  0.00  0.00    -0.284 OA
ATOM     11  C   UNL     1       2.534   2.433   0.077  0.00  0.00    +0.012 A 
ATOM     12  C   UNL     1       3.042  -1.265   0.070  0.00  0.00    +0.100 C 
ENDROOT
BRANCH   1  13
ATOM     13  O   UNL     1       1.064   0.048   0.072  0.00  0.00    -0.506 OA
ATOM     14  H   UNL     1       0.658  -0.836   0.071  0.00  0.00    +0.292 HD
ENDBRANCH   1  13
TORSDOF 1
