REMARK  Name = 
REMARK  5 active torsions:
REMARK  status: ('A' for Active; 'I' for Inactive)
REMARK    1  A    between atoms: C5M_1  and  C5_2
REMARK    2  A    between atoms: N1_4  and  C1*_5
REMARK    3  A    between atoms: C3*_8  and  O3*_10
REMARK    4  A    between atoms: C4*_11  and  C5*_13
REMARK    5  A    between atoms: C5*_13  and  O5*_14
REMARK                            x       y       z     vdW  Elec       q    Type
REMARK                         _______ _______ _______ _____ _____    ______ ____
ROOT
ATOM      1  C5M   T A   1       3.425  -1.098   2.534  0.00  0.00    +0.051 C 
ATOM      2  C5    T A   1       3.654  -0.428   1.218  0.00  0.00    +0.030 A 
ATOM      3  C4    T A   1       2.959  -0.998   0.040  0.00  0.00    +0.257 A 
ATOM      4  O4    T A   1       2.215  -1.970   0.129  0.00  0.00    -0.267 OA
ATOM      5  N3    T A   1       3.186  -0.367  -1.148  0.00  0.00    -0.275 N 
ATOM      6  H3    T A   1       2.704  -0.726  -1.956  0.00  0.00    +0.173 HD
ATOM      7  C2    T A   1       3.934   0.763  -1.330  0.00  0.00    +0.331 A 
ATOM      8  O2    T A   1       3.983   1.303  -2.433  0.00  0.00    -0.246 OA
ATOM      9  N1    T A   1       4.598   1.237  -0.206  0.00  0.00    -0.274 N 
ATOM     10  C6    T A   1       4.433   0.645   1.032  0.00  0.00    +0.101 A 
ENDROOT
BRANCH   9  11
ATOM     11  C1*   T A   1       5.409   2.433  -0.384  0.00  0.00    +0.226 C 
ATOM     12  O4*   T A   1       6.467   2.504   0.592  0.00  0.00    -0.348 OA
ATOM     13  C4*   T A   1       6.703   3.903   0.881  0.00  0.00    +0.175 C 
ATOM     14  C3*   T A   1       5.742   4.712   0.006  0.00  0.00    +0.150 C 
ATOM     15  C2*   T A   1       4.625   3.726  -0.243  0.00  0.00    +0.088 C 
BRANCH  14  16
ATOM     16  O3*   T A   1       5.282   5.896   0.639  0.00  0.00    -0.389 OA
ATOM     17  H3*   T A   1       4.798   5.660   1.448  0.00  0.00    +0.210 HD
ENDBRANCH  14  16
BRANCH  13  18
ATOM     18  C5*   T A   1       8.174   4.226   0.616  0.00  0.00    +0.190 C 
BRANCH  18  19
ATOM     19  O5*   T A   1       8.521   3.928  -0.736  0.00  0.00    -0.392 OA
ATOM     20  H5*   T A   1       8.354   2.976  -0.857  0.00  0.00    +0.210 HD
ENDBRANCH  18  19
ENDBRANCH  13  18
ENDBRANCH   9  11
TORSDOF 4
