REMARK  Name = 
REMARK  29 active torsions:
REMARK  status: ('A' for Active; 'I' for Inactive)
REMARK    1  A    between atoms: C_1  and  C_2
REMARK    2  A    between atoms: C_2  and  C_3
REMARK    3  A    between atoms: C_3  and  C_4
REMARK    4  A    between atoms: C_4  and  C_5
REMARK    5  A    between atoms: C_5  and  C_6
REMARK    6  A    between atoms: C_6  and  C_7
REMARK    7  A    between atoms: C_7  and  C_8
REMARK    8  A    between atoms: C_8  and  C_9
REMARK    9  A    between atoms: C_9  and  C_10
REMARK   10  A    between atoms: C_10  and  C_11
REMARK   11  A    between atoms: C_11  and  C_12
REMARK   12  A    between atoms: C_12  and  C_13
REMARK   13  A    between atoms: C_13  and  C_14
REMARK   14  A    between atoms: C_14  and  C_15
REMARK   15  A    between atoms: C_15  and  O_17
REMARK   16  A    between atoms: C_15  and  O_18
REMARK   17  A    between atoms: O_18  and  C_19
REMARK   18  A    between atoms: C_19  and  C_20
REMARK   19  A    between atoms: C_20  and  O_22
REMARK   20  A    between atoms: C_20  and  C_23
REMARK   21  A    between atoms: C_23  and  O_24
REMARK   22  A    between atoms: O_24  and  P_25
REMARK   23  A    between atoms: P_25  and  O_26
REMARK   24  A    between atoms: P_25  and  O_28
REMARK   25  A    between atoms: O_28  and  C_29
REMARK   26  A    between atoms: C_29  and  C_30
REMARK   27  A    between atoms: C_30  and  N_32
REMARK   28  A    between atoms: C_30  and  C_33
REMARK   29  A    between atoms: C_33  and  O_34
REMARK                            x       y       z     vdW  Elec       q    Type
REMARK                         _______ _______ _______ _____ _____    ______ ____
ROOT
ATOM      1  C   UNK     1      19.600   5.725  19.583  0.00  0.00    +0.196 C 
ENDROOT
BRANCH   1   2
ATOM      2  O   UNK     1      19.647   5.208  20.907  0.00  0.00    -0.349 OA
BRANCH   2   3
ATOM      3  C   UNK     1      18.849   5.938  21.832  0.00  0.00    +0.247 C 
BRANCH   3   4
ATOM      4  O   UNK     1      17.475   5.784  21.520  0.00  0.00    -0.367 OA
ATOM      5  H   UNK     1      17.262   6.467  20.866  0.00  0.00    +0.212 HD
ENDBRANCH   3   4
BRANCH   3   6
ATOM      6  C   UNK     1      19.106   5.329  23.209  0.00  0.00    +0.061 C 
BRANCH   6   7
ATOM      7  C   UNK     1      18.381   6.047  24.351  0.00  0.00    +0.005 C 
BRANCH   7   8
ATOM      8  C   UNK     1      18.668   5.324  25.667  0.00  0.00    +0.000 C 
BRANCH   8   9
ATOM      9  C   UNK     1      17.990   5.968  26.875  0.00  0.00    +0.000 C 
BRANCH   9  10
ATOM     10  C   UNK     1      18.339   5.170  28.131  0.00  0.00    +0.000 C 
BRANCH  10  11
ATOM     11  C   UNK     1      17.702   5.747  29.390  0.00  0.00    -0.000 C 
BRANCH  11  12
ATOM     12  C   UNK     1      18.088   4.906  30.608  0.00  0.00    -0.000 C 
BRANCH  12  13
ATOM     13  C   UNK     1      17.475   5.463  31.886  0.00  0.00    -0.000 C 
BRANCH  13  14
ATOM     14  C   UNK     1      17.863   4.615  33.096  0.00  0.00    -0.000 C 
BRANCH  14  15
ATOM     15  C   UNK     1      17.240   5.175  34.372  0.00  0.00    -0.000 C 
BRANCH  15  16
ATOM     16  C   UNK     1      17.621   4.337  35.590  0.00  0.00    -0.000 C 
BRANCH  16  17
ATOM     17  C   UNK     1      16.994   4.908  36.859  0.00  0.00    -0.000 C 
BRANCH  17  19
ATOM     18  C   UNK     1      16.744   4.657  39.346  0.00  0.00    +0.004 C 
ATOM     19  C   UNK     1      17.370   4.083  38.087  0.00  0.00    -0.003 C 
ENDBRANCH  17  19
ENDBRANCH  16  17
ENDBRANCH  15  16
ENDBRANCH  14  15
ENDBRANCH  13  14
ENDBRANCH  12  13
ENDBRANCH  11  12
ENDBRANCH  10  11
ENDBRANCH   9  10
ENDBRANCH   8   9
ENDBRANCH   7   8
ENDBRANCH   6   7
ENDBRANCH   3   6
ENDBRANCH   2   3
ENDBRANCH   1   2
BRANCH   1  20
ATOM     20  C   UNK     1      20.460   4.861  18.658  0.00  0.00    +0.166 C 
BRANCH  20  21
ATOM     21  O   UNK     1      20.339   5.351  17.318  0.00  0.00    -0.387 OA
ATOM     22  H   UNK     1      20.851   4.729  16.763  0.00  0.00    +0.210 HD
ENDBRANCH  20  21
BRANCH  20  23
ATOM     23  C   UNK     1      20.027   3.396  18.705  0.00  0.00    +0.206 C 
BRANCH  23  24
ATOM     24  O   UNK     1      20.898   2.618  17.882  0.00  0.00    -0.284 OA
BRANCH  24  25
ATOM     25  P   UNK     1      20.494   0.938  17.950  0.00  0.00    +0.475 P 
ATOM     26  O   UNK     1      21.758   0.684  18.775  0.00  0.00    -0.227 OA
BRANCH  25  27
ATOM     27  O   UNK     1      21.000   0.752  16.410  0.00  0.00    -0.302 OA
ATOM     28  H   UNK     1      21.950   0.527  16.463  0.00  0.00    +0.222 HD
ENDBRANCH  25  27
BRANCH  25  29
ATOM     29  O   UNK     1      20.091  -0.743  18.018  0.00  0.00    -0.285 OA
BRANCH  29  30
ATOM     30  C   UNK     1      19.656  -1.136  19.330  0.00  0.00    +0.202 C 
BRANCH  30  31
ATOM     31  C   UNK     1      19.334  -2.630  19.372  0.00  0.00    +0.187 C 
BRANCH  31  32
ATOM     32  N   UNK     1      18.185  -2.979  18.471  0.00  0.00    -0.317 NA
ATOM     33  H   UNK     1      18.356  -2.482  17.588  0.00  0.00    +0.119 HD
ATOM     34  H   UNK     1      18.293  -3.966  18.212  0.00  0.00    +0.119 HD
ENDBRANCH  31  32
BRANCH  31  35
ATOM     35  C   UNK     1      18.971  -3.008  20.813  0.00  0.00    +0.324 C 
ATOM     36  O   UNK     1      19.719  -2.922  21.773  0.00  0.00    -0.249 OA
BRANCH  35  37
ATOM     37  O   UNK     1      17.682  -3.426  20.911  0.00  0.00    -0.479 OA
ATOM     38  H   UNK     1      17.299  -3.354  20.001  0.00  0.00    +0.295 HD
ENDBRANCH  35  37
ENDBRANCH  31  35
ENDBRANCH  30  31
ENDBRANCH  29  30
ENDBRANCH  25  29
ENDBRANCH  24  25
ENDBRANCH  23  24
ENDBRANCH  20  23
ENDBRANCH   1  20
TORSDOF 28
