REMARK  Name = 
REMARK  6 active torsions:
REMARK  status: ('A' for Active; 'I' for Inactive)
REMARK    1  A    between atoms: C_1  and  C_2
REMARK    2  A    between atoms: C_2  and  C_20
REMARK    3  A    between atoms: C_8  and  O_10
REMARK    4  A    between atoms: C_11  and  O_13
REMARK    5  A    between atoms: C_14  and  O_16
REMARK    6  A    between atoms: C_20  and  O_21
REMARK                            x       y       z     vdW  Elec       q    Type
REMARK                         _______ _______ _______ _____ _____    ______ ____
ROOT
ATOM      1  C   UNL     1       3.042  -0.243   1.307  0.00  0.00    +0.087 C 
ATOM      2  C   UNL     1       2.467   0.033  -0.085  0.00  0.00    +0.268 C 
ATOM      3  O   UNL     1       2.897   1.361  -0.425  0.00  0.00    -0.331 OA
ATOM      4  C   UNL     1       2.583   1.685  -1.785  0.00  0.00    +0.184 C 
ATOM      5  C   UNL     1       3.234   0.683  -2.736  0.00  0.00    +0.178 C 
ATOM      6  O   UNL     1       2.905   0.970  -4.095  0.00  0.00    -0.341 OA
ATOM      7  C   UNL     1       3.377   2.256  -4.489  0.00  0.00    +0.279 C 
ATOM      8  C   UNL     1       2.811   3.391  -3.608  0.00  0.00    +0.201 C 
ATOM      9  C   UNL     1       2.754  -0.705  -2.323  0.00  0.00    +0.198 C 
ATOM     10  C   UNL     1       3.085   3.092  -2.126  0.00  0.00    +0.179 C 
ATOM     11  O   UNL     1       3.055  -0.934  -0.948  0.00  0.00    -0.337 OA
ENDROOT
BRANCH   2  12
ATOM     12  C   UNL     1       0.907  -0.036   0.086  0.00  0.00    +0.365 C 
ATOM     13  O   UNL     1       0.219  -1.036  -0.070  0.00  0.00    -0.245 OA
BRANCH  12  14
ATOM     14  O   UNL     1       0.371   1.170   0.423  0.00  0.00    -0.477 OA
ATOM     15  H   UNL     1       1.058   1.877   0.424  0.00  0.00    +0.295 HD
ENDBRANCH  12  14
ENDBRANCH   2  12
BRANCH   7  16
ATOM     16  O   UNL     1       2.948   2.459  -5.824  0.00  0.00    -0.365 OA
ATOM     17  H   UNL     1       2.184   1.859  -5.904  0.00  0.00    +0.213 HD
ENDBRANCH   7  16
BRANCH   8  18
ATOM     18  O   UNL     1       1.391   3.515  -3.814  0.00  0.00    -0.384 OA
ATOM     19  H   UNL     1       1.267   3.658  -4.771  0.00  0.00    +0.210 HD
ENDBRANCH   8  18
BRANCH  10  20
ATOM     20  O   UNL     1       2.450   4.041  -1.257  0.00  0.00    -0.386 OA
ATOM     21  H   UNL     1       2.447   4.906  -1.704  0.00  0.00    +0.210 HD
ENDBRANCH  10  20
TORSDOF 5
