REMARK  Name = 
REMARK  21 active torsions:
REMARK  status: ('A' for Active; 'I' for Inactive)
REMARK    1  A    between atoms: C_1  and  C_2
REMARK    2  A    between atoms: C_2  and  C_3
REMARK    3  A    between atoms: C_2  and  C_4
REMARK    4  A    between atoms: C_2  and  C_5
REMARK    5  A    between atoms: C_5  and  C_6
REMARK    6  A    between atoms: C_6  and  C_7
REMARK    7  A    between atoms: C_6  and  C_8
REMARK    8  A    between atoms: C_6  and  C_9
REMARK    9  A    between atoms: C_12  and  O_13
REMARK   10  A    between atoms: O_13  and  C_14
REMARK   11  A    between atoms: C_14  and  C_15
REMARK   12  A    between atoms: C_15  and  O_16
REMARK   13  A    between atoms: O_16  and  C_17
REMARK   14  A    between atoms: C_17  and  C_18
REMARK   15  A    between atoms: C_18  and  O_19
REMARK   16  A    between atoms: O_19  and  C_20
REMARK   17  A    between atoms: C_20  and  C_21
REMARK   18  A    between atoms: C_21  and  O_22
REMARK   19  A    between atoms: O_22  and  C_23
REMARK   20  A    between atoms: C_23  and  C_24
REMARK   21  A    between atoms: C_24  and  O_25
REMARK                            x       y       z     vdW  Elec       q    Type
REMARK                         _______ _______ _______ _____ _____    ______ ____
ROOT
ATOM      1  C   UNL     1       5.051  -1.742   2.288  0.00  0.00    -0.041 A 
ATOM      2  C   UNL     1       4.595  -3.077   2.304  0.00  0.00    +0.008 A 
ATOM      3  C   UNL     1       4.986  -3.976   3.306  0.00  0.00    +0.046 A 
ATOM      4  C   UNL     1       5.831  -3.555   4.326  0.00  0.00    +0.121 A 
ATOM      5  C   UNL     1       6.262  -2.233   4.350  0.00  0.00    +0.046 A 
ATOM      6  C   UNL     1       5.878  -1.341   3.347  0.00  0.00    +0.008 A 
ENDROOT
BRANCH   1   7
ATOM      7  C   UNL     1       4.667  -0.796   1.112  0.00  0.00    -0.009 C 
ATOM      8  C   UNL     1       3.130  -0.670   1.099  0.00  0.00    +0.016 C 
ATOM      9  C   UNL     1       5.229   0.622   1.342  0.00  0.00    +0.016 C 
BRANCH   7  10
ATOM     10  C   UNL     1       5.236  -1.448  -0.208  0.00  0.00    +0.017 C 
BRANCH  10  12
ATOM     11  C   UNL     1       5.982   0.532  -1.712  0.00  0.00    +0.010 C 
ATOM     12  C   UNL     1       5.190  -0.782  -1.630  0.00  0.00    -0.037 C 
ATOM     13  C   UNL     1       5.874  -1.765  -2.619  0.00  0.00    +0.010 C 
ATOM     14  C   UNL     1       3.762  -0.561  -2.144  0.00  0.00    +0.010 C 
ENDBRANCH  10  12
ENDBRANCH   7  10
ENDBRANCH   1   7
BRANCH   4  15
ATOM     15  O   UNL     1       6.355  -4.342   5.307  0.00  0.00    -0.490 OA
BRANCH  15  16
ATOM     16  C   UNL     1       5.610  -5.503   5.668  0.00  0.00    +0.257 C 
BRANCH  16  17
ATOM     17  C   UNL     1       6.278  -6.122   6.901  0.00  0.00    +0.201 C 
BRANCH  17  18
ATOM     18  O   UNL     1       6.451  -5.212   7.994  0.00  0.00    -0.374 OA
BRANCH  18  19
ATOM     19  C   UNL     1       5.226  -4.721   8.525  0.00  0.00    +0.188 C 
BRANCH  19  20
ATOM     20  C   UNL     1       5.506  -3.755   9.667  0.00  0.00    +0.188 C 
BRANCH  20  21
ATOM     21  O   UNL     1       4.254  -3.287  10.164  0.00  0.00    -0.375 OA
BRANCH  21  22
ATOM     22  C   UNL     1       4.422  -2.341  11.212  0.00  0.00    +0.188 C 
BRANCH  22  23
ATOM     23  C   UNL     1       3.036  -1.885  11.666  0.00  0.00    +0.188 C 
BRANCH  23  24
ATOM     24  O   UNL     1       3.164  -0.967  12.750  0.00  0.00    -0.375 OA
BRANCH  24  25
ATOM     25  C   UNL     1       1.878  -0.515  13.193  0.00  0.00    +0.187 C 
BRANCH  25  26
ATOM     26  C   UNL     1       2.089   0.436  14.365  0.00  0.00    +0.184 C 
BRANCH  26  27
ATOM     27  O   UNL     1       2.873   1.553  13.948  0.00  0.00    -0.393 OA
ATOM     28  H   UNL     1       3.647   1.165  13.496  0.00  0.00    +0.209 HD
ENDBRANCH  26  27
ENDBRANCH  25  26
ENDBRANCH  24  25
ENDBRANCH  23  24
ENDBRANCH  22  23
ENDBRANCH  21  22
ENDBRANCH  20  21
ENDBRANCH  19  20
ENDBRANCH  18  19
ENDBRANCH  17  18
ENDBRANCH  16  17
ENDBRANCH  15  16
ENDBRANCH   4  15
TORSDOF 16
