REMARK  Name = 
REMARK  16 active torsions:
REMARK  status: ('A' for Active; 'I' for Inactive)
REMARK    1  A    between atoms: C_1  and  N_2
REMARK    2  A    between atoms: N_2  and  C_3
REMARK    3  A    between atoms: N_2  and  C_4
REMARK    4  A    between atoms: N_2  and  C_5
REMARK    5  A    between atoms: C_5  and  C_6
REMARK    6  A    between atoms: C_6  and  O_7
REMARK    7  A    between atoms: O_7  and  P_8
REMARK    8  A    between atoms: P_8  and  O_11
REMARK    9  A    between atoms: O_11  and  P_12
REMARK   10  A    between atoms: P_12  and  O_13
REMARK   11  A    between atoms: P_12  and  O_15
REMARK   12  A    between atoms: O_15  and  C_16
REMARK   13  A    between atoms: C_16  and  C_17
REMARK   14  A    between atoms: C_20  and  N_28
REMARK   15  A    between atoms: C_22  and  O_24
REMARK   16  A    between atoms: C_25  and  O_27
REMARK                            x       y       z     vdW  Elec       q    Type
REMARK                         _______ _______ _______ _____ _____    ______ ____
ROOT
ATOM      1  C   UNL     1      11.477   2.411   0.479  0.00  0.00    +0.178 C 
ATOM      2  C   UNL     1      11.109   3.767   1.081  0.00  0.00    +0.178 C 
ATOM      3  C   UNL     1       9.615   3.674   1.390  0.00  0.00    +0.195 C 
ATOM      4  C   UNL     1       9.233   2.224   1.027  0.00  0.00    +0.255 C 
ATOM      5  O   UNL     1      10.472   1.500   0.966  0.00  0.00    -0.346 OA
ENDROOT
BRANCH   4   6
ATOM      6  N   UNL     1       8.314   1.597   1.977  0.00  0.00    -0.270 N 
ATOM      7  C   UNL     1       7.066   2.202   2.155  0.00  0.00    +0.352 A 
ATOM      8  O   UNL     1       6.776   3.235   1.555  0.00  0.00    -0.244 OA
ATOM      9  N   UNL     1       6.176   1.626   3.034  0.00  0.00    -0.178 NA
ATOM     10  C   UNL     1       6.489   0.526   3.641  0.00  0.00    +0.123 A 
ATOM     11  N   UNL     1       5.569   0.005   4.508  0.00  0.00    -0.343 N 
ATOM     12  H   UNL     1       4.647   0.415   4.392  0.00  0.00    +0.144 HD
ATOM     13  H   UNL     1       5.554  -1.000   4.628  0.00  0.00    +0.144 HD
ATOM     14  C   UNL     1       7.766  -0.179   3.431  0.00  0.00    +0.061 A 
ATOM     15  C   UNL     1       8.622   0.405   2.596  0.00  0.00    +0.096 A 
ENDBRANCH   4   6
BRANCH   2  16
ATOM     16  O   UNL     1      11.835   3.963   2.308  0.00  0.00    -0.386 OA
ATOM     17  H   UNL     1      11.707   3.172   2.863  0.00  0.00    +0.210 HD
ENDBRANCH   2  16
BRANCH   3  18
ATOM     18  O   UNL     1       8.877   4.630   0.625  0.00  0.00    -0.385 OA
ATOM     19  H   UNL     1       7.934   4.498   0.872  0.00  0.00    +0.210 HD
ENDBRANCH   3  18
BRANCH   1  20
ATOM     20  C   UNL     1      11.492   2.420  -1.054  0.00  0.00    +0.206 C 
BRANCH  20  21
ATOM     21  O   UNL     1      11.840   1.119  -1.534  0.00  0.00    -0.284 OA
BRANCH  21  22
ATOM     22  P   UNL     1      11.871   1.055  -3.263  0.00  0.00    +0.480 P 
ATOM     23  O   UNL     1      12.454  -0.364  -3.186  0.00  0.00    -0.227 OA
BRANCH  22  24
ATOM     24  O   UNL     1      10.255   0.762  -3.261  0.00  0.00    -0.302 OA
ATOM     25  H   UNL     1      10.177  -0.207  -3.274  0.00  0.00    +0.222 HD
ENDBRANCH  22  24
BRANCH  22  26
ATOM     26  O   UNL     1      11.902   0.991  -4.992  0.00  0.00    -0.229 OA
BRANCH  26  27
ATOM     27  P   UNL     1      11.777   2.416  -5.716  0.00  0.00    +0.222 P 
ATOM     28  O   UNL     1      10.622   3.192  -5.136  0.00  0.00    -0.437 OA
ATOM     29  O   UNL     1      13.124   3.063  -5.840  0.00  0.00    -0.517 OA
BRANCH  27  30
ATOM     30  O   UNL     1      11.344   1.900  -7.198  0.00  0.00    -0.322 OA
BRANCH  30  31
ATOM     31  C   UNL     1      10.130   2.416  -7.706  0.00  0.00    +0.218 C 
BRANCH  31  32
ATOM     32  C   UNL     1      10.270   3.924  -7.949  0.00  0.00    +0.161 C 
BRANCH  32  34
ATOM     33  C   UNL     1       9.298   6.101  -8.577  0.00  0.00    +0.192 C 
ATOM     34  N   UNL     1       8.982   4.615  -8.462  0.00  0.00    +0.239 N 
ATOM     35  C   UNL     1       8.577   4.075  -9.815  0.00  0.00    +0.192 C 
ATOM     36  C   UNL     1       7.859   4.439  -7.447  0.00  0.00    +0.192 C 
ENDBRANCH  32  34
ENDBRANCH  31  32
ENDBRANCH  30  31
ENDBRANCH  27  30
ENDBRANCH  26  27
ENDBRANCH  22  26
ENDBRANCH  21  22
ENDBRANCH  20  21
ENDBRANCH   1  20
TORSDOF 13
