REMARK  Name = 
REMARK  6 active torsions:
REMARK  status: ('A' for Active; 'I' for Inactive)
REMARK    1  A    between atoms: C_1  and  C_2
REMARK    2  A    between atoms: C_2  and  O_3
REMARK    3  A    between atoms: O_3  and  C_4
REMARK    4  A    between atoms: C_4  and  C_6
REMARK    5  A    between atoms: C_7  and  C_8
REMARK    6  A    between atoms: C_11  and  C_12
REMARK                            x       y       z     vdW  Elec       q    Type
REMARK                         _______ _______ _______ _____ _____    ______ ____
ROOT
ATOM      1  C   UNL     1       4.753  -2.193  -1.663  0.00  0.00    +0.102 A 
ATOM      2  C   UNL     1       4.476  -3.580  -1.452  0.00  0.00    +0.074 A 
ATOM      3  C   UNL     1       3.747  -4.222  -0.327  0.00  0.00    +0.068 C 
ATOM      4  N   UNL     1       4.989  -4.349  -2.420  0.00  0.00    -0.178 NA
ATOM      5  N   UNL     1       5.595  -3.483  -3.239  0.00  0.00    -0.281 N 
ATOM      6  H   UNL     1       6.076  -3.853  -4.052  0.00  0.00    +0.189 HD
ATOM      7  C   UNL     1       5.495  -2.180  -2.840  0.00  0.00    +0.047 A 
ATOM      8  C   UNL     1       6.142  -1.099  -3.624  0.00  0.00    +0.066 C 
ENDROOT
BRANCH   1   9
ATOM      9  C   UNL     1       4.400  -1.048  -0.829  0.00  0.00    +0.343 C 
ATOM     10  O   UNL     1       4.703   0.109  -1.098  0.00  0.00    -0.245 OA
BRANCH   9  11
ATOM     11  O   UNL     1       3.747  -1.421   0.307  0.00  0.00    -0.461 OA
BRANCH  11  13
ATOM     12  C   UNL     1       2.226   0.052   1.490  0.00  0.00    +0.048 C 
ATOM     13  C   UNL     1       3.650  -0.445   1.353  0.00  0.00    +0.229 C 
ENDBRANCH  11  13
ENDBRANCH   9  11
ENDBRANCH   1   9
TORSDOF 3
