REMARK  Name = 
REMARK  15 active torsions:
REMARK  status: ('A' for Active; 'I' for Inactive)
REMARK    1  A    between atoms: N_1  and  CA_2
REMARK    2  A    between atoms: CA_2  and  CB_4
REMARK    3  A    between atoms: CA_2  and  C_19
REMARK    4  A    between atoms: CB_4  and  CG_5
REMARK    5  A    between atoms: CG_5  and  CD_6
REMARK    6  A    between atoms: CD_6  and  CE_7
REMARK    7  A    between atoms: CE_7  and  N_8
REMARK    8  A    between atoms: N_8  and  CA_9
REMARK    9  A    between atoms: CA_9  and  CB_11
REMARK   10  A    between atoms: CA_9  and  C_16
REMARK   11  A    between atoms: CB_11  and  CG_12
REMARK   12  A    between atoms: CG_12  and  CD_13
REMARK   13  A    between atoms: CD_13  and  OE1_14
REMARK   14  A    between atoms: C_16  and  O_17
REMARK   15  A    between atoms: C_19  and  O_20
REMARK                            x       y       z     vdW  Elec       q    Type
REMARK                         _______ _______ _______ _____ _____    ______ ____
ROOT
ATOM      1  N   GLU A   1       2.979   6.122   0.386  0.00  0.00    -0.304 NA
ATOM      2  H   GLU A   1       3.998   6.171   0.256  0.00  0.00    +0.123 HD
ENDROOT
BRANCH   1   3
ATOM      3  CE  GLU A   1       2.559   4.807  -0.123  0.00  0.00    +0.081 C 
BRANCH   3   4
ATOM      4  CD  GLU A   1       3.236   3.673   0.658  0.00  0.00    +0.015 C 
BRANCH   4   5
ATOM      5  CG  GLU A   1       2.858   3.687   2.142  0.00  0.00    +0.003 C 
BRANCH   5   6
ATOM      6  CB  GLU A   1       3.435   2.483   2.892  0.00  0.00    +0.030 C 
BRANCH   6   7
ATOM      7  CA  GLU A   1       3.080   2.486   4.384  0.00  0.00    +0.161 C 
BRANCH   7   8
ATOM      8  N   GLU A   1       3.609   3.698   5.084  0.00  0.00    -0.318 NA
ATOM      9  H1  GLU A   1       4.464   4.000   4.606  0.00  0.00    +0.119 HD
ATOM     10  H2  GLU A   1       2.949   4.462   4.919  0.00  0.00    +0.119 HD
ENDBRANCH   7   8
BRANCH   7  11
ATOM     11  C   GLU A   1       3.667   1.238   5.070  0.00  0.00    +0.322 C 
ATOM     12  OXT GLU A   1       3.521   0.088   4.692  0.00  0.00    -0.249 OA
BRANCH  11  13
ATOM     13  O   GLU A   1       4.379   1.579   6.177  0.00  0.00    -0.480 OA
ATOM     14  H   GLU A   1       4.294   2.564   6.248  0.00  0.00    +0.295 HD
ENDBRANCH  11  13
ENDBRANCH   7  11
ENDBRANCH   6   7
ENDBRANCH   5   6
ENDBRANCH   4   5
ENDBRANCH   3   4
ENDBRANCH   1   3
BRANCH   1  15
ATOM     15  CA  GLU A   1       2.388   7.255  -0.400  0.00  0.00    +0.164 C 
BRANCH  15  16
ATOM     16  C   GLU A   1       2.957   8.555   0.208  0.00  0.00    +0.322 C 
ATOM     17  OXT GLU A   1       3.066   9.615  -0.387  0.00  0.00    -0.249 OA
BRANCH  16  18
ATOM     18  O   GLU A   1       3.282   8.393   1.517  0.00  0.00    -0.480 OA
ATOM     19  H   GLU A   1       3.100   7.448   1.738  0.00  0.00    +0.295 HD
ENDBRANCH  16  18
ENDBRANCH  15  16
BRANCH  15  20
ATOM     20  CB  GLU A   1       0.852   7.311  -0.326  0.00  0.00    +0.041 C 
BRANCH  20  21
ATOM     21  CG  GLU A   1       0.252   8.442  -1.169  0.00  0.00    +0.122 C 
BRANCH  21  22
ATOM     22  CD  GLU A   1      -1.257   8.450  -1.104  0.00  0.00    +0.305 C 
ATOM     23  OE2 GLU A   1      -1.938   7.646  -0.488  0.00  0.00    -0.251 OA
BRANCH  22  24
ATOM     24  OE1 GLU A   1      -1.796   9.463  -1.819  0.00  0.00    -0.481 OA
ATOM     25  HE1 GLU A   1      -1.134  10.045  -2.242  0.00  0.00    +0.295 HD
ENDBRANCH  22  24
ENDBRANCH  21  22
ENDBRANCH  20  21
ENDBRANCH  15  20
ENDBRANCH   1  15
TORSDOF 15
