REMARK  Name = 
REMARK  1 active torsions:
REMARK  status: ('A' for Active; 'I' for Inactive)
REMARK    1  A    between atoms: O_1  and  N_2
REMARK                            x       y       z     vdW  Elec       q    Type
REMARK                         _______ _______ _______ _____ _____    ______ ____
ROOT
ATOM      1  N   UNL     1       2.349  -0.142  -0.012  0.00  0.00    -0.138 N 
ATOM      2  C   UNL     1       3.019   1.085  -0.033  0.00  0.00    +0.159 A 
ATOM      3  C   UNL     1       4.413   1.056  -0.045  0.00  0.00    +0.274 A 
ATOM      4  C   UNL     1       5.158   2.242  -0.103  0.00  0.00    +0.084 A 
ATOM      5  C   UNL     1       4.495   3.468  -0.136  0.00  0.00    +0.007 A 
ATOM      6  C   UNL     1       3.102   3.507  -0.105  0.00  0.00    +0.003 A 
ATOM      7  N   UNL     1       5.083  -0.249   0.011  0.00  0.00    -0.043 N 
ATOM      8  O   UNL     1       6.357  -0.249   0.106  0.00  0.00    -0.595 OA
ATOM      9  N   UNL     1       4.446  -1.346  -0.014  0.00  0.00    +0.058 NA
ATOM     10  C   UNL     1       2.364   2.320  -0.057  0.00  0.00    +0.036 A 
ATOM     11  C   UNL     1       3.088  -1.301  -0.129  0.00  0.00    +0.323 A 
ATOM     12  N   UNL     1       2.531  -2.452  -0.346  0.00  0.00    -0.259 NA
ATOM     13  H   UNL     1       1.528  -2.281  -0.460  0.00  0.00    +0.190 HD
ENDROOT
BRANCH   1  14
ATOM     14  O   UNL     1       0.982  -0.248  -0.269  0.00  0.00    -0.423 OA
ATOM     15  H   UNL     1       0.618  -0.462   0.613  0.00  0.00    +0.326 HD
ENDBRANCH   1  14
TORSDOF 1
