REMARK  Name = 
REMARK  3 active torsions:
REMARK  status: ('A' for Active; 'I' for Inactive)
REMARK    1  A    between atoms: C_6  and  C_8
REMARK    2  A    between atoms: C_9  and  C_19
REMARK    3  A    between atoms: N_12  and  C_13
REMARK                            x       y       z     vdW  Elec       q    Type
REMARK                         _______ _______ _______ _____ _____    ______ ____
ROOT
ATOM      1  C   UNL     1       5.252  -2.223   0.047  0.00  0.00    +0.095 A 
ATOM      2  N   UNL     1       4.785  -3.552   0.139  0.00  0.00    -0.325 N 
ATOM      3  C   UNL     1       5.868  -4.372  -0.071  0.00  0.00    +0.200 A 
ATOM      4  N   UNL     1       6.981  -3.717  -0.207  0.00  0.00    -0.235 NA
ATOM      5  C   UNL     1       6.632  -2.392  -0.174  0.00  0.00    +0.098 A 
ENDROOT
BRANCH   1  11
ATOM      6  N   UNL     1       5.390   2.372   0.956  0.00  0.00    -0.327 N 
ATOM      7  H   UNL     1       6.313   2.191   0.580  0.00  0.00    +0.145 HD
ATOM      8  H   UNL     1       4.912   3.184   0.588  0.00  0.00    +0.145 HD
ATOM      9  C   UNL     1       4.597   1.262   0.745  0.00  0.00    +0.213 A 
ATOM     10  N   UNL     1       5.195   0.074   0.647  0.00  0.00    -0.213 NA
ATOM     11  C   UNL     1       4.476  -0.976   0.198  0.00  0.00    +0.094 A 
ATOM     12  C   UNL     1       3.150  -0.823  -0.137  0.00  0.00    +0.050 A 
ATOM     13  C   UNL     1       2.599   0.416   0.094  0.00  0.00    +0.116 A 
ATOM     14  N   UNL     1       3.305   1.480   0.505  0.00  0.00    -0.223 NA
ENDBRANCH   1  11
BRANCH   2  15
ATOM     15  C   UNL     1       3.419  -4.077   0.304  0.00  0.00    +0.091 C 
ATOM     16  C   UNL     1       2.674  -3.591   1.556  0.00  0.00    +0.040 C 
ATOM     17  C   UNL     1       3.320  -4.135   2.820  0.00  0.00    +0.083 C 
ATOM     18  N   UNL     1       3.293  -5.592   2.845  0.00  0.00    -0.316 NA
ATOM     19  H   UNL     1       3.835  -5.911   3.652  0.00  0.00    +0.122 HD
ATOM     20  C   UNL     1       3.822  -6.232   1.644  0.00  0.00    +0.083 C 
ATOM     21  C   UNL     1       3.297  -5.625   0.334  0.00  0.00    +0.040 C 
ENDBRANCH   2  15
BRANCH   5  22
ATOM     22  C   UNL     1       7.697  -1.422  -0.421  0.00  0.00    +0.003 A 
ATOM     23  C   UNL     1       7.503  -0.237  -1.151  0.00  0.00    +0.013 A 
ATOM     24  C   UNL     1       8.583   0.614  -1.430  0.00  0.00    +0.039 A 
ATOM     25  C   UNL     1       9.858   0.257  -1.019  0.00  0.00    +0.123 A 
ATOM     26  F   UNL     1      10.890   1.059  -1.320  0.00  0.00    -0.205 F 
ATOM     27  C   UNL     1      10.088  -0.915  -0.322  0.00  0.00    +0.039 A 
ATOM     28  C   UNL     1       9.005  -1.746  -0.016  0.00  0.00    +0.013 A 
ENDBRANCH   5  22
TORSDOF 3
