REMARK  Name = 
REMARK  6 active torsions:
REMARK  status: ('A' for Active; 'I' for Inactive)
REMARK    1  A    between atoms: N_1  and  C_2
REMARK    2  A    between atoms: N_10  and  C1*_11
REMARK    3  A    between atoms: C4*_14  and  C5*_16
REMARK    4  A    between atoms: C5*_16  and  O5*_17
REMARK    5  A    between atoms: C3*_18  and  O3*_20
REMARK    6  A    between atoms: C2*_21  and  O2*_23
REMARK                            x       y       z     vdW  Elec       q    Type
REMARK                         _______ _______ _______ _____ _____    ______ ____
ROOT
ATOM      1  C   UNL     1       7.462  -3.747  -4.818  0.00  0.00    +0.055 A 
ATOM      2  C   UNL     1       7.407  -3.105  -3.564  0.00  0.00    +0.128 A 
ATOM      3  N   UNL     1       7.853  -1.864  -3.170  0.00  0.00    -0.232 NA
ATOM      4  C   UNL     1       7.533  -1.786  -1.895  0.00  0.00    +0.203 A 
ATOM      5  N   UNL     1       6.930  -2.932  -1.434  0.00  0.00    -0.286 N 
ATOM      6  C   UNL     1       6.793  -3.769  -2.508  0.00  0.00    +0.164 A 
ATOM      7  N   UNL     1       6.203  -4.978  -2.539  0.00  0.00    -0.236 NA
ATOM      8  C   UNL     1       6.306  -5.573  -3.753  0.00  0.00    +0.115 A 
ATOM      9  C   UNL     1       6.908  -5.029  -4.883  0.00  0.00    +0.044 A 
ENDROOT
BRANCH   5  10
ATOM     10  C1* UNL     1       6.417  -3.128  -0.091  0.00  0.00    +0.253 C 
ATOM     11  C2* UNL     1       6.440  -4.539   0.518  0.00  0.00    +0.195 C 
ATOM     12  C3* UNL     1       7.773  -4.624   1.262  0.00  0.00    +0.178 C 
ATOM     13  C4* UNL     1       8.317  -3.197   1.230  0.00  0.00    +0.177 C 
ATOM     14  O4* UNL     1       7.216  -2.344   0.843  0.00  0.00    -0.346 OA
BRANCH  11  15
ATOM     15  O2* UNL     1       5.369  -4.669   1.482  0.00  0.00    -0.385 OA
ATOM     16  H2* UNL     1       5.408  -3.911   2.092  0.00  0.00    +0.210 HD
ENDBRANCH  11  15
BRANCH  12  17
ATOM     17  O3* UNL     1       8.668  -5.517   0.606  0.00  0.00    -0.386 OA
ATOM     18  H3* UNL     1       9.455  -5.632   1.167  0.00  0.00    +0.210 HD
ENDBRANCH  12  17
BRANCH  13  19
ATOM     19  C5* UNL     1       8.864  -2.752   2.584  0.00  0.00    +0.190 C 
BRANCH  19  20
ATOM     20  O5* UNL     1       9.418  -1.443   2.490  0.00  0.00    -0.392 OA
ATOM     21  H5* UNL     1       8.714  -0.865   2.143  0.00  0.00    +0.210 HD
ENDBRANCH  19  20
ENDBRANCH  13  19
ENDBRANCH   5  10
BRANCH   1  22
ATOM     22  N   UNL     1       8.096  -3.186  -5.940  0.00  0.00    -0.356 N 
ATOM     23  H   UNL     1       8.401  -2.233  -5.727  0.00  0.00    +0.142 HD
ATOM     24  H   UNL     1       7.522  -3.220  -6.778  0.00  0.00    +0.142 HD
ENDBRANCH   1  22
TORSDOF 6
