REMARK  Name = 
REMARK  5 active torsions:
REMARK  status: ('A' for Active; 'I' for Inactive)
REMARK    1  A    between atoms: C_1  and  C_2
REMARK    2  A    between atoms: C_2  and  O_3
REMARK    3  A    between atoms: C_6  and  O_8
REMARK    4  A    between atoms: C_9  and  O_10
REMARK    5  A    between atoms: C_9  and  O_11
REMARK                            x       y       z     vdW  Elec       q    Type
REMARK                         _______ _______ _______ _____ _____    ______ ____
ROOT
ATOM      1  C   UNL     1       2.948   0.248  -1.560  0.00  0.00    +0.082 C 
ATOM      2  C   UNL     1       2.479   0.112  -0.112  0.00  0.00    +0.246 C 
ATOM      3  C   UNL     1       2.924  -1.214   0.575  0.00  0.00    +0.322 C 
ATOM      4  C   UNL     1       4.207  -0.817   1.334  0.00  0.00    +0.229 C 
ATOM      5  C   UNL     1       4.328   0.690   1.138  0.00  0.00    +0.202 C 
ATOM      6  O   UNL     1       3.058   1.163   0.679  0.00  0.00    -0.340 OA
ENDROOT
BRANCH   2   7
ATOM      7  O   UNL     1       1.062   0.244  -0.106  0.00  0.00    -0.359 OA
ATOM      8  H   UNL     1       0.763  -0.393   0.576  0.00  0.00    +0.213 HD
ENDBRANCH   2   7
BRANCH   3   9
ATOM      9  O   UNL     1       3.082  -2.293  -0.327  0.00  0.00    -0.500 OA
ATOM     10  H   UNL     1       4.027  -2.429  -0.505  0.00  0.00    +0.288 HD
ENDBRANCH   3   9
BRANCH   3  11
ATOM     11  O   UNL     1       1.921  -1.607   1.528  0.00  0.00    -0.500 OA
ATOM     12  H   UNL     1       2.406  -2.134   2.192  0.00  0.00    +0.288 HD
ENDBRANCH   3  11
BRANCH   4  13
ATOM     13  O   UNL     1       4.093  -1.142   2.731  0.00  0.00    -0.382 OA
ATOM     14  H   UNL     1       3.468  -0.499   3.124  0.00  0.00    +0.210 HD
ENDBRANCH   4  13
TORSDOF 4
