REMARK  Name = 
REMARK  5 active torsions:
REMARK  status: ('A' for Active; 'I' for Inactive)
REMARK    1  A    between atoms: N_1  and  CA_2
REMARK    2  A    between atoms: CA_2  and  C_4
REMARK    3  A    between atoms: CA_2  and  C_13
REMARK    4  A    between atoms: C_4  and  N_5
REMARK    5  A    between atoms: C_13  and  O_14
REMARK                            x       y       z     vdW  Elec       q    Type
REMARK                         _______ _______ _______ _____ _____    ______ ____
ROOT
ATOM      1  C   UNL     1       2.902  -0.991   1.120  0.00  0.00    +0.156 C 
ENDROOT
BRANCH   1   2
ATOM      2  N   UNL     1       2.431  -0.624   2.467  0.00  0.00    -0.298 N 
ATOM      3  C   UNL     1       3.120   0.341   3.190  0.00  0.00    +0.329 A 
ATOM      4  O   UNL     1       4.087   0.957   2.746  0.00  0.00    -0.246 OA
ATOM      5  N   UNL     1       2.620   0.626   4.433  0.00  0.00    -0.275 N 
ATOM      6  H   UNL     1       3.083   1.353   4.955  0.00  0.00    +0.173 HD
ATOM      7  C   UNL     1       1.445   0.157   4.944  0.00  0.00    +0.254 A 
ATOM      8  O   UNL     1       0.965   0.566   5.994  0.00  0.00    -0.268 OA
ATOM      9  C   UNL     1       0.765  -0.873   4.144  0.00  0.00    +0.088 A 
ATOM     10  C   UNL     1       1.284  -1.216   2.964  0.00  0.00    +0.096 A 
ENDBRANCH   1   2
BRANCH   1  11
ATOM     11  CA  UNL     1       2.335  -0.111  -0.016  0.00  0.00    +0.181 C 
BRANCH  11  12
ATOM     12  N   UNL     1       2.612   1.356   0.124  0.00  0.00    -0.317 NA
ATOM     13  H1  UNL     1       2.647   1.578   1.127  0.00  0.00    +0.119 HD
ATOM     14  H2  UNL     1       3.593   1.503  -0.145  0.00  0.00    +0.119 HD
ENDBRANCH  11  12
BRANCH  11  15
ATOM     15  C   UNL     1       0.819  -0.316  -0.133  0.00  0.00    +0.323 C 
ATOM     16  OXT UNL     1       0.258  -1.399  -0.182  0.00  0.00    -0.249 OA
BRANCH  15  17
ATOM     17  O   UNL     1       0.158   0.870  -0.175  0.00  0.00    -0.479 OA
ATOM     18  H   UNL     1       0.862   1.569  -0.150  0.00  0.00    +0.295 HD
ENDBRANCH  15  17
ENDBRANCH  11  15
ENDBRANCH   1  11
TORSDOF 5
