REMARK  Name = 
REMARK  7 active torsions:
REMARK  status: ('A' for Active; 'I' for Inactive)
REMARK    1  A    between atoms: O_1  and  O_2
REMARK    2  A    between atoms: O_2  and  O_3
REMARK    3  A    between atoms: O_3  and  C_4
REMARK    4  A    between atoms: C_8  and  N_9
REMARK    5  A    between atoms: N_9  and  C_10
REMARK    6  A    between atoms: C_15  and  C_16
REMARK    7  A    between atoms: C_16  and  O_17
REMARK                            x       y       z     vdW  Elec       q    Type
REMARK                         _______ _______ _______ _____ _____    ______ ____
ROOT
ATOM      1  C   UNL     1       4.196   1.640  -0.938  0.00  0.00    +0.205 A 
ATOM      2  C   UNL     1       4.963   2.758  -1.301  0.00  0.00    +0.090 A 
ATOM      3 CL   UNL     1       4.506   3.881  -2.538  0.00  0.00    -0.080 Cl
ATOM      4  C   UNL     1       6.230   2.972  -0.728  0.00  0.00    +0.047 A 
ATOM      5  C   UNL     1       6.776   2.060   0.170  0.00  0.00    +0.034 A 
ATOM      6  C   UNL     1       5.996   0.963   0.553  0.00  0.00    +0.047 A 
ATOM      7  C   UNL     1       4.724   0.756   0.009  0.00  0.00    +0.090 A 
ATOM      8 CL   UNL     1       3.862  -0.659   0.515  0.00  0.00    -0.080 Cl
ENDROOT
BRANCH   5   9
ATOM      9  N   UNL     1       8.129   2.153   0.543  0.00  0.00    -0.314 N 
ATOM     10  H   UNL     1       8.530   3.093   0.600  0.00  0.00    +0.152 HD
BRANCH   9  11
ATOM     11  C   UNL     1       9.098   1.119   0.608  0.00  0.00    +0.045 A 
ATOM     12  C   UNL     1      10.228   1.206   1.448  0.00  0.00    +0.080 A 
ATOM     13  C   UNL     1      11.072   0.093   1.625  0.00  0.00    +0.017 A 
ATOM     14  C   UNL     1      10.809  -1.105   0.959  0.00  0.00    +0.001 A 
ATOM     15  C   UNL     1       9.740  -1.184   0.076  0.00  0.00    +0.002 A 
ATOM     16  C   UNL     1       8.898  -0.085  -0.094  0.00  0.00    +0.024 A 
BRANCH  12  17
ATOM     17  C   UNL     1      10.569   2.505   2.081  0.00  0.00    +0.339 C 
ATOM     18  O   UNL     1      10.341   3.576   1.539  0.00  0.00    -0.245 OA
BRANCH  17  19
ATOM     19  O   UNL     1      11.146   2.404   3.297  0.00  0.00    -0.477 OA
ATOM     20  H   UNL     1      11.106   1.518   3.701  0.00  0.00    +0.295 HD
ENDBRANCH  17  19
ENDBRANCH  12  17
ENDBRANCH   9  11
ENDBRANCH   5   9
BRANCH   1  21
ATOM     21  O   UNL     1       3.004   1.263  -1.518  0.00  0.00    -0.304 OA
BRANCH  21  22
ATOM     22  O   UNL     1       2.215   2.446  -1.789  0.00  0.00    -0.015 OA
BRANCH  22  23
ATOM     23  O   UNL     1       1.175   2.618  -0.800  0.00  0.00    -0.210 OA
ATOM     24  H   UNL     1       0.437   2.455  -1.411  0.00  0.00    +0.257 HD
ENDBRANCH  22  23
ENDBRANCH  21  22
ENDBRANCH   1  21
TORSDOF 7
