REMARK  Name = 
REMARK  3 active torsions:
REMARK  status: ('A' for Active; 'I' for Inactive)
REMARK    1  A    between atoms: N_1  and  C_2
REMARK    2  A    between atoms: C_7  and  C_8
REMARK    3  A    between atoms: C_8  and  O_9
REMARK                            x       y       z     vdW  Elec       q    Type
REMARK                         _______ _______ _______ _____ _____    ______ ____
ROOT
ATOM      1  C   UNL     1       2.343  -0.080  -0.065  0.00  0.00    +0.039 A 
ATOM      2  C   UNL     1       3.070  -1.285  -0.165  0.00  0.00    +0.079 A 
ATOM      3  C   UNL     1       4.467  -1.260  -0.324  0.00  0.00    +0.017 A 
ATOM      4  C   UNL     1       5.152  -0.045  -0.318  0.00  0.00    +0.001 A 
ATOM      5  C   UNL     1       4.448   1.146  -0.163  0.00  0.00    +0.002 A 
ATOM      6  C   UNL     1       3.058   1.125  -0.021  0.00  0.00    +0.023 A 
ENDROOT
BRANCH   1   7
ATOM      7  N   UNL     1       0.965  -0.051   0.224  0.00  0.00    -0.357 N 
ATOM      8  H   UNL     1       0.486  -0.897  -0.107  0.00  0.00    +0.142 HD
ATOM      9  H   UNL     1       0.495   0.788  -0.105  0.00  0.00    +0.142 HD
ENDBRANCH   1   7
BRANCH   2  10
ATOM     10  C   UNL     1       2.341  -2.582  -0.203  0.00  0.00    +0.339 C 
ATOM     11  O   UNL     1       1.226  -2.705  -0.683  0.00  0.00    -0.245 OA
BRANCH  10  12
ATOM     12  O   UNL     1       3.012  -3.612   0.361  0.00  0.00    -0.477 OA
ATOM     13  H   UNL     1       3.788  -3.349   0.888  0.00  0.00    +0.295 HD
ENDBRANCH  10  12
ENDBRANCH   2  10
TORSDOF 3
