REMARK  Name = 
REMARK  14 active torsions:
REMARK  status: ('A' for Active; 'I' for Inactive)
REMARK    1  A    between atoms: N_1  and  C_2
REMARK    2  A    between atoms: C_2  and  C_4
REMARK    3  A    between atoms: C_2  and  C_22
REMARK    4  A    between atoms: C_4  and  C_5
REMARK    5  A    between atoms: C_5  and  C_6
REMARK    6  A    between atoms: N_8  and  C_9
REMARK    7  A    between atoms: C_9  and  C_11
REMARK    8  A    between atoms: C_9  and  C_15
REMARK    9  A    between atoms: C_11  and  S_12
REMARK   10  A    between atoms: S_12  and  O_13
REMARK   11  A    between atoms: N_17  and  CA_18
REMARK   12  A    between atoms: CA_18  and  C_19
REMARK   13  A    between atoms: C_19  and  O_20
REMARK   14  A    between atoms: C_22  and  O_23
REMARK                            x       y       z     vdW  Elec       q    Type
REMARK                         _______ _______ _______ _____ _____    ______ ____
ROOT
ATOM      1  C   UNK A   1       5.526   0.772  -2.702  0.00  0.00    +0.181 C 
ENDROOT
BRANCH   1   3
ATOM      2  C   UNK A   1       7.191   0.598  -4.528  0.00  0.00    +0.214 C 
ATOM      3  N   UNK A   1       6.183   0.043  -3.788  0.00  0.00    -0.303 N 
ATOM      4  H   UNK A   1       5.990  -0.954  -3.847  0.00  0.00    +0.149 HD
ATOM      5  O   UNK A   1       7.589   1.745  -4.344  0.00  0.00    -0.276 OA
BRANCH   2   6
ATOM      6  C   UNK A   1       7.764  -0.304  -5.600  0.00  0.00    +0.098 C 
BRANCH   6   7
ATOM      7  C   UNK A   1       9.269  -0.487  -5.395  0.00  0.00    +0.039 C 
BRANCH   7   8
ATOM      8  C   UNK A   1       9.944  -1.363  -6.456  0.00  0.00    +0.161 C 
BRANCH   8   9
ATOM      9  N   UNK A   1      11.387  -1.552  -6.092  0.00  0.00    -0.318 NA
ATOM     10  H   UNK A   1      11.721  -0.698  -5.629  0.00  0.00    +0.119 HD
ATOM     11  H   UNK A   1      11.431  -2.261  -5.353  0.00  0.00    +0.119 HD
ENDBRANCH   8   9
BRANCH   8  12
ATOM     12  C   UNK A   1       9.887  -0.751  -7.872  0.00  0.00    +0.322 C 
ATOM     13  O   UNK A   1       8.870  -0.443  -8.472  0.00  0.00    -0.249 OA
BRANCH  12  14
ATOM     14  O   UNK A   1      11.130  -0.618  -8.404  0.00  0.00    -0.480 OA
ATOM     15  H   UNK A   1      11.746  -1.011  -7.736  0.00  0.00    +0.295 HD
ENDBRANCH  12  14
ENDBRANCH   8  12
ENDBRANCH   7   8
ENDBRANCH   6   7
ENDBRANCH   2   6
ENDBRANCH   1   3
BRANCH   1  16
ATOM     16  C   UNK A   1       4.989  -0.263  -1.688  0.00  0.00    +0.235 C 
ATOM     17  N   GLY A   2       4.351   0.257  -0.586  0.00  0.00    -0.303 N 
ATOM     18  H   GLY A   2       4.406   1.251  -0.398  0.00  0.00    +0.149 HD
ATOM     19  O   UNK A   1       5.121  -1.475  -1.858  0.00  0.00    -0.274 OA
BRANCH  17  20
ATOM     20  CA  GLY A   2       3.867  -0.586   0.500  0.00  0.00    +0.224 C 
BRANCH  20  21
ATOM     21  C   GLY A   2       2.417  -1.055   0.415  0.00  0.00    +0.322 C 
ATOM     22  OXT GLY A   2       1.798  -1.437   1.402  0.00  0.00    -0.249 OA
BRANCH  21  23
ATOM     23  O   GLY A   2       1.868  -1.094  -0.812  0.00  0.00    -0.480 OA
ATOM     24  H   GLY A   2       2.458  -0.841  -1.563  0.00  0.00    +0.295 HD
ENDBRANCH  21  23
ENDBRANCH  20  21
ENDBRANCH  17  20
ENDBRANCH   1  16
BRANCH   1  25
ATOM     25  C   UNK A   1       4.453   1.746  -3.195  0.00  0.00    +0.206 C 
BRANCH  25  26
ATOM     26  S   UNK A   1       3.086   0.882  -4.048  0.00  0.00    -0.004 S 
ATOM     27  O   UNK A   1       2.531  -0.147  -3.107  0.00  0.00    -0.167 OA
BRANCH  26  28
ATOM     28  O   UNK A   1       2.079   2.125  -3.922  0.00  0.00    -0.269 OA
ATOM     29  H   UNK A   1       1.190   1.762  -3.690  0.00  0.00    +0.243 HD
ENDBRANCH  26  28
ENDBRANCH  25  26
ENDBRANCH   1  25
TORSDOF 14
