REMARK  Name = 
REMARK  0 active torsions:
REMARK  status: ('A' for Active; 'I' for Inactive)
REMARK                            x       y       z     vdW  Elec       q    Type
REMARK                         _______ _______ _______ _____ _____    ______ ____
ROOT
ATOM      1  H   UNL     1       1.214  -0.102  -0.056  0.00  0.00    +0.213 HD
ATOM      2  N   UNL     1       2.232  -0.085  -0.055  0.00  0.00    -0.196 N 
ATOM      3  N   UNL     1       2.931  -1.220  -0.055  0.00  0.00    -0.154 NA
ATOM      4  C   UNL     1       4.206  -0.786  -0.054  0.00  0.00    +0.129 A 
ATOM      5  C   UNL     1       5.415  -1.517  -0.052  0.00  0.00    +0.062 A 
ATOM      6  C   UNL     1       6.598  -0.733  -0.051  0.00  0.00    +0.049 A 
ATOM      7  C   UNL     1       6.574   0.708  -0.052  0.00  0.00    +0.049 A 
ATOM      8  C   UNL     1       5.365   1.451  -0.053  0.00  0.00    +0.062 A 
ATOM      9 BR   UNL     1       5.250   3.343  -0.054  0.00  0.00    -0.047 Br
ATOM     10 BR   UNL     1       8.232   1.690  -0.051  0.00  0.00    -0.048 Br
ATOM     11 BR   UNL     1       8.287  -1.660  -0.048  0.00  0.00    -0.048 Br
ATOM     12 BR   UNL     1       5.362  -3.411  -0.052  0.00  0.00    -0.047 Br
ATOM     13  C   UNL     1       4.182   0.681  -0.054  0.00  0.00    +0.129 A 
ATOM     14  N   UNL     1       2.893   1.073  -0.055  0.00  0.00    -0.154 NA
ENDROOT
TORSDOF 0
