REMARK  Name = 
REMARK  10 active torsions:
REMARK  status: ('A' for Active; 'I' for Inactive)
REMARK    1  A    between atoms: O_1  and  C_2
REMARK    2  A    between atoms: C_2  and  C_3
REMARK    3  A    between atoms: C_3  and  O_5
REMARK    4  A    between atoms: C_3  and  C_6
REMARK    5  A    between atoms: C_6  and  O_8
REMARK    6  A    between atoms: C_6  and  C_9
REMARK    7  A    between atoms: C_12  and  C_23
REMARK    8  A    between atoms: C_17  and  O_19
REMARK    9  A    between atoms: C_20  and  O_22
REMARK   10  A    between atoms: C_23  and  O_24
REMARK                            x       y       z     vdW  Elec       q    Type
REMARK                         _______ _______ _______ _____ _____    ______ ____
ROOT
ATOM      1  C   UNL     1       4.763  -2.572   1.537  0.00  0.00    +0.181 C 
ATOM      2  C   UNL     1       6.204  -2.558   0.982  0.00  0.00    +0.177 C 
ATOM      3  C   UNL     1       6.187  -2.920  -0.518  0.00  0.00    +0.182 C 
ATOM      4  C   UNL     1       5.463  -4.249  -0.728  0.00  0.00    +0.236 C 
ATOM      5  F   UNL     1       6.163  -5.226  -0.080  0.00  0.00    -0.239 F 
ATOM      6  C   UNL     1       4.067  -4.156  -0.133  0.00  0.00    +0.263 C 
ATOM      7  O   UNL     1       4.101  -3.821   1.263  0.00  0.00    -0.354 OA
ENDROOT
BRANCH   2   8
ATOM      8  O   UNL     1       6.778  -1.260   1.202  0.00  0.00    -0.386 OA
ATOM      9  H   UNL     1       6.554  -0.686   0.450  0.00  0.00    +0.210 HD
ENDBRANCH   2   8
BRANCH   3  10
ATOM     10  O   UNL     1       7.521  -2.942  -1.038  0.00  0.00    -0.386 OA
ATOM     11  H   UNL     1       7.534  -3.453  -1.865  0.00  0.00    +0.210 HD
ENDBRANCH   3  10
BRANCH   6  12
ATOM     12  C   UNL     1       3.371  -5.501  -0.268  0.00  0.00    +0.337 C 
ATOM     13  O   UNL     1       3.149  -6.057  -1.333  0.00  0.00    -0.248 OA
BRANCH  12  14
ATOM     14  O   UNL     1       2.986  -6.010   0.936  0.00  0.00    -0.479 OA
ATOM     15  H   UNL     1       3.302  -5.386   1.637  0.00  0.00    +0.295 HD
ENDBRANCH  12  14
ENDBRANCH   6  12
BRANCH   1  16
ATOM     16  C   UNL     1       4.736  -2.329   3.067  0.00  0.00    +0.176 C 
BRANCH  16  17
ATOM     17  O   UNL     1       5.367  -3.435   3.731  0.00  0.00    -0.386 OA
ATOM     18  H   UNL     1       5.750  -3.107   4.563  0.00  0.00    +0.210 HD
ENDBRANCH  16  17
BRANCH  16  19
ATOM     19  C   UNL     1       3.292  -2.181   3.581  0.00  0.00    +0.171 C 
BRANCH  19  20
ATOM     20  O   UNL     1       2.617  -1.121   2.886  0.00  0.00    -0.387 OA
ATOM     21  H   UNL     1       1.787  -0.992   3.391  0.00  0.00    +0.210 HD
ENDBRANCH  19  20
BRANCH  19  22
ATOM     22  C   UNL     1       3.241  -1.867   5.080  0.00  0.00    +0.189 C 
BRANCH  22  23
ATOM     23  O   UNL     1       1.870  -1.711   5.458  0.00  0.00    -0.392 OA
ATOM     24  H   UNL     1       1.857  -1.570   6.421  0.00  0.00    +0.210 HD
ENDBRANCH  22  23
ENDBRANCH  19  22
ENDBRANCH  16  19
ENDBRANCH   1  16
TORSDOF 10
