REMARK  Name = 
REMARK  7 active torsions:
REMARK  status: ('A' for Active; 'I' for Inactive)
REMARK    1  A    between atoms: C_2  and  C_15
REMARK    2  A    between atoms: C_7  and  C_8
REMARK    3  A    between atoms: C_9  and  C_10
REMARK    4  A    between atoms: C_10  and  O_12
REMARK    5  A    between atoms: O_12  and  C_13
REMARK    6  A    between atoms: C_13  and  C_14
REMARK    7  A    between atoms: C_19  and  O_20
REMARK                            x       y       z     vdW  Elec       q    Type
REMARK                         _______ _______ _______ _____ _____    ______ ____
ROOT
ATOM      1  C   UNL     1       1.855  -0.097   0.090  0.00  0.00    +0.141 C 
ATOM      2  C   UNL     1       2.455  -1.329  -0.538  0.00  0.00    +0.078 C 
ATOM      3  C   UNL     1       3.141  -1.262  -1.699  0.00  0.00    +0.019 C 
ATOM      4  C   UNL     1       3.757  -2.412  -2.449  0.00  0.00    +0.061 C 
ATOM      5  N   UNL     1       3.363  -0.020  -2.263  0.00  0.00    -0.300 N 
ATOM      6  H   UNL     1       3.881   0.048  -3.134  0.00  0.00    +0.154 HD
ATOM      7  C   UNL     1       3.085   1.166  -1.656  0.00  0.00    +0.135 C 
ATOM      8  S   UNL     1       3.527   2.612  -2.339  0.00  0.00    -0.019 S 
ATOM      9  N   UNL     1       2.468   1.109  -0.451  0.00  0.00    -0.315 N 
ATOM     10  H   UNL     1       2.224   1.994  -0.024  0.00  0.00    +0.149 HD
ENDROOT
BRANCH   1  11
ATOM     11  C   UNL     1       0.341  -0.022  -0.078  0.00  0.00    -0.019 A 
ATOM     12  C   UNL     1      -0.496  -0.073   1.047  0.00  0.00    +0.051 A 
ATOM     13  C   UNL     1      -1.878   0.017   0.899  0.00  0.00    +0.117 A 
ATOM     14  C   UNL     1      -2.459   0.138  -0.358  0.00  0.00    +0.045 A 
ATOM     15  C   UNL     1      -1.641   0.180  -1.485  0.00  0.00    +0.004 A 
ATOM     16  C   UNL     1      -0.253   0.106  -1.347  0.00  0.00    +0.006 A 
BRANCH  13  17
ATOM     17  O   UNL     1      -2.641  -0.012   2.030  0.00  0.00    -0.507 OA
ATOM     18  H   UNL     1      -3.567   0.138   1.781  0.00  0.00    +0.292 HD
ENDBRANCH  13  17
ENDBRANCH   1  11
BRANCH   2  19
ATOM     19  C   UNL     1       2.290  -2.557   0.284  0.00  0.00    +0.339 C 
ATOM     20  O   UNL     1       2.153  -2.529   1.498  0.00  0.00    -0.245 OA
BRANCH  19  21
ATOM     21  O   UNL     1       2.377  -3.679  -0.469  0.00  0.00    -0.462 OA
BRANCH  21  22
ATOM     22  C   UNL     1       2.640  -4.896   0.243  0.00  0.00    +0.229 C 
ATOM     23  C   UNL     1       4.142  -5.031   0.435  0.00  0.00    +0.048 C 
ENDBRANCH  21  22
ENDBRANCH  19  21
ENDBRANCH   2  19
TORSDOF 5
