REMARK  Name = 
REMARK  19 active torsions:
REMARK  status: ('A' for Active; 'I' for Inactive)
REMARK    1  A    between atoms: N_11  and  C_12
REMARK    2  A    between atoms: C_15  and  C_17
REMARK    3  A    between atoms: C_17  and  O_18
REMARK    4  A    between atoms: O_18  and  P_19
REMARK    5  A    between atoms: P_19  and  O_20
REMARK    6  A    between atoms: P_19  and  O_22
REMARK    7  A    between atoms: O_22  and  P_23
REMARK    8  A    between atoms: P_23  and  O_24
REMARK    9  A    between atoms: P_23  and  O_26
REMARK   10  A    between atoms: O_26  and  C_27
REMARK   11  A    between atoms: C_27  and  C_28
REMARK   12  A    between atoms: C_31  and  O_33
REMARK   13  A    between atoms: C_34  and  O_36
REMARK   14  A    between atoms: C_37  and  O_39
REMARK   15  A    between atoms: C_40  and  O_42
REMARK   16  A    between atoms: C_43  and  O_45
REMARK   17  A    between atoms: O_45  and  P_46
REMARK   18  A    between atoms: P_46  and  O_47
REMARK   19  A    between atoms: P_46  and  O_48
REMARK                            x       y       z     vdW  Elec       q    Type
REMARK                         _______ _______ _______ _____ _____    ______ ____
ROOT
ATOM      1  C   UNL     1       2.666   7.638   5.691  0.00  0.00    +0.258 C 
ATOM      2  C   UNL     1       2.971   6.772   6.930  0.00  0.00    +0.211 C 
ATOM      3  C   UNL     1       4.164   5.915   6.501  0.00  0.00    +0.179 C 
ATOM      4  C   UNL     1       4.453   6.283   5.047  0.00  0.00    +0.178 C 
ATOM      5  O   UNL     1       3.814   7.558   4.800  0.00  0.00    -0.345 OA
ENDROOT
BRANCH   1  13
ATOM      6  N   UNL     1      -1.502   6.534   1.397  0.00  0.00    -0.341 N 
ATOM      7  H   UNL     1      -2.198   6.288   2.091  0.00  0.00    +0.144 HD
ATOM      8  H   UNL     1      -1.815   6.837   0.483  0.00  0.00    +0.144 HD
ATOM      9  C   UNL     1      -0.302   7.038   1.852  0.00  0.00    +0.156 A 
ATOM     10  C   UNL     1       0.109   6.954   3.197  0.00  0.00    +0.195 A 
ATOM     11  N   UNL     1      -0.494   6.451   4.321  0.00  0.00    -0.226 NA
ATOM     12  C   UNL     1       0.349   6.664   5.310  0.00  0.00    +0.207 A 
ATOM     13  N   UNL     1       1.509   7.256   4.880  0.00  0.00    -0.248 N 
ATOM     14  C   UNL     1       1.353   7.465   3.532  0.00  0.00    +0.318 A 
ATOM     15  N   UNL     1       2.185   8.030   2.625  0.00  0.00    -0.177 N 
ATOM     16  H   UNL     1       3.109   8.375   2.900  0.00  0.00    +0.456 HD
ATOM     17  C   UNL     1       1.727   8.085   1.367  0.00  0.00    +0.431 A 
ATOM     18  N   UNL     1       0.531   7.619   0.954  0.00  0.00    -0.176 NA
ENDBRANCH   1  13
BRANCH   3  19
ATOM     19  O   UNL     1       3.783   4.545   6.598  0.00  0.00    -0.386 OA
ATOM     20  H   UNL     1       4.559   3.981   6.410  0.00  0.00    +0.210 HD
ENDBRANCH   3  19
BRANCH   4  21
ATOM     21  C   UNL     1       5.954   6.342   4.732  0.00  0.00    +0.206 C 
BRANCH  21  22
ATOM     22  O   UNL     1       6.570   7.279   5.597  0.00  0.00    -0.284 OA
BRANCH  22  23
ATOM     23  P   UNL     1       8.195   7.538   5.493  0.00  0.00    +0.483 P 
ATOM     24  O   UNL     1       8.771   6.567   4.460  0.00  0.00    -0.227 OA
BRANCH  23  25
ATOM     25  O   UNL     1       7.908   8.632   4.185  0.00  0.00    -0.302 OA
ATOM     26  H   UNL     1       8.272   8.138   3.418  0.00  0.00    +0.222 HD
ENDBRANCH  23  25
BRANCH  23  27
ATOM     27  O   UNL     1       8.482   6.444   6.802  0.00  0.00    -0.186 OA
BRANCH  27  28
ATOM     28  P   UNL     1       8.720   7.341   8.262  0.00  0.00    +0.483 P 
ATOM     29  O   UNL     1       7.524   6.611   8.903  0.00  0.00    -0.227 OA
BRANCH  28  30
ATOM     30  O   UNL     1       7.923   8.650   7.645  0.00  0.00    -0.302 OA
ATOM     31  H   UNL     1       7.010   8.631   8.000  0.00  0.00    +0.222 HD
ENDBRANCH  28  30
BRANCH  28  32
ATOM     32  O   UNL     1       8.958   8.238   9.722  0.00  0.00    -0.284 OA
BRANCH  32  33
ATOM     33  C   UNL     1       9.373   9.604   9.608  0.00  0.00    +0.206 C 
BRANCH  33  34
ATOM     34  C   UNL     1      10.612   9.837   8.730  0.00  0.00    +0.179 C 
ATOM     35  C   UNL     1      10.781  11.324   8.397  0.00  0.00    +0.179 C 
ATOM     36  C   UNL     1      11.325  11.334   6.967  0.00  0.00    +0.201 C 
ATOM     37  C   UNL     1      11.397   9.854   6.573  0.00  0.00    +0.279 C 
ATOM     38  O   UNL     1      10.511   9.159   7.455  0.00  0.00    -0.341 OA
BRANCH  37  39
ATOM     39  O   UNL     1      12.694   9.332   6.760  0.00  0.00    -0.365 OA
ATOM     40  H   UNL     1      12.713   8.466   6.321  0.00  0.00    +0.213 HD
ENDBRANCH  37  39
BRANCH  36  41
ATOM     41  O   UNL     1      10.405  12.045   6.119  0.00  0.00    -0.384 OA
ATOM     42  H   UNL     1       9.564  11.556   6.083  0.00  0.00    +0.210 HD
ENDBRANCH  36  41
BRANCH  35  43
ATOM     43  O   UNL     1      11.649  11.957   9.327  0.00  0.00    -0.386 OA
ATOM     44  H   UNL     1      11.827  12.861   9.005  0.00  0.00    +0.210 HD
ENDBRANCH  35  43
ENDBRANCH  33  34
ENDBRANCH  32  33
ENDBRANCH  28  32
ENDBRANCH  27  28
ENDBRANCH  23  27
ENDBRANCH  22  23
ENDBRANCH  21  22
ENDBRANCH   4  21
BRANCH   2  45
ATOM     45  O   UNL     1       3.299   7.574   8.090  0.00  0.00    -0.276 OA
BRANCH  45  46
ATOM     46  P   UNL     1       3.665   6.586   9.463  0.00  0.00    +0.473 P 
ATOM     47  O   UNL     1       3.991   5.703  10.692  0.00  0.00    -0.228 OA
BRANCH  46  48
ATOM     48  O   UNL     1       4.518   7.872  10.000  0.00  0.00    -0.303 OA
ATOM     49  H   UNL     1       5.459   7.612  10.079  0.00  0.00    +0.222 HD
ENDBRANCH  46  48
BRANCH  46  50
ATOM     50  O   UNL     1       2.200   7.000  10.045  0.00  0.00    -0.303 OA
ATOM     51  H   UNL     1       2.247   6.843  11.010  0.00  0.00    +0.222 HD
ENDBRANCH  46  50
ENDBRANCH  45  46
ENDBRANCH   2  45
TORSDOF 19
