REMARK  Name = 
REMARK  8 active torsions:
REMARK  status: ('A' for Active; 'I' for Inactive)
REMARK    1  A    between atoms: C_1  and  C_2
REMARK    2  A    between atoms: C_7  and  C_8
REMARK    3  A    between atoms: C_8  and  N_9
REMARK    4  A    between atoms: C_10  and  C_12
REMARK    5  A    between atoms: C_14  and  C_18
REMARK    6  A    between atoms: N_20  and  C_21
REMARK    7  A    between atoms: C_21  and  C_22
REMARK    8  A    between atoms: C_24  and  C_25
REMARK                            x       y       z     vdW  Elec       q    Type
REMARK                         _______ _______ _______ _____ _____    ______ ____
ROOT
ATOM      1  C   UNL     1       3.863  -6.355  -0.313  0.00  0.00    +0.129 A 
ATOM      2  N   UNL     1       2.549  -6.023  -0.312  0.00  0.00    -0.231 NA
ATOM      3  C   UNL     1       1.696  -7.056  -0.362  0.00  0.00    +0.222 A 
ATOM      4  N   UNL     1       2.026  -8.352  -0.444  0.00  0.00    -0.231 NA
ATOM      5  C   UNL     1       3.356  -8.616  -0.419  0.00  0.00    +0.129 A 
ATOM      6  C   UNL     1       4.330  -7.649  -0.343  0.00  0.00    +0.066 A 
ENDROOT
BRANCH   1   9
ATOM      7  N   UNL     1       4.314  -3.955  -0.324  0.00  0.00    -0.306 N 
ATOM      8  H   UNL     1       3.303  -3.867  -0.321  0.00  0.00    +0.149 HD
ATOM      9  C   UNL     1       4.849  -5.226  -0.329  0.00  0.00    +0.263 C 
ATOM     10  O   UNL     1       6.053  -5.455  -0.367  0.00  0.00    -0.269 OA
BRANCH   7  11
ATOM     11  C   UNL     1       5.136  -2.771  -0.461  0.00  0.00    +0.140 C 
BRANCH  11  15
ATOM     12  C   UNL     1       4.522   1.866   1.433  0.00  0.00    +0.047 C 
ATOM     13  C   UNL     1       4.785   0.406   1.646  0.00  0.00    -0.015 A 
ATOM     14  C   UNL     1       4.761  -0.483   0.558  0.00  0.00    +0.011 A 
ATOM     15  C   UNL     1       5.047  -1.849   0.732  0.00  0.00    -0.030 A 
ATOM     16  C   UNL     1       5.350  -2.317   2.019  0.00  0.00    +0.008 A 
ATOM     17  C   UNL     1       5.357  -1.445   3.109  0.00  0.00    +0.039 A 
ATOM     18  C   UNL     1       5.077  -0.097   2.914  0.00  0.00    +0.126 A 
ATOM     19  F   UNL     1       5.106   0.726   3.974  0.00  0.00    -0.205 F 
ENDBRANCH  11  15
ENDBRANCH   7  11
ENDBRANCH   1   9
BRANCH   5  20
ATOM     20  C   UNL     1       3.760 -10.056  -0.509  0.00  0.00    +0.263 C 
ATOM     21  N   UNL     1       2.814 -10.900  -1.053  0.00  0.00    -0.306 N 
ATOM     22  H   UNL     1       1.925 -10.496  -1.326  0.00  0.00    +0.149 HD
ATOM     23  O   UNL     1       4.869 -10.417  -0.135  0.00  0.00    -0.269 OA
BRANCH  21  24
ATOM     24  C   UNL     1       3.015 -12.327  -1.184  0.00  0.00    +0.140 C 
BRANCH  24  25
ATOM     25  C   UNL     1       3.050 -12.783  -2.624  0.00  0.00    -0.030 A 
ATOM     26  C   UNL     1       4.066 -12.337  -3.485  0.00  0.00    +0.008 A 
ATOM     27  C   UNL     1       4.147 -12.812  -4.795  0.00  0.00    +0.039 A 
ATOM     28  C   UNL     1       3.219 -13.742  -5.250  0.00  0.00    +0.126 A 
ATOM     29  F   UNL     1       3.323 -14.203  -6.505  0.00  0.00    -0.205 F 
ATOM     30  C   UNL     1       2.198 -14.210  -4.421  0.00  0.00    -0.015 A 
ATOM     31  C   UNL     1       1.245 -15.249  -4.933  0.00  0.00    +0.047 C 
ATOM     32  C   UNL     1       2.118 -13.722  -3.107  0.00  0.00    +0.011 A 
ENDBRANCH  24  25
ENDBRANCH  21  24
ENDBRANCH   5  20
TORSDOF 6
