REMARK  Name = 
REMARK  2 active torsions:
REMARK  status: ('A' for Active; 'I' for Inactive)
REMARK    1  A    between atoms: O_1  and  C_2
REMARK    2  A    between atoms: C_5  and  C_8
REMARK                            x       y       z     vdW  Elec       q    Type
REMARK                         _______ _______ _______ _____ _____    ______ ____
ROOT
ATOM      1  C   UNL     1       6.795   0.083  -0.499  0.00  0.00    +0.211 C 
ATOM      2  O   UNL     1       7.404   1.317  -0.076  0.00  0.00    -0.483 OA
ATOM      3  C   UNL     1       8.767   1.323  -0.217  0.00  0.00    +0.132 A 
ATOM      4  C   UNL     1       9.541   0.165  -0.308  0.00  0.00    +0.059 A 
ATOM      5  C   UNL     1      10.928   0.246  -0.461  0.00  0.00    +0.015 A 
ATOM      6  C   UNL     1      11.545   1.497  -0.495  0.00  0.00    +0.001 A 
ATOM      7  C   UNL     1      10.776   2.657  -0.376  0.00  0.00    +0.004 A 
ATOM      8  C   UNL     1       8.871  -1.145  -0.185  0.00  0.00    +0.170 C 
ATOM      9  O   UNL     1       9.486  -2.192  -0.348  0.00  0.00    -0.292 OA
ATOM     10  C   UNL     1       9.389   2.571  -0.237  0.00  0.00    +0.046 A 
ATOM     11  C   UNL     1       7.424  -1.102   0.219  0.00  0.00    +0.129 C 
ENDROOT
BRANCH   1  15
ATOM     12  C   UNL     1       2.529   0.272   0.162  0.00  0.00    +0.117 A 
ATOM     13  C   UNL     1       3.034  -0.433  -0.921  0.00  0.00    +0.046 A 
ATOM     14  C   UNL     1       4.414  -0.498  -1.123  0.00  0.00    +0.011 A 
ATOM     15  C   UNL     1       5.298   0.149  -0.243  0.00  0.00    -0.007 A 
ATOM     16  C   UNL     1       4.765   0.832   0.862  0.00  0.00    +0.011 A 
ATOM     17  C   UNL     1       3.382   0.900   1.062  0.00  0.00    +0.046 A 
BRANCH  12  18
ATOM     18  O   UNL     1       1.174   0.332   0.304  0.00  0.00    -0.507 OA
ATOM     19  H   UNL     1       0.967   0.919   1.049  0.00  0.00    +0.292 HD
ENDBRANCH  12  18
ENDBRANCH   1  15
TORSDOF 2
