REMARK  Name = 
REMARK  1 active torsions:
REMARK  status: ('A' for Active; 'I' for Inactive)
REMARK    1  A    between atoms: C_8  and  C_9
REMARK                            x       y       z     vdW  Elec       q    Type
REMARK                         _______ _______ _______ _____ _____    ______ ____
ROOT
ATOM      1  C   UNL     1       5.417  -2.913  -0.564  0.00  0.00    -0.022 A 
ATOM      2  C   UNL     1       4.336  -3.672  -0.112  0.00  0.00    +0.010 A 
ATOM      3  C   UNL     1       4.438  -5.056   0.023  0.00  0.00    +0.030 A 
ATOM      4  C   UNL     1       5.629  -5.711  -0.215  0.00  0.00    +0.089 A 
ATOM      5  N   UNL     1       5.681  -7.044  -0.035  0.00  0.00    -0.252 NA
ATOM      6  C   UNL     1       6.881  -7.625  -0.224  0.00  0.00    +0.131 A 
ATOM      7  C   UNL     1       7.996  -6.900  -0.587  0.00  0.00    +0.131 A 
ATOM      8  N   UNL     1       7.956  -5.563  -0.797  0.00  0.00    -0.252 NA
ATOM      9  C   UNL     1       6.763  -4.960  -0.611  0.00  0.00    +0.090 A 
ATOM     10  C   UNL     1       6.631  -3.580  -0.789  0.00  0.00    +0.037 A 
ENDROOT
BRANCH   1  15
ATOM     11  O   UNL     1       0.902   0.796  -1.361  0.00  0.00    -0.262 OA
ATOM     12  C   UNL     1       2.080   0.495  -1.278  0.00  0.00    +0.283 C 
ATOM     13  S   UNL     1       2.696  -1.130  -1.461  0.00  0.00    -0.026 S 
ATOM     14  C   UNL     1       4.296  -0.669  -1.002  0.00  0.00    +0.080 C 
ATOM     15  C   UNL     1       5.348  -1.442  -0.683  0.00  0.00    +0.028 C 
ATOM     16  C   UNL     1       4.361   0.817  -0.909  0.00  0.00    +0.258 C 
ATOM     17  O   UNL     1       5.374   1.473  -0.730  0.00  0.00    -0.269 OA
ATOM     18  N   UNL     1       3.107   1.343  -1.024  0.00  0.00    -0.243 N 
ATOM     19  H   UNL     1       2.941   2.329  -0.914  0.00  0.00    +0.159 HD
ENDBRANCH   1  15
TORSDOF 1
