REMARK  Name = 
REMARK  11 active torsions:
REMARK  status: ('A' for Active; 'I' for Inactive)
REMARK    1  A    between atoms: CA_2  and  CB_3
REMARK    2  A    between atoms: CA_2  and  N_7
REMARK    3  A    between atoms: CA_2  and  C_15
REMARK    4  A    between atoms: CB_3  and  CG_4
REMARK    5  A    between atoms: CG_4  and  SD_5
REMARK    6  A    between atoms: SD_5  and  CE_6
REMARK    7  A    between atoms: C_8  and  C_10
REMARK    8  A    between atoms: C_10  and  C_11
REMARK    9  A    between atoms: C_11  and  C_12
REMARK   10  A    between atoms: C_12  and  O_13
REMARK   11  A    between atoms: C_15  and  O_16
REMARK                            x       y       z     vdW  Elec       q    Type
REMARK                         _______ _______ _______ _____ _____    ______ ____
ROOT
ATOM      1  N   MET A   1       2.553  -0.356   1.446  0.00  0.00    -0.302 N 
ATOM      2  H   MET A   1       3.054   0.430   1.850  0.00  0.00    +0.150 HD
ATOM      3  C   UNK A   0       2.066  -1.319   2.294  0.00  0.00    +0.214 C 
ATOM      4  O   UNK A   0       1.204  -2.139   1.999  0.00  0.00    -0.276 OA
ENDROOT
BRANCH   1   5
ATOM      5  CA  MET A   1       2.070  -0.157   0.059  0.00  0.00    +0.182 C 
BRANCH   5   6
ATOM      6  C   MET A   1       2.692  -1.185  -0.907  0.00  0.00    +0.325 C 
ATOM      7  OXT MET A   1       2.394  -1.296  -2.088  0.00  0.00    -0.249 OA
BRANCH   6   8
ATOM      8  O   MET A   1       3.698  -1.904  -0.351  0.00  0.00    -0.479 OA
ATOM      9  H   MET A   1       3.793  -1.667   0.590  0.00  0.00    +0.295 HD
ENDBRANCH   6   8
ENDBRANCH   5   6
BRANCH   5  10
ATOM     10  CB  MET A   1       0.542  -0.105  -0.107  0.00  0.00    +0.044 C 
BRANCH  10  11
ATOM     11  CG  MET A   1      -0.169   0.937   0.756  0.00  0.00    +0.071 C 
BRANCH  11  12
ATOM     12  SD  MET A   1       0.315   2.637   0.315  0.00  0.00    -0.164 S 
ATOM     13  CE  MET A   1      -0.757   3.531   1.468  0.00  0.00    +0.084 C 
ENDBRANCH  11  12
ENDBRANCH  10  11
ENDBRANCH   5  10
ENDBRANCH   1   5
BRANCH   3  14
ATOM     14  C   UNK A   0       2.631  -1.304   3.688  0.00  0.00    +0.107 C 
BRANCH  14  15
ATOM     15  C   UNK A   0       1.907  -0.293   4.553  0.00  0.00    +0.129 C 
BRANCH  15  16
ATOM     16  C   UNK A   0       0.446  -0.533   4.868  0.00  0.00    +0.305 C 
ATOM     17  O   UNK A   0      -0.151   0.206   5.643  0.00  0.00    -0.251 OA
BRANCH  16  18
ATOM     18  O   UNK A   0      -0.186  -1.548   4.261  0.00  0.00    -0.481 OA
ATOM     19  H   UNK A   0       0.264  -2.074   3.563  0.00  0.00    +0.295 HD
ENDBRANCH  16  18
ENDBRANCH  15  16
ENDBRANCH  14  15
ENDBRANCH   3  14
TORSDOF 10
