REMARK  Name = 
REMARK  17 active torsions:
REMARK  status: ('A' for Active; 'I' for Inactive)
REMARK    1  A    between atoms: C_1  and  C_2
REMARK    2  A    between atoms: C_2  and  N_3
REMARK    3  A    between atoms: N_3  and  C_4
REMARK    4  A    between atoms: C_4  and  C_5
REMARK    5  A    between atoms: N_8  and  C_9
REMARK    6  A    between atoms: C_12  and  O_13
REMARK    7  A    between atoms: O_13  and  C_14
REMARK    8  A    between atoms: C_14  and  C_15
REMARK    9  A    between atoms: C_15  and  O_16
REMARK   10  A    between atoms: C_15  and  C_17
REMARK   11  A    between atoms: C_17  and  N_18
REMARK   12  A    between atoms: N_18  and  C_19
REMARK   13  A    between atoms: C_19  and  C_20
REMARK   14  A    between atoms: C_19  and  C_21
REMARK   15  A    between atoms: C_19  and  C_22
REMARK   16  A    between atoms: C_23  and  C_25
REMARK   17  A    between atoms: C_25  and  C_26
REMARK                            x       y       z     vdW  Elec       q    Type
REMARK                         _______ _______ _______ _____ _____    ______ ____
ROOT
ATOM      1  C   UNL     1       6.228   1.249  -2.982  0.00  0.00    +0.036 A 
ATOM      2  C   UNL     1       7.060   0.137  -3.062  0.00  0.00    +0.038 A 
ATOM      3  C   UNL     1       8.414   0.292  -3.403  0.00  0.00    +0.060 A 
ATOM      4  C   UNL     1       8.966   1.574  -3.553  0.00  0.00    +0.131 A 
ATOM      5  C   UNL     1       8.123   2.684  -3.434  0.00  0.00    +0.048 A 
ATOM      6  C   UNL     1       6.760   2.523  -3.174  0.00  0.00    +0.027 A 
ENDROOT
BRANCH   1   9
ATOM      7  N   UNL     1       2.570   1.388  -3.043  0.00  0.00    -0.286 N 
ATOM      8  C   UNL     1       3.872   1.653  -3.469  0.00  0.00    +0.306 C 
ATOM      9  N   UNL     1       4.859   1.049  -2.714  0.00  0.00    -0.269 N 
ATOM     10  H   UNL     1       4.607   0.124  -2.401  0.00  0.00    +0.156 HD
ATOM     11  O   UNL     1       4.109   2.337  -4.462  0.00  0.00    -0.252 OA
BRANCH   7  13
ATOM     12  C   UNL     1       1.081   0.914  -4.983  0.00  0.00    +0.024 C 
ATOM     13  C   UNL     1       1.480   1.889  -3.886  0.00  0.00    +0.106 C 
ENDBRANCH   7  13
BRANCH   7  14
ATOM     14  C   UNL     1       2.221   0.848  -1.722  0.00  0.00    +0.106 C 
ATOM     15  C   UNL     1       2.112  -0.670  -1.682  0.00  0.00    +0.024 C 
ENDBRANCH   7  14
ENDBRANCH   1   9
BRANCH   3  16
ATOM     16  C   UNL     1       9.173  -0.975  -3.609  0.00  0.00    +0.164 C 
ATOM     17  O   UNL     1       8.899  -1.954  -2.910  0.00  0.00    -0.292 OA
ATOM     18  C   UNL     1      10.179  -1.078  -4.722  0.00  0.00    +0.092 C 
ENDBRANCH   3  16
BRANCH   4  19
ATOM     19  O   UNL     1      10.314   1.655  -3.776  0.00  0.00    -0.489 OA
BRANCH  19  20
ATOM     20  C   UNL     1      10.888   2.961  -3.925  0.00  0.00    +0.261 C 
BRANCH  20  21
ATOM     21  C   UNL     1      12.368   2.812  -4.300  0.00  0.00    +0.166 C 
BRANCH  21  22
ATOM     22  O   UNL     1      13.047   2.099  -3.254  0.00  0.00    -0.387 OA
ATOM     23  H   UNL     1      12.534   1.286  -3.099  0.00  0.00    +0.210 HD
ENDBRANCH  21  22
BRANCH  21  24
ATOM     24  C   UNL     1      12.593   2.061  -5.628  0.00  0.00    +0.116 C 
BRANCH  24  25
ATOM     25  N   UNL     1      11.951   2.711  -6.777  0.00  0.00    -0.309 NA
ATOM     26  H   UNL     1      12.339   3.649  -6.881  0.00  0.00    +0.123 HD
BRANCH  25  27
ATOM     27  C   UNL     1      12.082   1.994  -8.063  0.00  0.00    +0.011 C 
ATOM     28  C   UNL     1      13.554   1.782  -8.450  0.00  0.00    +0.027 C 
ATOM     29  C   UNL     1      11.420   2.880  -9.137  0.00  0.00    +0.027 C 
ATOM     30  C   UNL     1      11.341   0.647  -8.043  0.00  0.00    +0.027 C 
ENDBRANCH  25  27
ENDBRANCH  24  25
ENDBRANCH  21  24
ENDBRANCH  20  21
ENDBRANCH  19  20
ENDBRANCH   4  19
TORSDOF 11
