REMARK  Name = 
REMARK  4 active torsions:
REMARK  status: ('A' for Active; 'I' for Inactive)
REMARK    1  A    between atoms: O_1  and  C_2
REMARK    2  A    between atoms: C_2  and  C_4
REMARK    3  A    between atoms: C_5  and  C_6
REMARK    4  A    between atoms: C_9  and  O_10
REMARK                            x       y       z     vdW  Elec       q    Type
REMARK                         _______ _______ _______ _____ _____    ______ ____
ROOT
ATOM      1  C   UNL     1       5.153  -2.309   1.495  0.00  0.00    -0.025 A 
ATOM      2  C   UNL     1       4.714  -3.638   1.424  0.00  0.00    +0.011 A 
ATOM      3  C   UNL     1       5.450  -4.665   2.018  0.00  0.00    +0.046 A 
ATOM      4  C   UNL     1       6.620  -4.366   2.702  0.00  0.00    +0.117 A 
ATOM      5  C   UNL     1       7.056  -3.052   2.822  0.00  0.00    +0.046 A 
ATOM      6  C   UNL     1       6.318  -2.025   2.223  0.00  0.00    +0.011 A 
ENDROOT
BRANCH   1   8
ATOM      7  C   UNL     1       3.698  -1.333  -0.262  0.00  0.00    +0.092 C 
ATOM      8  C   UNL     1       4.422  -1.201   0.861  0.00  0.00    +0.015 C 
BRANCH   7   9
ATOM      9  C   UNL     1       3.027  -0.158  -0.849  0.00  0.00    +0.330 C 
ATOM     10  O   UNL     1       3.083   0.971  -0.396  0.00  0.00    -0.246 OA
BRANCH   9  11
ATOM     11  O   UNL     1       2.333  -0.477  -1.960  0.00  0.00    -0.478 OA
ATOM     12  H   UNL     1       2.365  -1.414  -2.224  0.00  0.00    +0.295 HD
ENDBRANCH   9  11
ENDBRANCH   7   9
ENDBRANCH   1   8
BRANCH   4  13
ATOM     13  O   UNL     1       7.317  -5.403   3.246  0.00  0.00    -0.507 OA
ATOM     14  H   UNL     1       8.137  -5.056   3.634  0.00  0.00    +0.292 HD
ENDBRANCH   4  13
TORSDOF 4
