REMARK  Name = 
REMARK  32 active torsions:
REMARK  status: ('A' for Active; 'I' for Inactive)
REMARK    1  A    between atoms: C_1  and  C_2
REMARK    2  A    between atoms: C_2  and  C_3
REMARK    3  A    between atoms: C_3  and  C_5
REMARK    4  A    between atoms: C_3  and  C_50
REMARK    5  A    between atoms: N_7  and  C_8
REMARK    6  A    between atoms: C_8  and  C_9
REMARK    7  A    between atoms: C_10  and  C_11
REMARK    8  A    between atoms: C_12  and  C_13
REMARK    9  A    between atoms: C_12  and  C_14
REMARK   10  A    between atoms: C_14  and  O_16
REMARK   11  A    between atoms: C_14  and  C_18
REMARK   12  A    between atoms: O_16  and  C_17
REMARK   13  A    between atoms: C_18  and  C_20
REMARK   14  A    between atoms: C_18  and  C_21
REMARK   15  A    between atoms: C_24  and  C_26
REMARK   16  A    between atoms: C_27  and  C_28
REMARK   17  A    between atoms: C_29  and  C_30
REMARK   18  A    between atoms: C_31  and  C_32
REMARK   19  A    between atoms: C_31  and  C_33
REMARK   20  A    between atoms: C_33  and  C_35
REMARK   21  A    between atoms: C_36  and  O_37
REMARK   22  A    between atoms: N_40  and  C_41
REMARK   23  A    between atoms: C_44  and  O_46
REMARK   24  A    between atoms: C_47  and  O_49
REMARK   25  A    between atoms: C_50  and  O_51
REMARK   26  A    between atoms: C_53  and  C_55
REMARK   27  A    between atoms: C_56  and  C_57
REMARK   28  A    between atoms: C_58  and  C_59
REMARK   29  A    between atoms: C_60  and  C_61
REMARK   30  A    between atoms: C_60  and  C_62
REMARK   31  A    between atoms: C_63  and  O_65
REMARK   32  A    between atoms: C_66  and  O_68
REMARK                            x       y       z     vdW  Elec       q    Type
REMARK                         _______ _______ _______ _____ _____    ______ ____
ROOT
ATOM      1  C   UNL     1     -18.993   0.809  13.668  0.00  0.00    +0.149 C 
ENDROOT
BRANCH   1   3
ATOM      2  C   UNL     1     -18.336   3.238  13.169  0.00  0.00    +0.001 C 
ATOM      3  C   UNL     1     -18.706   2.013  12.760  0.00  0.00    -0.044 C 
ATOM      4  C   UNL     1     -18.790   1.683  11.271  0.00  0.00    +0.042 C 
BRANCH   2   6
ATOM      5  C   UNL     1     -16.763   4.261  11.616  0.00  0.00    -0.008 C 
ATOM      6  C   UNL     1     -17.901   4.320  12.324  0.00  0.00    -0.003 C 
BRANCH   5   7
ATOM      7  C   UNL     1     -16.302   5.356  10.726  0.00  0.00    +0.131 C 
BRANCH   7   9
ATOM      8  C   UNL     1     -14.835   7.268  10.900  0.00  0.00    +0.222 C 
ATOM      9  N   UNL     1     -15.327   6.105  11.453  0.00  0.00    -0.311 N 
ATOM     10  H   UNL     1     -15.459   6.155  12.468  0.00  0.00    +0.149 HD
ATOM     11  O   UNL     1     -15.121   7.652   9.774  0.00  0.00    -0.275 OA
BRANCH   8  12
ATOM     12  C   UNL     1     -13.999   8.071  11.875  0.00  0.00    +0.136 C 
BRANCH  12  13
ATOM     13  C   UNL     1     -14.964   8.807  12.776  0.00  0.00    +0.208 C 
ATOM     14  C   UNL     1     -15.849   9.867  12.057  0.00  0.00    +0.203 C 
ATOM     15  C   UNL     1     -16.999  10.274  12.975  0.00  0.00    +0.157 C 
ATOM     16  C   UNL     1     -17.886   9.148  13.466  0.00  0.00    +0.024 C 
ATOM     17  C   UNL     1     -18.511   8.376  12.283  0.00  0.00    +0.016 C 
ATOM     18  C   UNL     1     -19.356   9.705  13.959  0.00  0.00    +0.016 C 
ATOM     19  C   UNL     1     -16.725   8.231  14.309  0.00  0.00    +0.153 C 
ATOM     20  O   UNL     1     -15.751   7.773  13.382  0.00  0.00    -0.338 OA
BRANCH  19  21
ATOM     21  C   UNL     1     -15.749   8.662  15.557  0.00  0.00    +0.005 C 
ATOM     22  C   UNL     1     -14.926   7.917  16.343  0.00  0.00    -0.002 C 
BRANCH  22  23
ATOM     23  C   UNL     1     -14.363   8.297  17.659  0.00  0.00    -0.005 C 
ATOM     24  C   UNL     1     -14.548   9.424  18.375  0.00  0.00    -0.030 C 
ATOM     25  C   UNL     1     -14.157   9.636  19.802  0.00  0.00    +0.035 C 
ENDBRANCH  22  23
ENDBRANCH  19  21
BRANCH  15  26
ATOM     26  O   UNL     1     -16.314  10.820  14.095  0.00  0.00    -0.388 OA
ATOM     27  H   UNL     1     -16.426  11.765  14.151  0.00  0.00    +0.210 HD
ENDBRANCH  15  26
BRANCH  14  28
ATOM     28  O   UNL     1     -15.051  11.052  11.836  0.00  0.00    -0.384 OA
ATOM     29  H   UNL     1     -14.672  11.214  12.730  0.00  0.00    +0.210 HD
ENDBRANCH  14  28
BRANCH  13  30
ATOM     30  O   UNL     1     -14.113   9.492  13.722  0.00  0.00    -0.362 OA
ATOM     31  H   UNL     1     -13.663   8.809  14.246  0.00  0.00    +0.213 HD
ENDBRANCH  13  30
ENDBRANCH  12  13
BRANCH  12  33
ATOM     32  C   UNL     1     -11.972   8.197  10.473  0.00  0.00    +0.005 C 
ATOM     33  C   UNL     1     -13.004   9.010  11.213  0.00  0.00    +0.015 C 
ENDBRANCH  12  33
ENDBRANCH   8  12
ENDBRANCH   7   9
ENDBRANCH   5   7
ENDBRANCH   2   6
ENDBRANCH   1   3
BRANCH   1  34
ATOM     34  C   UNL     1     -19.058   0.716  15.254  0.00  0.00    +0.050 C 
ATOM     35  C   UNL     1     -19.432  -0.755  15.593  0.00  0.00    +0.013 C 
BRANCH  34  36
ATOM     36  C   UNL     1     -20.007   1.642  16.080  0.00  0.00    +0.156 C 
ATOM     37  C   UNL     1     -19.815   1.485  17.620  0.00  0.00    +0.175 C 
ATOM     38  C   UNL     1     -18.790   2.544  18.003  0.00  0.00    +0.178 C 
ATOM     39  C   UNL     1     -18.631   3.366  16.737  0.00  0.00    +0.173 C 
ATOM     40  O   UNL     1     -19.712   3.032  15.860  0.00  0.00    -0.364 OA
BRANCH  37  41
ATOM     41  O   UNL     1     -21.047   1.783  18.297  0.00  0.00    -0.387 OA
ATOM     42  H   UNL     1     -20.855   1.775  19.253  0.00  0.00    +0.210 HD
ENDBRANCH  37  41
BRANCH  38  43
ATOM     43  O   UNL     1     -17.532   1.992  18.397  0.00  0.00    -0.386 OA
ATOM     44  H   UNL     1     -16.923   2.746  18.514  0.00  0.00    +0.210 HD
ENDBRANCH  38  43
BRANCH  39  45
ATOM     45  C   UNL     1     -18.676   4.816  17.088  0.00  0.00    +0.007 C 
ATOM     46  C   UNL     1     -17.589   5.583  17.192  0.00  0.00    -0.002 C 
BRANCH  46  47
ATOM     47  C   UNL     1     -17.623   7.012  17.416  0.00  0.00    -0.000 C 
ATOM     48  C   UNL     1     -18.021   7.926  18.394  0.00  0.00    +0.000 C 
BRANCH  48  49
ATOM     49  C   UNL     1     -17.869   9.481  18.449  0.00  0.00    +0.007 C 
ATOM     50  C   UNL     1     -17.956  10.448  17.468  0.00  0.00    -0.003 C 
ATOM     51  C   UNL     1     -18.316   9.836  16.249  0.00  0.00    +0.048 C 
BRANCH  50  52
ATOM     52  C   UNL     1     -17.875  12.060  17.193  0.00  0.00    +0.198 C 
ATOM     53  O   UNL     1     -17.891  12.773  18.205  0.00  0.00    -0.287 OA
BRANCH  52  54
ATOM     54  C   UNL     1     -17.481  12.857  15.791  0.00  0.00    +0.128 A 
ATOM     55  C   UNL     1     -18.135  12.983  14.316  0.00  0.00    +0.265 A 
ATOM     56  O   UNL     1     -19.293  12.652  14.073  0.00  0.00    -0.267 OA
ATOM     57  N   UNL     1     -17.227  13.375  13.241  0.00  0.00    -0.317 N 
ATOM     58  C   UNL     1     -17.405  13.177  11.734  0.00  0.00    +0.152 C 
ATOM     59  C   UNL     1     -16.045  14.040  13.525  0.00  0.00    +0.092 A 
ATOM     60  C   UNL     1     -15.684  14.244  14.814  0.00  0.00    +0.064 A 
ATOM     61  C   UNL     1     -16.364  13.614  15.918  0.00  0.00    +0.134 A 
BRANCH  61  62
ATOM     62  O   UNL     1     -15.672  13.818  17.094  0.00  0.00    -0.506 OA
ATOM     63  H   UNL     1     -16.270  13.623  17.840  0.00  0.00    +0.292 HD
ENDBRANCH  61  62
ENDBRANCH  52  54
ENDBRANCH  50  52
ENDBRANCH  48  49
ENDBRANCH  46  47
ENDBRANCH  39  45
ENDBRANCH  34  36
ENDBRANCH   1  34
BRANCH   1  64
ATOM     64  O   UNL     1     -18.039  -0.211  13.230  0.00  0.00    -0.375 OA
ATOM     65  C   UNL     1     -16.666   0.086  13.497  0.00  0.00    +0.194 C 
ENDBRANCH   1  64
TORSDOF 23
