REMARK  Name = 
REMARK  8 active torsions:
REMARK  status: ('A' for Active; 'I' for Inactive)
REMARK    1  A    between atoms: O_1  and  C_2
REMARK    2  A    between atoms: C_2  and  C_4
REMARK    3  A    between atoms: C_2  and  C_10
REMARK    4  A    between atoms: C_4  and  O_5
REMARK    5  A    between atoms: O_5  and  P_6
REMARK    6  A    between atoms: P_6  and  O_7
REMARK    7  A    between atoms: P_6  and  O_8
REMARK    8  A    between atoms: C_10  and  O_11
REMARK                            x       y       z     vdW  Elec       q    Type
REMARK                         _______ _______ _______ _____ _____    ______ ____
ROOT
ATOM      1  C   UNL     1       2.999  -0.865  -1.054  0.00  0.00    +0.215 C 
ENDROOT
BRANCH   1   2
ATOM      2  C   UNL     1       2.385  -0.120   0.124  0.00  0.00    +0.249 C 
BRANCH   2   3
ATOM      3  O   UNL     1       0.971   0.044  -0.079  0.00  0.00    -0.379 OA
ATOM      4  H   UNL     1       0.653  -0.824  -0.402  0.00  0.00    +0.211 HD
ENDBRANCH   2   3
BRANCH   2   5
ATOM      5  C   UNL     1       3.036   1.251   0.230  0.00  0.00    +0.336 C 
ATOM      6  O   UNL     1       4.240   1.450   0.343  0.00  0.00    -0.248 OA
BRANCH   5   7
ATOM      7  O   UNL     1       2.118   2.245   0.172  0.00  0.00    -0.479 OA
ATOM      8  H   UNL     1       1.229   1.820   0.067  0.00  0.00    +0.295 HD
ENDBRANCH   5   7
ENDBRANCH   2   5
ENDBRANCH   1   2
BRANCH   1   9
ATOM      9  O   UNL     1       2.396  -2.160  -1.164  0.00  0.00    -0.284 OA
BRANCH   9  10
ATOM     10  P   UNL     1       3.066  -3.059  -2.481  0.00  0.00    +0.472 P 
ATOM     11  O   UNL     1       3.665  -3.863  -3.661  0.00  0.00    -0.228 OA
BRANCH  10  12
ATOM     12  O   UNL     1       1.981  -2.251  -3.404  0.00  0.00    -0.303 OA
ATOM     13  H   UNL     1       1.296  -2.905  -3.641  0.00  0.00    +0.222 HD
ENDBRANCH  10  12
BRANCH  10  14
ATOM     14  O   UNL     1       1.984  -4.210  -2.046  0.00  0.00    -0.303 OA
ATOM     15  H   UNL     1       2.349  -4.809  -1.371  0.00  0.00    +0.222 HD
ENDBRANCH  10  14
ENDBRANCH   9  10
ENDBRANCH   1   9
TORSDOF 8
