REMARK  Name = 
REMARK  10 active torsions:
REMARK  status: ('A' for Active; 'I' for Inactive)
REMARK    1  A    between atoms: O_1  and  C_2
REMARK    2  A    between atoms: C_2  and  C_3
REMARK    3  A    between atoms: C_3  and  O_4
REMARK    4  A    between atoms: C_6  and  C_8
REMARK    5  A    between atoms: C_8  and  O_9
REMARK    6  A    between atoms: O_9  and  P_10
REMARK    7  A    between atoms: P_10  and  O_11
REMARK    8  A    between atoms: P_10  and  O_12
REMARK    9  A    between atoms: C_14  and  O_16
REMARK   10  A    between atoms: C_17  and  O_19
REMARK                            x       y       z     vdW  Elec       q    Type
REMARK                         _______ _______ _______ _____ _____    ______ ____
ROOT
ATOM      1  C   UNL     1       2.787  -1.498  -0.232  0.00  0.00    +0.220 C 
ATOM      2  C   UNL     1       1.851  -2.712  -0.268  0.00  0.00    +0.207 C 
ATOM      3  C   UNL     1       2.710  -3.865   0.234  0.00  0.00    +0.179 C 
ATOM      4  C   UNL     1       3.913  -3.199   0.905  0.00  0.00    +0.179 C 
ATOM      5  O   UNL     1       3.771  -1.768   0.765  0.00  0.00    -0.336 OA
ENDROOT
BRANCH   1   6
ATOM      6  O   UNL     1       2.044  -0.363   0.213  0.00  0.00    -0.361 OA
ATOM      7  H   UNL     1       2.387  -0.222   1.115  0.00  0.00    +0.213 HD
ENDBRANCH   1   6
BRANCH   2   8
ATOM      8  O   UNL     1       0.761  -2.540   0.672  0.00  0.00    -0.384 OA
ATOM      9  H   UNL     1       0.514  -1.595   0.579  0.00  0.00    +0.210 HD
ENDBRANCH   2   8
BRANCH   3  10
ATOM     10  O   UNL     1       1.996  -4.666   1.182  0.00  0.00    -0.386 OA
ATOM     11  H   UNL     1       1.236  -4.105   1.462  0.00  0.00    +0.210 HD
ENDBRANCH   3  10
BRANCH   1  12
ATOM     12  C   UNL     1       3.497  -1.156  -1.559  0.00  0.00    +0.223 C 
BRANCH  12  13
ATOM     13  O   UNL     1       2.597  -0.976  -2.650  0.00  0.00    -0.390 OA
ATOM     14  H   UNL     1       3.065  -0.457  -3.329  0.00  0.00    +0.210 HD
ENDBRANCH  12  13
ENDBRANCH   1  12
BRANCH   4  15
ATOM     15  C   UNL     1       5.222  -3.658   0.252  0.00  0.00    +0.206 C 
BRANCH  15  16
ATOM     16  O   UNL     1       6.314  -3.020   0.889  0.00  0.00    -0.284 OA
BRANCH  16  17
ATOM     17  P   UNL     1       7.730  -3.083   0.153  0.00  0.00    +0.472 P 
ATOM     18  O   UNL     1       8.093  -4.395  -0.438  0.00  0.00    -0.228 OA
BRANCH  17  19
ATOM     19  O   UNL     1       8.726  -2.528   1.264  0.00  0.00    -0.303 OA
ATOM     20  H   UNL     1       8.730  -3.101   2.051  0.00  0.00    +0.222 HD
ENDBRANCH  17  19
BRANCH  17  21
ATOM     21  O   UNL     1       7.636  -1.881  -0.894  0.00  0.00    -0.303 OA
ATOM     22  H   UNL     1       7.321  -2.172  -1.766  0.00  0.00    +0.222 HD
ENDBRANCH  17  21
ENDBRANCH  16  17
ENDBRANCH  15  16
ENDBRANCH   4  15
TORSDOF 10
