REMARK  Name = 
REMARK  17 active torsions:
REMARK  status: ('A' for Active; 'I' for Inactive)
REMARK    1  A    between atoms: O_1  and  C_2
REMARK    2  A    between atoms: C_2  and  C_4
REMARK    3  A    between atoms: C_4  and  C_5
REMARK    4  A    between atoms: C_5  and  C_6
REMARK    5  A    between atoms: C_6  and  C_8
REMARK    6  A    between atoms: C_6  and  N_23
REMARK    7  A    between atoms: C_8  and  C_9
REMARK    8  A    between atoms: C_12  and  O_13
REMARK    9  A    between atoms: O_13  and  C_14
REMARK   10  A    between atoms: C_14  and  C_15
REMARK   11  A    between atoms: C_24  and  C_26
REMARK   12  A    between atoms: C_26  and  C_27
REMARK   13  A    between atoms: C_27  and  C_28
REMARK   14  A    between atoms: C_28  and  C_29
REMARK   15  A    between atoms: C_29  and  C_30
REMARK   16  A    between atoms: C_30  and  C_31
REMARK   17  A    between atoms: C_31  and  C_32
REMARK                            x       y       z     vdW  Elec       q    Type
REMARK                         _______ _______ _______ _____ _____    ______ ____
ROOT
ATOM      1  C   UNL     1       5.470  -0.951   2.143  0.00  0.00    +0.078 C 
ENDROOT
BRANCH   1   2
ATOM      2  N   UNL     1       6.904  -0.986   1.874  0.00  0.00    -0.312 N 
ATOM      3  H   UNL     1       7.424  -1.809   2.149  0.00  0.00    +0.149 HD
ATOM      4  C   UNL     1       7.552   0.006   1.168  0.00  0.00    +0.213 C 
ATOM      5  O   UNL     1       7.016   1.051   0.812  0.00  0.00    -0.276 OA
BRANCH   4   6
ATOM      6  C   UNL     1       8.998  -0.289   0.876  0.00  0.00    +0.096 C 
BRANCH   6   7
ATOM      7  C   UNL     1       9.093  -1.498  -0.042  0.00  0.00    +0.009 C 
BRANCH   7   8
ATOM      8  C   UNL     1      10.531  -1.802  -0.428  0.00  0.00    +0.000 C 
BRANCH   8   9
ATOM      9  C   UNL     1      10.570  -3.040  -1.320  0.00  0.00    +0.000 C 
BRANCH   9  10
ATOM     10  C   UNL     1      12.000  -3.371  -1.714  0.00  0.00    +0.005 C 
BRANCH  10  11
ATOM     11  C   UNL     1      12.057  -4.604  -2.614  0.00  0.00    +0.035 C 
BRANCH  11  12
ATOM     12  C   UNL     1      13.488  -4.898  -2.974  0.00  0.00    -0.047 A 
ATOM     13  C   UNL     1      14.081  -4.272  -4.078  0.00  0.00    +0.003 A 
ATOM     14  C   UNL     1      15.434  -4.464  -4.353  0.00  0.00    +0.000 A 
ATOM     15  C   UNL     1      16.203  -5.282  -3.526  0.00  0.00    +0.000 A 
ATOM     16  C   UNL     1      15.619  -5.915  -2.430  0.00  0.00    +0.000 A 
ATOM     17  C   UNL     1      14.267  -5.724  -2.153  0.00  0.00    +0.003 A 
ENDBRANCH  11  12
ENDBRANCH  10  11
ENDBRANCH   9  10
ENDBRANCH   8   9
ENDBRANCH   7   8
ENDBRANCH   6   7
ENDBRANCH   4   6
ENDBRANCH   1   2
BRANCH   1  18
ATOM     18  C   UNL     1       5.165  -0.206   3.459  0.00  0.00    +0.034 C 
BRANCH  18  19
ATOM     19  C   UNL     1       5.718   1.218   3.512  0.00  0.00    +0.122 C 
BRANCH  19  20
ATOM     20  C   UNL     1       5.318   1.941   4.772  0.00  0.00    +0.305 C 
ATOM     21  O   UNL     1       4.621   1.480   5.661  0.00  0.00    -0.251 OA
BRANCH  20  22
ATOM     22  O   UNL     1       5.838   3.190   4.827  0.00  0.00    -0.481 OA
ATOM     23  H   UNL     1       6.371   3.419   4.040  0.00  0.00    +0.295 HD
ENDBRANCH  20  22
ENDBRANCH  19  20
ENDBRANCH  18  19
ENDBRANCH   1  18
BRANCH   1  24
ATOM     24  C   UNL     1       4.895  -2.384   2.234  0.00  0.00    +0.057 C 
BRANCH  24  25
ATOM     25  C   UNL     1       5.051  -3.240   0.995  0.00  0.00    -0.045 A 
ATOM     26  C   UNL     1       4.430  -2.899  -0.213  0.00  0.00    +0.007 A 
ATOM     27  C   UNL     1       4.495  -3.764  -1.312  0.00  0.00    +0.046 A 
ATOM     28  C   UNL     1       5.170  -4.982  -1.216  0.00  0.00    +0.121 A 
ATOM     29  C   UNL     1       5.839  -5.299  -0.035  0.00  0.00    +0.046 A 
ATOM     30  C   UNL     1       5.767  -4.442   1.066  0.00  0.00    +0.007 A 
BRANCH  28  31
ATOM     31  O   UNL     1       5.108  -5.790  -2.320  0.00  0.00    -0.487 OA
BRANCH  31  32
ATOM     32  C   UNL     1       5.341  -7.180  -2.069  0.00  0.00    +0.264 C 
BRANCH  32  33
ATOM     33  C   UNL     1       4.769  -8.008  -3.192  0.00  0.00    -0.010 A 
ATOM     34  C   UNL     1       3.415  -7.885  -3.537  0.00  0.00    +0.007 A 
ATOM     35  C   UNL     1       2.867  -8.674  -4.548  0.00  0.00    +0.000 A 
ATOM     36  C   UNL     1       3.664  -9.599  -5.218  0.00  0.00    +0.000 A 
ATOM     37  C   UNL     1       5.008  -9.741  -4.874  0.00  0.00    +0.000 A 
ATOM     38  C   UNL     1       5.558  -8.953  -3.862  0.00  0.00    +0.007 A 
ENDBRANCH  32  33
ENDBRANCH  31  32
ENDBRANCH  28  31
ENDBRANCH  24  25
ENDBRANCH   1  24
TORSDOF 17
