REMARK  Name = 
REMARK  8 active torsions:
REMARK  status: ('A' for Active; 'I' for Inactive)
REMARK    1  A    between atoms: CA_2  and  C_3
REMARK    2  A    between atoms: CA_2  and  N_5
REMARK    3  A    between atoms: CA_2  and  C_11
REMARK    4  A    between atoms: C_3  and  O_4
REMARK    5  A    between atoms: C_6  and  C_8
REMARK    6  A    between atoms: C_11  and  O_13
REMARK    7  A    between atoms: C_11  and  C_14
REMARK    8  A    between atoms: C_17  and  N_18
REMARK                            x       y       z     vdW  Elec       q    Type
REMARK                         _______ _______ _______ _____ _____    ______ ____
ROOT
ATOM      1  C   UNL     1       2.656   0.693  -1.091  0.00  0.00    +0.167 C 
ENDROOT
BRANCH   1   2
ATOM      2  C   UNL     1       4.169   0.892  -1.092  0.00  0.00    -0.017 A 
ATOM      3  C   UNL     1       5.005   0.150  -1.947  0.00  0.00    +0.008 A 
ATOM      4  C   UNL     1       6.377   0.397  -2.015  0.00  0.00    +0.023 A 
ATOM      5  C   UNL     1       6.961   1.395  -1.245  0.00  0.00    +0.025 A 
ATOM      6  C   UNL     1       6.173   2.034  -0.289  0.00  0.00    +0.023 A 
ATOM      7  C   UNL     1       4.794   1.798  -0.223  0.00  0.00    +0.008 A 
BRANCH   5   8
ATOM      8  N   UNL     1       8.346   1.588  -1.274  0.00  0.00    -0.358 N 
ATOM      9  H   UNL     1       8.756   1.358  -2.175  0.00  0.00    +0.142 HD
ATOM     10  H   UNL     1       8.629   2.510  -0.961  0.00  0.00    +0.142 HD
ENDBRANCH   5   8
ENDBRANCH   1   2
BRANCH   1  11
ATOM     11  O   UNL     1       2.006   1.948  -0.832  0.00  0.00    -0.385 OA
ATOM     12  H   UNL     1       2.156   2.167   0.103  0.00  0.00    +0.210 HD
ENDBRANCH   1  11
BRANCH   1  13
ATOM     13  CA  UNL     1       2.080   0.156  -2.435  0.00  0.00    +0.131 C 
BRANCH  13  14
ATOM     14  N   UNL     1       2.381   1.099  -3.528  0.00  0.00    -0.305 N 
ATOM     15  H   UNL     1       2.494   2.076  -3.267  0.00  0.00    +0.149 HD
ATOM     16  C   UNL     1       2.480   0.727  -4.848  0.00  0.00    +0.246 C 
ATOM     17  O   UNL     1       2.285  -0.440  -5.193  0.00  0.00    -0.273 OA
BRANCH  16  18
ATOM     18  C   UNL     1       2.822   1.830  -5.851  0.00  0.00    +0.256 C 
ATOM     19 CL   UNL     1       4.342   2.620  -5.378  0.00  0.00    -0.094 Cl
ATOM     20 CL   UNL     1       1.494   3.005  -5.904  0.00  0.00    -0.094 Cl
ENDBRANCH  16  18
ENDBRANCH  13  14
BRANCH  13  21
ATOM     21  C   UNL     1       0.564  -0.110  -2.346  0.00  0.00    +0.181 C 
BRANCH  21  22
ATOM     22  O   UNL     1       0.072  -0.832  -3.479  0.00  0.00    -0.393 OA
ATOM     23  H   UNL     1       0.801  -0.941  -4.125  0.00  0.00    +0.209 HD
ENDBRANCH  21  22
ENDBRANCH  13  21
ENDBRANCH   1  13
TORSDOF 8
