REMARK  Name = 
REMARK  5 active torsions:
REMARK  status: ('A' for Active; 'I' for Inactive)
REMARK    1  A    between atoms: N_1  and  C_2
REMARK    2  A    between atoms: C_3  and  C_21
REMARK    3  A    between atoms: C_6  and  C_11
REMARK    4  A    between atoms: C_11  and  C_13
REMARK    5  A    between atoms: C_21  and  C_23
REMARK                            x       y       z     vdW  Elec       q    Type
REMARK                         _______ _______ _______ _____ _____    ______ ____
ROOT
ATOM      1  C   UNL     1       2.474  -0.067  -0.193  0.00  0.00    +0.146 A 
ATOM      2  N   UNL     1       3.262  -1.156  -0.049  0.00  0.00    -0.213 NA
ATOM      3  C   UNL     1       4.471  -0.671   0.123  0.00  0.00    +0.140 A 
ATOM      4  N   UNL     1       4.479   0.723   0.065  0.00  0.00    -0.294 N 
ATOM      5  C   UNL     1       5.661   1.474   0.057  0.00  0.00    +0.105 A 
ATOM      6  C   UNL     1       6.852   0.839   0.086  0.00  0.00    +0.039 A 
ATOM      7  C   UNL     1       6.850  -0.609   0.313  0.00  0.00    +0.017 A 
ATOM      8  C   UNL     1       5.713  -1.327   0.322  0.00  0.00    +0.047 A 
ATOM      9  C   UNL     1       3.150   1.120  -0.011  0.00  0.00    +0.135 A 
ENDROOT
BRANCH   1  10
ATOM     10  N   UNL     1       1.185  -0.256  -0.490  0.00  0.00    -0.341 N 
ATOM     11  H   UNL     1       0.938  -1.208  -0.751  0.00  0.00    +0.144 HD
ATOM     12  H   UNL     1       0.682   0.431  -1.042  0.00  0.00    +0.144 HD
ENDBRANCH   1  10
BRANCH   6  13
ATOM     13  C   UNL     1       8.175   1.527  -0.079  0.00  0.00    +0.200 C 
ATOM     14  O   UNL     1       9.173   1.056   0.464  0.00  0.00    -0.286 OA
BRANCH  13  15
ATOM     15  C   UNL     1       8.325   2.716  -0.952  0.00  0.00    +0.093 A 
ATOM     16  C   UNL     1       7.577   2.901  -2.117  0.00  0.00    +0.137 A 
ATOM     17  F   UNL     1       6.625   2.032  -2.482  0.00  0.00    -0.205 F 
ATOM     18  C   UNL     1       7.820   3.980  -2.971  0.00  0.00    +0.039 A 
ATOM     19  C   UNL     1       8.845   4.878  -2.686  0.00  0.00    +0.006 A 
ATOM     20  C   UNL     1       9.604   4.705  -1.532  0.00  0.00    +0.039 A 
ATOM     21  C   UNL     1       9.339   3.637  -0.673  0.00  0.00    +0.137 A 
ATOM     22  F   UNL     1      10.089   3.529   0.433  0.00  0.00    -0.205 F 
ENDBRANCH  13  15
ENDBRANCH   6  13
BRANCH   9  23
ATOM     23  C   UNL     1       2.684   2.485   0.048  0.00  0.00    +0.213 C 
ATOM     24  O   UNL     1       3.330   3.420  -0.425  0.00  0.00    -0.285 OA
BRANCH  23  25
ATOM     25  C   UNL     1       1.405   2.823   0.753  0.00  0.00    +0.024 A 
ATOM     26  C   UNL     1       0.871   2.015   1.767  0.00  0.00    +0.012 A 
ATOM     27  C   UNL     1      -0.268   2.421   2.470  0.00  0.00    +0.001 A 
ATOM     28  C   UNL     1      -0.873   3.642   2.178  0.00  0.00    +0.000 A 
ATOM     29  C   UNL     1      -0.358   4.449   1.166  0.00  0.00    +0.001 A 
ATOM     30  C   UNL     1       0.775   4.041   0.454  0.00  0.00    +0.012 A 
ENDBRANCH  23  25
ENDBRANCH   9  23
TORSDOF 5
