REMARK  Name = 
REMARK  0 active torsions:
REMARK  status: ('A' for Active; 'I' for Inactive)
REMARK                            x       y       z     vdW  Elec       q    Type
REMARK                         _______ _______ _______ _____ _____    ______ ____
ROOT
ATOM      1  O   GLY A   2       1.049   0.035   0.330  0.00  0.00    -0.274 OA
ATOM      2  C   GLY A   2       2.261   0.022   0.129  0.00  0.00    +0.233 C 
ATOM      3  N   PRO A   1       2.982  -1.134  -0.079  0.00  0.00    -0.289 N 
ATOM      4  CA  PRO A   1       4.396  -1.187   0.224  0.00  0.00    +0.162 C 
ATOM      5  CB  PRO A   1       4.832  -2.561  -0.273  0.00  0.00    +0.033 C 
ATOM      6  CG  PRO A   1       3.533  -3.359  -0.468  0.00  0.00    +0.021 C 
ATOM      7  C   PRO A   1       5.153   0.010  -0.349  0.00  0.00    +0.234 C 
ATOM      8  O   PRO A   1       6.317  -0.020  -0.733  0.00  0.00    -0.274 OA
ATOM      9  N   GLY A   2       4.510   1.213  -0.135  0.00  0.00    -0.305 N 
ATOM     10  H   GLY A   2       5.038   2.015  -0.453  0.00  0.00    +0.149 HD
ATOM     11  CD  PRO A   1       2.409  -2.452   0.012  0.00  0.00    +0.108 C 
ATOM     12  CA  GLY A   2       3.056   1.307  -0.168  0.00  0.00    +0.200 C 
ENDROOT
TORSDOF 0
