REMARK  Name = 
REMARK  5 active torsions:
REMARK  status: ('A' for Active; 'I' for Inactive)
REMARK    1  A    between atoms: C_1  and  O_2
REMARK    2  A    between atoms: O_2  and  C_3
REMARK    3  A    between atoms: C_6  and  C_15
REMARK    4  A    between atoms: C_8  and  O_9
REMARK    5  A    between atoms: O_9  and  C_10
REMARK                            x       y       z     vdW  Elec       q    Type
REMARK                         _______ _______ _______ _____ _____    ______ ____
ROOT
ATOM      1  C   UNL     1       9.281   2.506   2.076  0.00  0.00    +0.162 A 
ATOM      2  C   UNL     1       9.052   3.711   2.757  0.00  0.00    +0.163 A 
ATOM      3  C   UNL     1       7.785   3.947   3.328  0.00  0.00    +0.053 A 
ATOM      4  C   UNL     1       6.728   3.033   3.202  0.00  0.00    -0.039 A 
ATOM      5  C   UNL     1       6.984   1.827   2.546  0.00  0.00    +0.008 A 
ATOM      6  C   UNL     1       8.235   1.574   1.984  0.00  0.00    +0.049 A 
ENDROOT
BRANCH   4   7
ATOM      7  C   UNL     1       5.324   3.270   3.735  0.00  0.00    +0.045 C 
ATOM      8  C   UNL     1       5.172   2.826   5.196  0.00  0.00    +0.105 C 
ATOM      9  C   UNL     1       5.292   4.120   5.965  0.00  0.00    +0.214 C 
ATOM     10  O   UNL     1       5.411   4.229   7.174  0.00  0.00    -0.276 OA
ATOM     11  N   UNL     1       5.170   5.169   5.084  0.00  0.00    -0.315 N 
ATOM     12  H   UNL     1       5.119   6.122   5.425  0.00  0.00    +0.149 HD
ATOM     13  C   UNL     1       4.868   4.731   3.755  0.00  0.00    +0.112 C 
ENDBRANCH   4   7
BRANCH   1  15
ATOM     14  C   UNL     1      10.839   0.922   1.233  0.00  0.00    +0.277 C 
ATOM     15  O   UNL     1      10.513   2.277   1.525  0.00  0.00    -0.491 OA
ENDBRANCH   1  15
BRANCH   2  16
ATOM     16  O   UNL     1       9.954   4.704   3.039  0.00  0.00    -0.485 OA
BRANCH  16  17
ATOM     17  C   UNL     1      10.995   5.021   2.117  0.00  0.00    +0.174 C 
ATOM     18  C   UNL     1      12.342   4.406   2.524  0.00  0.00    +0.044 C 
ATOM     19  C   UNL     1      13.399   5.506   2.406  0.00  0.00    +0.004 C 
ATOM     20  C   UNL     1      12.698   6.685   1.753  0.00  0.00    +0.004 C 
ATOM     21  C   UNL     1      11.259   6.530   2.212  0.00  0.00    +0.044 C 
ENDBRANCH  16  17
ENDBRANCH   2  16
TORSDOF 4
