REMARK  Name = 
REMARK  13 active torsions:
REMARK  status: ('A' for Active; 'I' for Inactive)
REMARK    1  A    between atoms: C_2  and  O_3
REMARK    2  A    between atoms: C_2  and  C_4
REMARK    3  A    between atoms: C_2  and  C_6
REMARK    4  A    between atoms: C_4  and  C_5
REMARK    5  A    between atoms: C_6  and  C_7
REMARK    6  A    between atoms: C_7  and  O_9
REMARK    7  A    between atoms: C_7  and  C_10
REMARK    8  A    between atoms: C_11  and  O_12
REMARK    9  A    between atoms: C_16  and  C_17
REMARK   10  A    between atoms: C_17  and  C_18
REMARK   11  A    between atoms: C_18  and  O_20
REMARK   12  A    between atoms: O_20  and  C_21
REMARK   13  A    between atoms: C_28  and  O_29
REMARK                            x       y       z     vdW  Elec       q    Type
REMARK                         _______ _______ _______ _____ _____    ______ ____
ROOT
ATOM      1  C   UNL     1       4.638   2.084  -1.828  0.00  0.00    +0.027 A 
ATOM      2  C   UNL     1       4.372   3.432  -1.482  0.00  0.00    -0.027 A 
ATOM      3  C   UNL     1       4.726   4.447  -2.401  0.00  0.00    +0.017 A 
ATOM      4  C   UNL     1       5.338   4.147  -3.634  0.00  0.00    +0.037 A 
ATOM      5  C   UNL     1       5.615   5.237  -4.596  0.00  0.00    +0.195 C 
ATOM      6  C   UNL     1       6.269   4.925  -5.885  0.00  0.00    +0.037 A 
ATOM      7  C   UNL     1       6.626   3.615  -6.203  0.00  0.00    +0.075 A 
ATOM      8  C   UNL     1       6.241   2.517  -5.288  0.00  0.00    +0.202 C 
ATOM      9  O   UNL     1       6.356   1.358  -5.664  0.00  0.00    -0.286 OA
ATOM     10  C   UNL     1       7.283   3.362  -7.422  0.00  0.00    +0.128 A 
ATOM     11  C   UNL     1       7.533   4.392  -8.328  0.00  0.00    +0.046 A 
ATOM     12  C   UNL     1       7.147   5.693  -8.017  0.00  0.00    +0.004 A 
ATOM     13  C   UNL     1       6.527   5.963  -6.795  0.00  0.00    +0.012 A 
ATOM     14  O   UNL     1       5.300   6.388  -4.324  0.00  0.00    -0.287 OA
ATOM     15  C   UNL     1       5.640   2.833  -3.964  0.00  0.00    +0.075 A 
ATOM     16  C   UNL     1       5.304   1.819  -3.052  0.00  0.00    +0.134 A 
ENDROOT
BRANCH  10  17
ATOM     17  O   UNL     1       7.711   2.105  -7.744  0.00  0.00    -0.506 OA
ATOM     18  H   UNL     1       8.021   2.063  -8.661  0.00  0.00    +0.292 HD
ENDBRANCH  10  17
BRANCH  16  19
ATOM     19  O   UNL     1       5.611   0.523  -3.380  0.00  0.00    -0.506 OA
ATOM     20  H   UNL     1       5.522  -0.037  -2.581  0.00  0.00    +0.292 HD
ENDBRANCH  16  19
BRANCH   1  21
ATOM     21  C   UNL     1       4.122   0.919  -0.988  0.00  0.00    +0.151 C 
BRANCH  21  22
ATOM     22  O   UNL     1       5.035  -0.183  -1.093  0.00  0.00    -0.387 OA
ATOM     23  H   UNL     1       5.238  -0.462  -0.180  0.00  0.00    +0.210 HD
ENDBRANCH  21  22
BRANCH  21  24
ATOM     24  C   UNL     1       2.738   0.475  -1.497  0.00  0.00    +0.067 C 
BRANCH  24  25
ATOM     25  C   UNL     1       2.200  -0.721  -0.708  0.00  0.00    +0.117 C 
BRANCH  25  26
ATOM     26  O   UNL     1       2.133  -0.360   0.672  0.00  0.00    -0.392 OA
ATOM     27  H   UNL     1       1.418   0.291   0.775  0.00  0.00    +0.210 HD
ENDBRANCH  25  26
BRANCH  25  28
ATOM     28  C   UNL     1       0.818  -1.165  -1.202  0.00  0.00    +0.028 C 
ATOM     29  C   UNL     1       0.296  -2.361  -0.415  0.00  0.00    +0.006 C 
ENDBRANCH  25  28
ENDBRANCH  24  25
ENDBRANCH  21  24
ENDBRANCH   1  21
BRANCH   2  30
ATOM     30  C   UNL     1       3.646   3.845  -0.204  0.00  0.00    +0.156 C 
BRANCH  30  31
ATOM     31  C   UNL     1       4.369   3.573   1.105  0.00  0.00    +0.311 C 
ATOM     32  O   UNL     1       5.455   3.026   1.225  0.00  0.00    -0.250 OA
BRANCH  31  33
ATOM     33  O   UNL     1       3.589   4.009   2.139  0.00  0.00    -0.468 OA
ATOM     34  C   UNL     1       4.092   3.814   3.468  0.00  0.00    +0.280 C 
ENDBRANCH  31  33
ENDBRANCH  30  31
ENDBRANCH   2  30
TORSDOF 11
