REMARK  Name = 
REMARK  4 active torsions:
REMARK  status: ('A' for Active; 'I' for Inactive)
REMARK    1  A    between atoms: C_2  and  N_12
REMARK    2  A    between atoms: C_8  and  O_9
REMARK    3  A    between atoms: N_12  and  C_13
REMARK    4  A    between atoms: C_13  and  C_14
REMARK                            x       y       z     vdW  Elec       q    Type
REMARK                         _______ _______ _______ _____ _____    ______ ____
ROOT
ATOM      1  C   UNL     1       1.938   0.110  -0.098  0.00  0.00    +0.085 C 
ATOM      2  C   UNL     1       2.220  -1.158   0.662  0.00  0.00    -0.024 A 
ATOM      3  C   UNL     1       3.088  -0.941   1.731  0.00  0.00    -0.042 A 
ATOM      4  C   UNL     1       3.609  -2.005   2.454  0.00  0.00    +0.007 A 
ATOM      5  C   UNL     1       3.264  -3.308   2.077  0.00  0.00    +0.045 A 
ATOM      6  C   UNL     1       2.372  -3.515   1.024  0.00  0.00    +0.117 A 
ATOM      7  C   UNL     1       3.395   0.512   1.896  0.00  0.00    +0.037 C 
ATOM      8  C   UNL     1       1.806  -2.446   0.342  0.00  0.00    +0.050 A 
ATOM      9  C   UNL     1       2.403   1.175   0.925  0.00  0.00    +0.028 C 
ENDROOT
BRANCH   1  10
ATOM     10  N   UNL     1       2.714   0.218  -1.342  0.00  0.00    -0.299 NA
ATOM     11  H   UNL     1       3.699   0.054  -1.142  0.00  0.00    +0.123 HD
BRANCH  10  12
ATOM     12  C   UNL     1       2.272  -0.750  -2.337  0.00  0.00    +0.171 C 
BRANCH  12  13
ATOM     13  C   UNL     1       3.074  -0.614  -3.621  0.00  0.00    -0.090 C 
ATOM     14  C   UNL     1       3.762  -0.497  -4.723  0.00  0.00    +0.005 C 
ENDBRANCH  12  13
ENDBRANCH  10  12
ENDBRANCH   1  10
BRANCH   6  15
ATOM     15  O   UNL     1       2.059  -4.770   0.589  0.00  0.00    -0.507 OA
ATOM     16  H   UNL     1       2.674  -5.399   1.001  0.00  0.00    +0.292 HD
ENDBRANCH   6  15
TORSDOF 4
