REMARK  Name = 
REMARK  11 active torsions:
REMARK  status: ('A' for Active; 'I' for Inactive)
REMARK    1  A    between atoms: C_2  and  C_3
REMARK    2  A    between atoms: C_3  and  C_4
REMARK    3  A    between atoms: C_5  and  C_6
REMARK    4  A    between atoms: C_5  and  C_7
REMARK    5  A    between atoms: C_9  and  C_10
REMARK    6  A    between atoms: C_9  and  C_11
REMARK    7  A    between atoms: C_11  and  O_12
REMARK    8  A    between atoms: C_13  and  O_15
REMARK    9  A    between atoms: O_15  and  C_16
REMARK   10  A    between atoms: C_21  and  C_22
REMARK   11  A    between atoms: C_21  and  O_23
REMARK                            x       y       z     vdW  Elec       q    Type
REMARK                         _______ _______ _______ _____ _____    ______ ____
ROOT
ATOM      1  C   UNL     1       4.103   1.548  -1.039  0.00  0.00    +0.158 C 
ATOM      2  C   UNL     1       4.750   1.980  -2.430  0.00  0.00    +0.098 C 
ATOM      3  C   UNL     1       6.137   2.660  -2.321  0.00  0.00    +0.044 C 
ATOM      4  C   UNL     1       4.878   0.780  -3.378  0.00  0.00    +0.045 C 
ATOM      5  C   UNL     1       5.582  -0.421  -2.752  0.00  0.00    +0.080 C 
ATOM      6  C   UNL     1       5.152  -0.715  -1.332  0.00  0.00    +0.165 C 
ATOM      7  O   UNL     1       5.034  -1.873  -0.928  0.00  0.00    -0.295 OA
ATOM      8  C   UNL     1       5.005   0.468  -0.370  0.00  0.00    +0.221 C 
ENDROOT
BRANCH   1  10
ATOM      9  C   UNL     1       2.082  -0.312  -0.702  0.00  0.00    +0.157 C 
ATOM     10  C   UNL     1       2.581   1.103  -1.152  0.00  0.00    +0.127 C 
ATOM     11  C   UNL     1       1.564   2.212  -1.330  0.00  0.00    +0.047 C 
ATOM     12  O   UNL     1       2.359   0.014  -2.060  0.00  0.00    -0.362 OA
BRANCH   9  13
ATOM     13  C   UNL     1       0.660  -0.725  -0.460  0.00  0.00    +0.061 C 
BRANCH  13  14
ATOM     14  C   UNL     1       0.196  -1.955  -1.202  0.00  0.00    -0.026 C 
ATOM     15  C   UNL     1       0.289  -3.239  -0.806  0.00  0.00    -0.080 C 
ATOM     16  C   UNL     1      -0.371  -4.340  -1.595  0.00  0.00    +0.038 C 
ATOM     17  C   UNL     1       1.028  -3.704   0.417  0.00  0.00    +0.038 C 
ENDBRANCH  13  14
ENDBRANCH   9  13
ENDBRANCH   1  10
BRANCH   2  18
ATOM     18  O   UNL     1       3.925   2.952  -3.096  0.00  0.00    -0.386 OA
ATOM     19  H   UNL     1       3.548   3.523  -2.403  0.00  0.00    +0.210 HD
ENDBRANCH   2  18
BRANCH   8  20
ATOM     20  O   UNL     1       6.367   0.833  -0.095  0.00  0.00    -0.369 OA
ATOM     21  C   UNL     1       6.573   1.777   0.944  0.00  0.00    +0.195 C 
ENDBRANCH   8  20
BRANCH   1  22
ATOM     22  O   UNL     1       4.074   2.718  -0.184  0.00  0.00    -0.380 OA
ATOM     23  H   UNL     1       3.715   2.439   0.678  0.00  0.00    +0.211 HD
ENDBRANCH   1  22
TORSDOF 6
