REMARK  Name = 
REMARK  2 active torsions:
REMARK  status: ('A' for Active; 'I' for Inactive)
REMARK    1  A    between atoms: C_1  and  N_2
REMARK    2  A    between atoms: N_2  and  C_3
REMARK                            x       y       z     vdW  Elec       q    Type
REMARK                         _______ _______ _______ _____ _____    ______ ____
ROOT
ATOM      1  C   UNL     1       1.132  -0.103  -0.419  0.00  0.00    +0.132 C 
ATOM      2  N   UNL     1       2.439   0.040   0.220  0.00  0.00    -0.307 N 
ATOM      3  C   UNL     1       3.049  -1.118   0.583  0.00  0.00    +0.196 A 
ATOM      4  N   UNL     1       4.230  -1.120   1.275  0.00  0.00    -0.325 N 
ATOM      5  H   UNL     1       4.733  -0.297   1.564  0.00  0.00    +0.169 HD
ATOM      6  C   UNL     1       4.569  -2.417   1.574  0.00  0.00    +0.084 A 
ATOM      7  C   UNL     1       3.557  -3.174   1.001  0.00  0.00    +0.107 A 
ATOM      8  C   UNL     1       3.604  -4.578   1.103  0.00  0.00    +0.060 A 
ATOM      9  C   UNL     1       4.668  -5.175   1.817  0.00  0.00    +0.049 A 
ATOM     10  C   UNL     1       5.672  -4.374   2.412  0.00  0.00    +0.049 A 
ATOM     11 BR   UNL     1       7.099  -5.175   3.414  0.00  0.00    -0.048 Br
ATOM     12 BR   UNL     1       4.732  -7.088   1.975  0.00  0.00    -0.048 Br
ATOM     13 BR   UNL     1       2.213  -5.570   0.262  0.00  0.00    -0.047 Br
ATOM     14  C   UNL     1       5.636  -2.969   2.285  0.00  0.00    +0.058 A 
ATOM     15 BR   UNL     1       6.927  -1.788   3.024  0.00  0.00    -0.047 Br
ATOM     16  N   UNL     1       2.626  -2.349   0.409  0.00  0.00    -0.213 NA
ATOM     17  C   UNL     1       3.239   1.185  -0.193  0.00  0.00    +0.132 C 
ENDROOT
TORSDOF 0
