REMARK  Name = 
REMARK  17 active torsions:
REMARK  status: ('A' for Active; 'I' for Inactive)
REMARK    1  A    between atoms: N_6  and  C_9
REMARK    2  A    between atoms: C_12  and  C_14
REMARK    3  A    between atoms: C_14  and  O_15
REMARK    4  A    between atoms: O_15  and  P_16
REMARK    5  A    between atoms: P_16  and  O_17
REMARK    6  A    between atoms: P_16  and  O_19
REMARK    7  A    between atoms: O_19  and  C_20
REMARK    8  A    between atoms: C_20  and  C_36
REMARK    9  A    between atoms: C_22  and  O_24
REMARK   10  A    between atoms: C_25  and  O_27
REMARK   11  A    between atoms: C_28  and  C_31
REMARK   12  A    between atoms: C_31  and  O_33
REMARK   13  A    between atoms: C_31  and  C_34
REMARK   14  A    between atoms: C_34  and  O_35
REMARK   15  A    between atoms: C_36  and  O_37
REMARK   16  A    between atoms: C_39  and  O_41
REMARK   17  A    between atoms: C_42  and  O_44
REMARK                            x       y       z     vdW  Elec       q    Type
REMARK                         _______ _______ _______ _____ _____    ______ ____
ROOT
ATOM      1  P   UNL     1       8.763   2.709   4.735  0.00  0.00    +0.478 P 
ATOM      2  O   UNL     1       7.322   2.345   4.625  0.00  0.00    -0.227 OA
ENDROOT
BRANCH   1   3
ATOM      3  O   UNL     1       9.670   1.696   3.893  0.00  0.00    -0.302 OA
ATOM      4  H   UNL     1       9.150   0.924   3.600  0.00  0.00    +0.222 HD
ENDBRANCH   1   3
BRANCH   1   5
ATOM      5  O   UNL     1       9.089   4.123   4.065  0.00  0.00    -0.284 OA
BRANCH   5   6
ATOM      6  C   UNL     1      10.434   4.560   4.002  0.00  0.00    +0.206 C 
BRANCH   6  10
ATOM      7  C   UNL     1       9.565   7.920   2.856  0.00  0.00    +0.255 C 
ATOM      8  C   UNL     1       9.366   7.156   1.528  0.00  0.00    +0.195 C 
ATOM      9  C   UNL     1       9.994   5.779   1.774  0.00  0.00    +0.178 C 
ATOM     10  C   UNL     1      10.534   5.856   3.203  0.00  0.00    +0.178 C 
ATOM     11  O   UNL     1       9.788   6.896   3.846  0.00  0.00    -0.346 OA
BRANCH   7  18
ATOM     12  N   UNL     1      13.701  11.513   3.564  0.00  0.00    -0.343 N 
ATOM     13  H   UNL     1      14.642  11.211   3.348  0.00  0.00    +0.144 HD
ATOM     14  H   UNL     1      13.623  11.977   4.466  0.00  0.00    +0.144 HD
ATOM     15  C   UNL     1      12.685  10.630   3.345  0.00  0.00    +0.123 A 
ATOM     16  C   UNL     1      12.824   9.612   2.292  0.00  0.00    +0.061 A 
ATOM     17  C   UNL     1      11.800   8.774   2.151  0.00  0.00    +0.096 A 
ATOM     18  N   UNL     1      10.672   8.877   2.938  0.00  0.00    -0.270 N 
ATOM     19  C   UNL     1      10.581   9.865   3.931  0.00  0.00    +0.352 A 
ATOM     20  O   UNL     1       9.579   9.969   4.640  0.00  0.00    -0.244 OA
ATOM     21  N   UNL     1      11.637  10.730   4.100  0.00  0.00    -0.178 NA
ENDBRANCH   7  18
BRANCH   9  22
ATOM     22  O   UNL     1      11.059   5.540   0.850  0.00  0.00    -0.386 OA
ATOM     23  H   UNL     1      11.189   4.576   0.796  0.00  0.00    +0.210 HD
ENDBRANCH   9  22
BRANCH   8  24
ATOM     24  O   UNL     1       7.966   6.984   1.229  0.00  0.00    -0.385 OA
ATOM     25  H   UNL     1       7.527   6.637   2.026  0.00  0.00    +0.210 HD
ENDBRANCH   8  24
ENDBRANCH   6  10
ENDBRANCH   5   6
ENDBRANCH   1   5
BRANCH   1  26
ATOM     26  O   UNL     1       9.397   2.677   6.185  0.00  0.00    -0.242 OA
BRANCH  26  27
ATOM     27  C   UNL     1       8.674   2.460   7.386  0.00  0.00    +0.282 C 
ATOM     28  O   UNL     1       8.523   1.084   7.722  0.00  0.00    -0.331 OA
ATOM     29  C   UNL     1       7.260   0.423   7.633  0.00  0.00    +0.184 C 
ATOM     30  C   UNL     1       6.036   1.290   7.991  0.00  0.00    +0.174 C 
ATOM     31  C   UNL     1       6.100   2.740   7.512  0.00  0.00    +0.151 C 
ATOM     32  C   UNL     1       7.478   3.377   7.655  0.00  0.00    +0.111 C 
BRANCH  27  33
ATOM     33  C   UNL     1       9.809   2.827   8.400  0.00  0.00    +0.366 C 
ATOM     34  O   UNL     1      10.025   3.937   8.868  0.00  0.00    -0.245 OA
BRANCH  33  35
ATOM     35  O   UNL     1      10.597   1.749   8.709  0.00  0.00    -0.477 OA
ATOM     36  H   UNL     1      10.187   0.959   8.283  0.00  0.00    +0.295 HD
ENDBRANCH  33  35
ENDBRANCH  27  33
BRANCH  30  37
ATOM     37  O   UNL     1       5.946   1.323   9.428  0.00  0.00    -0.387 OA
ATOM     38  H   UNL     1       5.106   1.765   9.658  0.00  0.00    +0.210 HD
ENDBRANCH  30  37
BRANCH  31  39
ATOM     39  O   UNL     1       5.499   2.890   6.235  0.00  0.00    -0.389 OA
ATOM     40  H   UNL     1       6.163   2.797   5.520  0.00  0.00    +0.210 HD
ENDBRANCH  31  39
BRANCH  29  41
ATOM     41  C   UNL     1       7.199  -0.369   6.316  0.00  0.00    +0.171 C 
BRANCH  41  42
ATOM     42  O   UNL     1       8.437  -1.100   6.151  0.00  0.00    -0.387 OA
ATOM     43  H   UNL     1       8.237  -1.812   5.509  0.00  0.00    +0.210 HD
ENDBRANCH  41  42
BRANCH  41  44
ATOM     44  C   UNL     1       6.050  -1.376   6.241  0.00  0.00    +0.189 C 
BRANCH  44  45
ATOM     45  O   UNL     1       6.147  -2.037   4.975  0.00  0.00    -0.392 OA
ATOM     46  H   UNL     1       5.305  -1.888   4.507  0.00  0.00    +0.210 HD
ENDBRANCH  44  45
ENDBRANCH  41  44
ENDBRANCH  29  41
ENDBRANCH  26  27
ENDBRANCH   1  26
TORSDOF 17
