REMARK  Name = 
REMARK  19 active torsions:
REMARK  status: ('A' for Active; 'I' for Inactive)
REMARK    1  A    between atoms: C_1  and  C_2
REMARK    2  A    between atoms: C_2  and  C_3
REMARK    3  A    between atoms: C_2  and  C_4
REMARK    4  A    between atoms: C_6  and  C_7
REMARK    5  A    between atoms: C_7  and  C_8
REMARK    6  A    between atoms: C_7  and  C_9
REMARK    7  A    between atoms: C_10  and  S_16
REMARK    8  A    between atoms: C_11  and  C_13
REMARK    9  A    between atoms: C_13  and  C_14
REMARK   10  A    between atoms: C_13  and  C_15
REMARK   11  A    between atoms: S_16  and  N_19
REMARK   12  A    between atoms: N_19  and  C_20
REMARK   13  A    between atoms: C_20  and  C_22
REMARK   14  A    between atoms: C_20  and  C_32
REMARK   15  A    between atoms: C_22  and  C_23
REMARK   16  A    between atoms: C_27  and  C_29
REMARK   17  A    between atoms: C_40  and  C_42
REMARK   18  A    between atoms: C_42  and  C_43
REMARK   19  A    between atoms: C_43  and  N_44
REMARK                            x       y       z     vdW  Elec       q    Type
REMARK                         _______ _______ _______ _____ _____    ______ ____
ROOT
ATOM      1  C   UNL     1       4.005  -8.815   1.624  0.00  0.00    +0.166 C 
ENDROOT
BRANCH   1   2
ATOM      2  C   UNL     1       2.971  -9.743   0.932  0.00  0.00    +0.235 C 
ATOM      3  N   UNL     1       2.154  -9.239  -0.089  0.00  0.00    -0.297 N 
ATOM      4  C   UNL     1       2.339  -7.960  -0.805  0.00  0.00    +0.127 C 
ATOM      5  C   UNL     1       1.000  -7.332  -1.261  0.00  0.00    +0.126 C 
ATOM      6  N   UNL     1       0.174  -8.307  -1.982  0.00  0.00    -0.298 N 
ATOM      7  C   UNL     1      -0.273  -8.203  -3.293  0.00  0.00    +0.217 C 
ATOM      8  O   UNL     1      -0.900  -9.113  -3.839  0.00  0.00    -0.276 OA
ATOM      9  C   UNL     1      -0.072  -9.534  -1.224  0.00  0.00    +0.126 C 
ATOM     10  C   UNL     1       1.256 -10.181  -0.786  0.00  0.00    +0.127 C 
ATOM     11  O   UNL     1       2.857 -10.933   1.268  0.00  0.00    -0.274 OA
BRANCH   7  12
ATOM     12  C   UNL     1       0.024  -6.904  -4.024  0.00  0.00    +0.111 C 
BRANCH  12  13
ATOM     13  C   UNL     1      -0.490  -6.928  -5.463  0.00  0.00    +0.087 C 
BRANCH  13  14
ATOM     14  N   UNL     1      -0.188  -5.665  -6.141  0.00  0.00    -0.330 NA
ATOM     15  H   UNL     1      -0.499  -5.728  -7.111  0.00  0.00    +0.118 HD
ATOM     16  H   UNL     1      -0.737  -4.914  -5.724  0.00  0.00    +0.118 HD
ENDBRANCH  13  14
ENDBRANCH  12  13
ENDBRANCH   7  12
ENDBRANCH   1   2
BRANCH   1  17
ATOM     17  N   UNL     1       5.199  -8.743   0.704  0.00  0.00    -0.178 NA
ATOM     18  H   UNL     1       5.267  -9.473  -0.008  0.00  0.00    +0.149 HD
BRANCH  17  19
ATOM     19  S   UNL     1       6.080  -7.373   0.269  0.00  0.00    +0.060 S 
ATOM     20  O   UNL     1       6.904  -7.824  -0.830  0.00  0.00    -0.153 OA
ATOM     21  O   UNL     1       5.135  -6.309   0.012  0.00  0.00    -0.153 OA
BRANCH  19  25
ATOM     22  C   UNL     1       8.617  -6.307   4.088  0.00  0.00    -0.044 A 
ATOM     23  C   UNL     1       7.404  -5.691   3.800  0.00  0.00    +0.009 A 
ATOM     24  C   UNL     1       6.610  -6.066   2.694  0.00  0.00    -0.018 A 
ATOM     25  C   UNL     1       7.152  -6.925   1.691  0.00  0.00    +0.112 A 
ATOM     26  C   UNL     1       8.505  -7.365   1.839  0.00  0.00    -0.018 A 
ATOM     27  C   UNL     1       9.170  -7.097   3.079  0.00  0.00    +0.009 A 
BRANCH  22  29
ATOM     28  C   UNL     1      10.397  -7.042   5.841  0.00  0.00    +0.012 C 
ATOM     29  C   UNL     1       9.148  -6.215   5.520  0.00  0.00    +0.013 C 
ATOM     30  C   UNL     1       9.349  -4.778   6.014  0.00  0.00    +0.012 C 
ENDBRANCH  22  29
BRANCH  24  31
ATOM     31  C   UNL     1       5.123  -5.775   2.826  0.00  0.00    +0.015 C 
ATOM     32  C   UNL     1       4.525  -4.529   2.197  0.00  0.00    +0.012 C 
ATOM     33  C   UNL     1       4.644  -5.967   4.261  0.00  0.00    +0.012 C 
ENDBRANCH  24  31
BRANCH  26  34
ATOM     34  C   UNL     1       9.350  -8.035   0.751  0.00  0.00    +0.015 C 
ATOM     35  C   UNL     1      10.313  -9.132   1.239  0.00  0.00    +0.012 C 
ATOM     36  C   UNL     1      10.152  -6.956   0.006  0.00  0.00    +0.012 C 
ENDBRANCH  26  34
ENDBRANCH  19  25
ENDBRANCH  17  19
ENDBRANCH   1  17
BRANCH   1  37
ATOM     37  C   UNL     1       4.507  -9.394   3.012  0.00  0.00    +0.065 C 
BRANCH  37  38
ATOM     38  C   UNL     1       3.803  -9.092   4.348  0.00  0.00    -0.045 A 
ATOM     39  C   UNL     1       4.597  -8.927   5.522  0.00  0.00    +0.019 A 
ATOM     40  C   UNL     1       4.074  -8.354   6.706  0.00  0.00    +0.065 A 
ATOM     41  C   UNL     1       2.707  -8.085   6.761  0.00  0.00    +0.016 A 
ATOM     42  C   UNL     1       1.885  -8.410   5.678  0.00  0.00    +0.001 A 
ATOM     43  C   UNL     1       2.425  -8.904   4.476  0.00  0.00    +0.004 A 
BRANCH  40  44
ATOM     44  C   UNL     1       4.947  -7.872   7.836  0.00  0.00    +0.308 C 
ATOM     45  N   UNL     1       6.236  -7.753   7.754  0.00  0.00    -0.099 NA
ATOM     46  H   UNL     1       6.586  -8.003   6.831  0.00  0.00    +0.363 HD
ATOM     47  N   UNL     1       4.419  -7.468   9.030  0.00  0.00    -0.247 N 
ATOM     48  H   UNL     1       5.160  -7.297   9.706  0.00  0.00    +0.288 HD
ATOM     49  H   UNL     1       3.674  -8.034   9.416  0.00  0.00    +0.288 HD
ENDBRANCH  40  44
ENDBRANCH  37  38
ENDBRANCH   1  37
TORSDOF 13
