REMARK  Name = 
REMARK  3 active torsions:
REMARK  status: ('A' for Active; 'I' for Inactive)
REMARK    1  A    between atoms: C_1  and  C_2
REMARK    2  A    between atoms: C_2  and  O_4
REMARK    3  A    between atoms: C_2  and  C_5
REMARK                            x       y       z     vdW  Elec       q    Type
REMARK                         _______ _______ _______ _____ _____    ______ ____
ROOT
ATOM      1  C   UNL     1       2.976  -1.152  -0.889  0.00  0.00    -0.019 A 
ATOM      2  C   UNL     1       2.840  -2.459  -0.394  0.00  0.00    +0.006 A 
ATOM      3  C   UNL     1       3.149  -3.560  -1.194  0.00  0.00    +0.000 A 
ATOM      4  C   UNL     1       3.597  -3.370  -2.499  0.00  0.00    +0.000 A 
ATOM      5  C   UNL     1       3.743  -2.080  -3.003  0.00  0.00    +0.000 A 
ATOM      6  C   UNL     1       3.434  -0.977  -2.204  0.00  0.00    +0.006 A 
ENDROOT
BRANCH   1   8
ATOM      7  C   UNL     1       1.094   0.354  -0.227  0.00  0.00    +0.043 C 
ATOM      8  C   UNL     1       2.579   0.050  -0.061  0.00  0.00    +0.141 C 
BRANCH   8   9
ATOM      9  O   UNL     1       2.858  -0.180   1.318  0.00  0.00    -0.387 OA
ATOM     10  H   UNL     1       2.619   0.630   1.797  0.00  0.00    +0.210 HD
ENDBRANCH   8   9
ENDBRANCH   1   8
TORSDOF 2
