REMARK  Name = 
REMARK  12 active torsions:
REMARK  status: ('A' for Active; 'I' for Inactive)
REMARK    1  A    between atoms: O_1  and  C_2
REMARK    2  A    between atoms: C_2  and  CA_3
REMARK    3  A    between atoms: CA_3  and  CB_4
REMARK    4  A    between atoms: CA_3  and  N_6
REMARK    5  A    between atoms: CB_4  and  OG_5
REMARK    6  A    between atoms: N_6  and  C_7
REMARK    7  A    between atoms: C_10  and  O_11
REMARK    8  A    between atoms: C_10  and  C_12
REMARK    9  A    between atoms: C_12  and  O_13
REMARK   10  A    between atoms: C_14  and  O_16
REMARK   11  A    between atoms: C_17  and  O_19
REMARK   12  A    between atoms: C_20  and  O_22
REMARK                            x       y       z     vdW  Elec       q    Type
REMARK                         _______ _______ _______ _____ _____    ______ ____
ROOT
ATOM      1  C   UNK A   0       4.801   2.140  -1.561  0.00  0.00    +0.088 C 
ATOM      2  C   UNK A   0       5.549   3.096  -0.603  0.00  0.00    +0.162 C 
ATOM      3  C   UNK A   0       4.566   3.923   0.245  0.00  0.00    +0.176 C 
ATOM      4  C   UNK A   0       3.609   4.750  -0.625  0.00  0.00    +0.179 C 
ATOM      5  C   UNK A   0       2.895   3.922  -1.729  0.00  0.00    +0.119 C 
ATOM      6  C   UNK A   0       3.852   2.952  -2.456  0.00  0.00    +0.061 C 
ENDROOT
BRANCH   1   7
ATOM      7  N   SER A   1       4.192   1.074  -0.731  0.00  0.00    -0.304 NA
ATOM      8  H   SER A   1       4.931   0.747  -0.099  0.00  0.00    +0.123 HD
BRANCH   7   9
ATOM      9  CA  SER A   1       3.656  -0.103  -1.455  0.00  0.00    +0.105 C 
BRANCH   9  10
ATOM     10  C   SER A   1       4.661  -0.803  -2.393  0.00  0.00    +0.176 C 
BRANCH  10  11
ATOM     11  O   SER A   1       5.822  -1.235  -1.689  0.00  0.00    -0.393 OA
ATOM     12  H   SER A   1       6.306  -0.440  -1.401  0.00  0.00    +0.209 HD
ENDBRANCH  10  11
ENDBRANCH   9  10
BRANCH   9  13
ATOM     13  CB  SER A   1       3.173  -1.139  -0.404  0.00  0.00    +0.176 C 
BRANCH  13  14
ATOM     14  OG  SER A   1       2.214  -0.563   0.481  0.00  0.00    -0.393 OA
ATOM     15  H   SER A   1       2.639   0.244   0.830  0.00  0.00    +0.209 HD
ENDBRANCH  13  14
ENDBRANCH   9  13
ENDBRANCH   7   9
ENDBRANCH   1   7
BRANCH   2  16
ATOM     16  O   UNK A   0       6.410   2.278   0.215  0.00  0.00    -0.388 OA
ATOM     17  H   UNK A   0       6.123   2.403   1.138  0.00  0.00    +0.210 HD
ENDBRANCH   2  16
BRANCH   3  18
ATOM     18  O   UNK A   0       5.309   4.811   1.091  0.00  0.00    -0.387 OA
ATOM     19  H   UNK A   0       4.661   5.468   1.425  0.00  0.00    +0.210 HD
ENDBRANCH   3  18
BRANCH   4  20
ATOM     20  O   UNK A   0       2.616   5.316   0.250  0.00  0.00    -0.386 OA
ATOM     21  H   UNK A   0       2.022   4.571   0.470  0.00  0.00    +0.210 HD
ENDBRANCH   4  20
BRANCH   5  22
ATOM     22  O   UNK A   0       1.847   3.188  -1.074  0.00  0.00    -0.384 OA
ATOM     23  H   UNK A   0       1.397   2.637  -1.744  0.00  0.00    +0.210 HD
ENDBRANCH   5  22
BRANCH   5  24
ATOM     24  C   UNK A   0       2.245   4.866  -2.777  0.00  0.00    +0.193 C 
BRANCH  24  25
ATOM     25  O   UNK A   0       1.241   5.717  -2.236  0.00  0.00    -0.392 OA
ATOM     26  H   UNK A   0       1.141   5.500  -1.289  0.00  0.00    +0.210 HD
ENDBRANCH  24  25
ENDBRANCH   5  24
TORSDOF 12
