REMARK  Name = 
REMARK  25 active torsions:
REMARK  status: ('A' for Active; 'I' for Inactive)
REMARK    1  A    between atoms: C_1  and  C_2
REMARK    2  A    between atoms: C_2  and  O_3
REMARK    3  A    between atoms: O_3  and  C_4
REMARK    4  A    between atoms: C_4  and  C_6
REMARK    5  A    between atoms: C_7  and  C_8
REMARK    6  A    between atoms: C_8  and  C_10
REMARK    7  A    between atoms: C_8  and  N_18
REMARK    8  A    between atoms: C_10  and  C_11
REMARK    9  A    between atoms: C_19  and  C_21
REMARK   10  A    between atoms: C_21  and  C_23
REMARK   11  A    between atoms: C_21  and  N_27
REMARK   12  A    between atoms: C_23  and  C_24
REMARK   13  A    between atoms: C_24  and  C_25
REMARK   14  A    between atoms: C_24  and  C_26
REMARK   15  A    between atoms: C_28  and  C_30
REMARK   16  A    between atoms: C_30  and  C_32
REMARK   17  A    between atoms: C_30  and  N_35
REMARK   18  A    between atoms: C_32  and  C_33
REMARK   19  A    between atoms: C_32  and  C_34
REMARK   20  A    between atoms: C_36  and  C_38
REMARK   21  A    between atoms: C_38  and  C_40
REMARK   22  A    between atoms: C_38  and  N_43
REMARK   23  A    between atoms: C_40  and  C_41
REMARK   24  A    between atoms: C_40  and  C_42
REMARK   25  A    between atoms: C_44  and  C_46
REMARK                            x       y       z     vdW  Elec       q    Type
REMARK                         _______ _______ _______ _____ _____    ______ ____
ROOT
ATOM      1  C   UNL     1       5.330  -2.397  -6.622  0.00  0.00    +0.159 C 
ENDROOT
BRANCH   1   2
ATOM      2  N   UNL     1       3.867  -2.244  -6.514  0.00  0.00    -0.302 N 
ATOM      3  H   UNL     1       3.422  -2.786  -5.782  0.00  0.00    +0.150 HD
ATOM      4  C   UNL     1       3.094  -1.833  -7.582  0.00  0.00    +0.234 C 
ATOM      5  O   UNL     1       3.599  -1.434  -8.631  0.00  0.00    -0.274 OA
BRANCH   4   6
ATOM      6  C   UNL     1       1.562  -1.717  -7.337  0.00  0.00    +0.161 C 
BRANCH   6   7
ATOM      7  N   UNL     1       1.084  -2.782  -6.448  0.00  0.00    -0.302 N 
ATOM      8  H   UNL     1       1.155  -2.662  -5.450  0.00  0.00    +0.150 HD
ATOM      9  C   UNL     1       0.785  -4.040  -6.946  0.00  0.00    +0.234 C 
ATOM     10  O   UNL     1       0.718  -4.270  -8.152  0.00  0.00    -0.274 OA
BRANCH   9  11
ATOM     11  C   UNL     1       0.396  -5.099  -5.893  0.00  0.00    +0.162 C 
BRANCH  11  12
ATOM     12  N   UNL     1       1.169  -4.903  -4.667  0.00  0.00    -0.300 N 
ATOM     13  H   UNL     1       0.881  -4.205  -3.999  0.00  0.00    +0.150 HD
ATOM     14  C   UNL     1       2.216  -5.735  -4.333  0.00  0.00    +0.248 C 
ATOM     15  O   UNL     1       2.535  -6.723  -4.986  0.00  0.00    -0.270 OA
BRANCH  14  16
ATOM     16  C   UNL     1       2.900  -5.360  -3.110  0.00  0.00    +0.074 A 
ATOM     17  C   UNL     1       3.037  -4.090  -2.474  0.00  0.00    +0.054 A 
ATOM     18  C   UNL     1       3.852  -4.284  -1.383  0.00  0.00    +0.195 A 
ATOM     19  O   UNL     1       4.196  -5.591  -1.275  0.00  0.00    -0.470 OA
ATOM     20  C   UNL     1       3.629  -6.233  -2.328  0.00  0.00    +0.207 A 
ENDBRANCH  14  16
ENDBRANCH  11  12
BRANCH  11  21
ATOM     21  C   UNL     1      -1.130  -5.159  -5.639  0.00  0.00    +0.012 C 
ATOM     22  C   UNL     1      -1.722  -3.882  -5.040  0.00  0.00    +0.009 C 
ATOM     23  C   UNL     1      -1.483  -6.363  -4.756  0.00  0.00    +0.009 C 
ENDBRANCH  11  21
ENDBRANCH   9  11
ENDBRANCH   6   7
BRANCH   6  24
ATOM     24  C   UNL     1       1.105  -0.312  -6.856  0.00  0.00    +0.012 C 
ATOM     25  C   UNL     1       1.571   0.802  -7.803  0.00  0.00    +0.009 C 
ATOM     26  C   UNL     1       1.497   0.035  -5.418  0.00  0.00    +0.009 C 
ENDBRANCH   6  24
ENDBRANCH   4   6
ENDBRANCH   1   2
BRANCH   1  29
ATOM     27  N   UNL     1       7.236  -3.315  -5.294  0.00  0.00    -0.307 N 
ATOM     28  H   UNL     1       7.806  -3.177  -6.121  0.00  0.00    +0.149 HD
ATOM     29  C   UNL     1       5.870  -3.126  -5.369  0.00  0.00    +0.234 C 
ATOM     30  O   UNL     1       5.103  -3.492  -4.479  0.00  0.00    -0.274 OA
BRANCH  27  31
ATOM     31  C   UNL     1       7.878  -3.847  -4.096  0.00  0.00    +0.097 C 
BRANCH  31  33
ATOM     32  C   UNL     1      10.241  -3.626  -3.191  0.00  0.00    +0.089 C 
ATOM     33  C   UNL     1       9.219  -3.169  -3.940  0.00  0.00    +0.002 C 
BRANCH  32  34
ATOM     34  C   UNL     1      11.586  -3.034  -3.330  0.00  0.00    +0.332 C 
ATOM     35  O   UNL     1      11.829  -1.913  -3.740  0.00  0.00    -0.246 OA
BRANCH  34  36
ATOM     36  O   UNL     1      12.478  -4.013  -3.027  0.00  0.00    -0.462 OA
BRANCH  36  38
ATOM     37  C   UNL     1      13.936  -4.346  -4.908  0.00  0.00    +0.048 C 
ATOM     38  C   UNL     1      13.815  -3.795  -3.497  0.00  0.00    +0.229 C 
ENDBRANCH  36  38
ENDBRANCH  34  36
ENDBRANCH  32  34
ENDBRANCH  31  33
BRANCH  31  39
ATOM     39  C   UNL     1       7.888  -5.393  -4.103  0.00  0.00    +0.039 C 
BRANCH  39  40
ATOM     40  C   UNL     1       8.576  -6.083  -5.300  0.00  0.00    +0.078 C 
ATOM     41  C   UNL     1      10.077  -5.885  -5.357  0.00  0.00    +0.216 C 
ATOM     42  O   UNL     1      10.667  -4.979  -5.918  0.00  0.00    -0.276 OA
ATOM     43  N   UNL     1      10.675  -6.898  -4.634  0.00  0.00    -0.315 N 
ATOM     44  H   UNL     1      11.683  -6.951  -4.541  0.00  0.00    +0.149 HD
ATOM     45  C   UNL     1       9.746  -7.926  -4.273  0.00  0.00    +0.105 C 
ATOM     46  C   UNL     1       8.537  -7.615  -5.143  0.00  0.00    +0.031 C 
ENDBRANCH  39  40
ENDBRANCH  31  39
ENDBRANCH  27  31
ENDBRANCH   1  29
BRANCH   1  47
ATOM     47  C   UNL     1       6.049  -1.056  -6.872  0.00  0.00    +0.034 C 
BRANCH  47  48
ATOM     48  C   UNL     1       5.761   0.081  -5.866  0.00  0.00    -0.015 C 
ATOM     49  C   UNL     1       6.326   1.396  -6.413  0.00  0.00    +0.007 C 
ATOM     50  C   UNL     1       6.338  -0.169  -4.473  0.00  0.00    +0.007 C 
ENDBRANCH  47  48
ENDBRANCH   1  47
TORSDOF 18
