REMARK  Name = 
REMARK  35 active torsions:
REMARK  status: ('A' for Active; 'I' for Inactive)
REMARK    1  A    between atoms: C_1  and  C_2
REMARK    2  A    between atoms: C_5  and  O_7
REMARK    3  A    between atoms: O_7  and  C_8
REMARK    4  A    between atoms: C_10  and  C_12
REMARK    5  A    between atoms: C_12  and  O_13
REMARK    6  A    between atoms: C_15  and  O_17
REMARK    7  A    between atoms: O_17  and  C_18
REMARK    8  A    between atoms: C_20  and  C_22
REMARK    9  A    between atoms: C_22  and  O_23
REMARK   10  A    between atoms: C_25  and  O_27
REMARK   11  A    between atoms: C_28  and  O_30
REMARK   12  A    between atoms: C_31  and  O_33
REMARK   13  A    between atoms: C_34  and  O_36
REMARK   14  A    between atoms: C_37  and  O_39
REMARK   15  A    between atoms: C_40  and  O_42
REMARK   16  A    between atoms: C_43  and  O_45
REMARK   17  A    between atoms: C_46  and  N_48
REMARK   18  A    between atoms: N_48  and  C_49
REMARK   19  A    between atoms: C_52  and  C_53
REMARK   20  A    between atoms: C_53  and  O_54
REMARK   21  A    between atoms: C_55  and  O_57
REMARK   22  A    between atoms: O_57  and  C_58
REMARK   23  A    between atoms: C_61  and  C_63
REMARK   24  A    between atoms: C_63  and  O_64
REMARK   25  A    between atoms: C_65  and  O_67
REMARK   26  A    between atoms: O_67  and  C_68
REMARK   27  A    between atoms: C_71  and  C_73
REMARK   28  A    between atoms: C_73  and  O_74
REMARK   29  A    between atoms: C_75  and  O_77
REMARK   30  A    between atoms: C_78  and  O_80
REMARK   31  A    between atoms: C_81  and  O_83
REMARK   32  A    between atoms: C_84  and  O_86
REMARK   33  A    between atoms: C_87  and  O_89
REMARK   34  A    between atoms: C_90  and  O_92
REMARK   35  A    between atoms: C_93  and  O_95
REMARK                            x       y       z     vdW  Elec       q    Type
REMARK                         _______ _______ _______ _____ _____    ______ ____
ROOT
ATOM      1  N   UNL     1       2.421  -1.977 -14.411  0.00  0.00    -0.300 NA
ATOM      2  H   UNL     1       3.013  -1.423 -15.044  0.00  0.00    +0.123 HD
ENDROOT
BRANCH   1   5
ATOM      3  C   UNL     1       4.877  -4.825 -13.565  0.00  0.00    +0.039 C 
ATOM      4  C   UNL     1       4.358  -3.431 -13.945  0.00  0.00    +0.138 C 
ATOM      5  C   UNL     1       2.911  -3.395 -14.516  0.00  0.00    +0.114 C 
ATOM      6  C   UNL     1       2.919  -3.973 -15.966  0.00  0.00    +0.167 C 
ATOM      7  C   UNL     1       3.951  -3.250 -16.852  0.00  0.00    +0.200 C 
ATOM      8  C   UNL     1       5.317  -3.281 -16.151  0.00  0.00    +0.282 C 
ATOM      9  O   UNL     1       5.265  -2.753 -14.827  0.00  0.00    -0.344 OA
BRANCH   7  10
ATOM     10  O   UNL     1       3.532  -1.904 -17.106  0.00  0.00    -0.384 OA
ATOM     11  H   UNL     1       4.340  -1.370 -17.232  0.00  0.00    +0.210 HD
ENDBRANCH   7  10
BRANCH   6  12
ATOM     12  O   UNL     1       3.098  -5.397 -15.925  0.00  0.00    -0.387 OA
ATOM     13  H   UNL     1       3.990  -5.647 -16.221  0.00  0.00    +0.210 HD
ENDBRANCH   6  12
BRANCH   8  14
ATOM     14  O   UNL     1       6.281  -2.549 -16.923  0.00  0.00    -0.340 OA
BRANCH  14  15
ATOM     15  C   UNL     1       7.581  -2.541 -16.289  0.00  0.00    +0.183 C 
ATOM     16  C   UNL     1       8.155  -3.974 -16.121  0.00  0.00    +0.179 C 
ATOM     17  C   UNL     1       9.609  -3.962 -15.693  0.00  0.00    +0.201 C 
ATOM     18  C   UNL     1      10.416  -3.041 -16.597  0.00  0.00    +0.282 C 
ATOM     19  O   UNL     1       9.874  -1.722 -16.605  0.00  0.00    -0.341 OA
ATOM     20  C   UNL     1       8.539  -1.673 -17.130  0.00  0.00    +0.178 C 
BRANCH  17  21
ATOM     21  O   UNL     1      10.120  -5.301 -15.673  0.00  0.00    -0.384 OA
ATOM     22  H   UNL     1      11.076  -5.259 -15.499  0.00  0.00    +0.210 HD
ENDBRANCH  17  21
BRANCH  16  23
ATOM     23  O   UNL     1       7.449  -4.708 -15.106  0.00  0.00    -0.386 OA
ATOM     24  H   UNL     1       7.565  -4.238 -14.261  0.00  0.00    +0.210 HD
ENDBRANCH  16  23
BRANCH  18  25
ATOM     25  O   UNL     1      10.536  -3.563 -17.918  0.00  0.00    -0.340 OA
BRANCH  25  26
ATOM     26  C   UNL     1      11.397  -2.785 -18.765  0.00  0.00    +0.183 C 
ATOM     27  C   UNL     1      12.842  -2.694 -18.218  0.00  0.00    +0.179 C 
ATOM     28  C   UNL     1      13.772  -2.039 -19.233  0.00  0.00    +0.201 C 
ATOM     29  C   UNL     1      13.638  -2.718 -20.603  0.00  0.00    +0.279 C 
ATOM     30  O   UNL     1      12.291  -2.691 -21.057  0.00  0.00    -0.341 OA
ATOM     31  C   UNL     1      11.401  -3.409 -20.176  0.00  0.00    +0.178 C 
BRANCH  28  32
ATOM     32  O   UNL     1      15.110  -2.082 -18.722  0.00  0.00    -0.384 OA
ATOM     33  H   UNL     1      15.700  -1.668 -19.371  0.00  0.00    +0.210 HD
ENDBRANCH  28  32
BRANCH  29  34
ATOM     34  O   UNL     1      14.106  -4.054 -20.555  0.00  0.00    -0.365 OA
ATOM     35  H   UNL     1      14.341  -4.292 -21.466  0.00  0.00    +0.213 HD
ENDBRANCH  29  34
BRANCH  27  36
ATOM     36  O   UNL     1      12.913  -1.909 -17.007  0.00  0.00    -0.386 OA
ATOM     37  H   UNL     1      12.458  -1.062 -17.151  0.00  0.00    +0.210 HD
ENDBRANCH  27  36
BRANCH  31  38
ATOM     38  C   UNL     1      10.007  -3.383 -20.824  0.00  0.00    +0.190 C 
BRANCH  38  39
ATOM     39  O   UNL     1      10.063  -3.948 -22.137  0.00  0.00    -0.392 OA
ATOM     40  H   UNL     1      10.808  -3.506 -22.587  0.00  0.00    +0.210 HD
ENDBRANCH  38  39
ENDBRANCH  31  38
ENDBRANCH  25  26
ENDBRANCH  18  25
BRANCH  20  41
ATOM     41  C   UNL     1       8.129  -0.187 -17.177  0.00  0.00    +0.190 C 
BRANCH  41  42
ATOM     42  O   UNL     1       6.852   0.058 -17.748  0.00  0.00    -0.392 OA
ATOM     43  H   UNL     1       6.603  -0.710 -18.292  0.00  0.00    +0.210 HD
ENDBRANCH  41  42
ENDBRANCH  20  41
ENDBRANCH  14  15
ENDBRANCH   8  14
ENDBRANCH   1   5
BRANCH   1  44
ATOM     44  C   UNL     1       1.034  -1.793 -14.884  0.00  0.00    +0.109 C 
ATOM     45  C   UNL     1       0.648  -0.324 -15.199  0.00  0.00    +0.166 C 
ATOM     46  C   UNL     1       0.172   0.504 -14.001  0.00  0.00    +0.178 C 
ATOM     47  C   UNL     1      -0.687  -0.248 -12.946  0.00  0.00    +0.180 C 
ATOM     48  C   UNL     1      -0.734  -1.761 -13.085  0.00  0.00    -0.016 C 
ATOM     49  C   UNL     1       0.067  -2.425 -13.933  0.00  0.00    -0.002 C 
BRANCH  45  50
ATOM     50  O   UNL     1       1.747   0.356 -15.848  0.00  0.00    -0.387 OA
ATOM     51  H   UNL     1       2.323   0.723 -15.156  0.00  0.00    +0.210 HD
ENDBRANCH  45  50
BRANCH  46  52
ATOM     52  O   UNL     1      -0.603   1.611 -14.535  0.00  0.00    -0.386 OA
ATOM     53  H   UNL     1      -0.946   2.147 -13.799  0.00  0.00    +0.210 HD
ENDBRANCH  46  52
BRANCH  47  54
ATOM     54  O   UNL     1      -0.256   0.089 -11.592  0.00  0.00    -0.338 OA
BRANCH  54  55
ATOM     55  C   UNL     1      -0.277   1.498 -11.323  0.00  0.00    +0.282 C 
ATOM     56  C   UNL     1       0.328   1.862  -9.953  0.00  0.00    +0.201 C 
ATOM     57  C   UNL     1      -0.629   1.666  -8.781  0.00  0.00    +0.179 C 
ATOM     58  C   UNL     1      -2.059   2.136  -9.107  0.00  0.00    +0.183 C 
ATOM     59  C   UNL     1      -2.487   1.572 -10.473  0.00  0.00    +0.178 C 
ATOM     60  O   UNL     1      -1.584   2.031 -11.497  0.00  0.00    -0.341 OA
BRANCH  57  61
ATOM     61  O   UNL     1      -0.120   2.460  -7.690  0.00  0.00    -0.386 OA
ATOM     62  H   UNL     1       0.411   1.876  -7.119  0.00  0.00    +0.210 HD
ENDBRANCH  57  61
BRANCH  56  63
ATOM     63  O   UNL     1       1.553   1.159  -9.704  0.00  0.00    -0.384 OA
ATOM     64  H   UNL     1       1.379   0.211  -9.866  0.00  0.00    +0.210 HD
ENDBRANCH  56  63
BRANCH  59  65
ATOM     65  C   UNL     1      -3.888   2.029 -10.891  0.00  0.00    +0.190 C 
BRANCH  65  66
ATOM     66  O   UNL     1      -4.223   1.448 -12.155  0.00  0.00    -0.392 OA
ATOM     67  H   UNL     1      -3.544   1.756 -12.784  0.00  0.00    +0.210 HD
ENDBRANCH  65  66
ENDBRANCH  59  65
BRANCH  58  68
ATOM     68  O   UNL     1      -3.017   1.724  -8.112  0.00  0.00    -0.340 OA
BRANCH  68  69
ATOM     69  C   UNL     1      -2.779   2.275  -6.802  0.00  0.00    +0.282 C 
ATOM     70  C   UNL     1      -3.879   1.788  -5.841  0.00  0.00    +0.201 C 
ATOM     71  C   UNL     1      -5.215   2.442  -6.210  0.00  0.00    +0.179 C 
ATOM     72  C   UNL     1      -5.061   3.970  -6.310  0.00  0.00    +0.177 C 
ATOM     73  C   UNL     1      -3.913   4.321  -7.259  0.00  0.00    +0.178 C 
ATOM     74  O   UNL     1      -2.700   3.698  -6.819  0.00  0.00    -0.341 OA
BRANCH  72  75
ATOM     75  O   UNL     1      -6.305   4.538  -6.730  0.00  0.00    -0.386 OA
ATOM     76  H   UNL     1      -6.407   4.402  -7.689  0.00  0.00    +0.210 HD
ENDBRANCH  72  75
BRANCH  71  77
ATOM     77  O   UNL     1      -6.206   2.135  -5.221  0.00  0.00    -0.386 OA
ATOM     78  H   UNL     1      -6.944   2.758  -5.368  0.00  0.00    +0.210 HD
ENDBRANCH  71  77
BRANCH  70  79
ATOM     79  O   UNL     1      -3.964   0.355  -5.877  0.00  0.00    -0.384 OA
ATOM     80  H   UNL     1      -4.145   0.107  -6.801  0.00  0.00    +0.210 HD
ENDBRANCH  70  79
BRANCH  73  81
ATOM     81  C   UNL     1      -3.663   5.830  -7.346  0.00  0.00    +0.190 C 
BRANCH  81  82
ATOM     82  O   UNL     1      -2.640   6.089  -8.312  0.00  0.00    -0.392 OA
ATOM     83  H   UNL     1      -1.829   5.673  -7.959  0.00  0.00    +0.210 HD
ENDBRANCH  81  82
ENDBRANCH  73  81
ENDBRANCH  68  69
ENDBRANCH  58  68
ENDBRANCH  54  55
ENDBRANCH  47  54
BRANCH  48  84
ATOM     84  C   UNL     1      -1.794  -2.429 -12.247  0.00  0.00    +0.189 C 
BRANCH  84  85
ATOM     85  O   UNL     1      -1.826  -3.834 -12.445  0.00  0.00    -0.391 OA
ATOM     86  H   UNL     1      -2.077  -3.980 -13.357  0.00  0.00    +0.210 HD
ENDBRANCH  84  85
ENDBRANCH  48  84
ENDBRANCH   1  44
TORSDOF 34
