REMARK  Name = 
REMARK  7 active torsions:
REMARK  status: ('A' for Active; 'I' for Inactive)
REMARK    1  A    between atoms: O_1  and  C_2
REMARK    2  A    between atoms: C_2  and  C_3
REMARK    3  A    between atoms: C_6  and  C_21
REMARK    4  A    between atoms: C_11  and  C_13
REMARK    5  A    between atoms: C_13  and  P_14
REMARK    6  A    between atoms: P_14  and  O_15
REMARK    7  A    between atoms: P_14  and  O_16
REMARK                            x       y       z     vdW  Elec       q    Type
REMARK                         _______ _______ _______ _____ _____    ______ ____
ROOT
ATOM      1  C   UNL     1       2.918  -1.277   1.367  0.00  0.00    +0.176 C 
ATOM      2  C   UNL     1       3.278  -0.270   2.455  0.00  0.00    +0.184 C 
ATOM      3  C   UNL     1       2.160  -0.428   3.441  0.00  0.00    +0.186 C 
ATOM      4  O   UNL     1       1.184   0.484   2.891  0.00  0.00    -0.342 OA
ATOM      5  C   UNL     1       1.956   1.582   2.354  0.00  0.00    +0.263 C 
ATOM      6  C   UNL     1       1.727  -1.887   3.296  0.00  0.00    +0.184 C 
ATOM      7  O   UNL     1       3.214   1.070   1.933  0.00  0.00    -0.342 OA
ATOM      8  O   UNL     1       2.018  -2.253   1.928  0.00  0.00    -0.361 OA
ENDROOT
BRANCH   6   9
ATOM      9  C   UNL     1       2.361  -2.922   4.170  0.00  0.00    +0.025 A 
ATOM     10  C   UNL     1       1.926  -4.283   4.240  0.00  0.00    +0.076 A 
ATOM     11  N   UNL     1       0.901  -4.904   3.657  0.00  0.00    -0.344 N 
ATOM     12  H   UNL     1       0.270  -4.456   2.999  0.00  0.00    +0.167 HD
ATOM     13  C   UNL     1       0.861  -6.264   3.845  0.00  0.00    +0.201 A 
ATOM     14  N   UNL     1       1.648  -7.013   4.543  0.00  0.00    -0.198 NA
ATOM     15  C   UNL     1       2.708  -6.438   5.209  0.00  0.00    +0.297 A 
ATOM     16  O   UNL     1       3.514  -7.059   5.892  0.00  0.00    -0.264 OA
ATOM     17  C   UNL     1       2.802  -5.011   5.007  0.00  0.00    +0.130 A 
ATOM     18  N   UNL     1       3.758  -4.146   5.468  0.00  0.00    -0.355 N 
ATOM     19  H   UNL     1       4.563  -4.433   6.016  0.00  0.00    +0.166 HD
ATOM     20  C   UNL     1       3.506  -2.891   4.957  0.00  0.00    +0.091 A 
ENDBRANCH   6   9
BRANCH   1  21
ATOM     21  C   UNL     1       4.180  -1.944   0.824  0.00  0.00    +0.190 C 
BRANCH  21  22
ATOM     22  O   UNL     1       3.882  -2.815  -0.261  0.00  0.00    -0.392 OA
ATOM     23  H   UNL     1       3.567  -3.649   0.130  0.00  0.00    +0.210 HD
ENDBRANCH  21  22
ENDBRANCH   1  21
BRANCH   5  24
ATOM     24  C   UNL     1       1.133   2.350   1.250  0.00  0.00    +0.188 C 
BRANCH  24  25
ATOM     25  P   UNL     1      -0.319   2.594   2.338  0.00  0.00    +0.333 P 
ATOM     26  O   UNL     1      -1.547   2.801   3.258  0.00  0.00    -0.259 OA
BRANCH  25  27
ATOM     27  O   UNL     1      -1.191   2.322   0.971  0.00  0.00    -0.324 OA
ATOM     28  H   UNL     1      -2.050   1.918   1.203  0.00  0.00    +0.220 HD
ENDBRANCH  25  27
BRANCH  25  29
ATOM     29  O   UNL     1      -0.116   4.221   2.169  0.00  0.00    -0.324 OA
ATOM     30  H   UNL     1       0.592   4.596   1.621  0.00  0.00    +0.220 HD
ENDBRANCH  25  29
ENDBRANCH  24  25
ENDBRANCH   5  24
TORSDOF 7
