REMARK  Name = 
REMARK  2 active torsions:
REMARK  status: ('A' for Active; 'I' for Inactive)
REMARK    1  A    between atoms: C_2  and  C_4
REMARK    2  A    between atoms: C_11  and  N_12
REMARK                            x       y       z     vdW  Elec       q    Type
REMARK                         _______ _______ _______ _____ _____    ______ ____
ROOT
ATOM      1  C   UNL     1       3.139   0.084   1.312  0.00  0.00    +0.065 A 
ATOM      2  C   UNL     1       3.532  -1.129   1.872  0.00  0.00    +0.016 A 
ATOM      3  C   UNL     1       4.282  -1.134   3.045  0.00  0.00    +0.009 A 
ATOM      4  C   UNL     1       4.649   0.066   3.672  0.00  0.00    -0.016 A 
ATOM      5  C   UNL     1       5.457   0.016   4.812  0.00  0.00    +0.008 A 
ATOM      6  C   UNL     1       5.869   1.185   5.436  0.00  0.00    +0.002 A 
ATOM      7  C   UNL     1       5.455   2.416   4.937  0.00  0.00    +0.024 A 
ATOM      8  C   UNL     1       4.623   2.519   3.808  0.00  0.00    +0.041 A 
ATOM      9  C   UNL     1       4.231   1.317   3.140  0.00  0.00    +0.004 A 
ATOM     10  C   UNL     1       3.463   1.290   1.951  0.00  0.00    +0.026 A 
ENDROOT
BRANCH   8  11
ATOM     11  N   UNL     1       4.275   3.781   3.287  0.00  0.00    -0.283 N 
ATOM     12  H   UNL     1       3.404   3.852   2.785  0.00  0.00    +0.155 HD
ATOM     13  C   UNL     1       4.831   5.047   3.463  0.00  0.00    +0.219 A 
ATOM     14  N   UNL     1       4.131   6.077   2.957  0.00  0.00    -0.223 NA
ATOM     15  C   UNL     1       4.670   7.307   3.089  0.00  0.00    +0.116 A 
ATOM     16  C   UNL     1       5.875   7.554   3.695  0.00  0.00    +0.039 A 
ATOM     17  C   UNL     1       6.519   6.443   4.174  0.00  0.00    +0.116 A 
ATOM     18  N   UNL     1       6.022   5.199   4.066  0.00  0.00    -0.223 NA
ENDBRANCH   8  11
BRANCH   1  22
ATOM     19  N   UNL     1       2.585  -0.906  -0.888  0.00  0.00    -0.247 N 
ATOM     20  H   UNL     1       3.475  -1.388  -0.826  0.00  0.00    +0.288 HD
ATOM     21  H   UNL     1       2.362  -0.673  -1.848  0.00  0.00    +0.288 HD
ATOM     22  C   UNL     1       2.406   0.104   0.015  0.00  0.00    +0.308 C 
ATOM     23  N   UNL     1       1.622   1.094  -0.262  0.00  0.00    -0.099 NA
ATOM     24  H   UNL     1       1.177   0.938  -1.168  0.00  0.00    +0.363 HD
ENDBRANCH   1  22
TORSDOF 2
