REMARK  Name = 
REMARK  14 active torsions:
REMARK  status: ('A' for Active; 'I' for Inactive)
REMARK    1  A    between atoms: C_1  and  O_2
REMARK    2  A    between atoms: O_2  and  C_3
REMARK    3  A    between atoms: C_3  and  N_4
REMARK    4  A    between atoms: C_5  and  C_7
REMARK    5  A    between atoms: C_7  and  C_9
REMARK    6  A    between atoms: C_7  and  C_12
REMARK    7  A    between atoms: C_9  and  O_10
REMARK    8  A    between atoms: C_15  and  O_16
REMARK    9  A    between atoms: C_23  and  C_24
REMARK   10  A    between atoms: C_24  and  S_25
REMARK   11  A    between atoms: S_25  and  C_26
REMARK   12  A    between atoms: N_30  and  C_31
REMARK   13  A    between atoms: C_32  and  C_36
REMARK   14  A    between atoms: C_36  and  O_37
REMARK                            x       y       z     vdW  Elec       q    Type
REMARK                         _______ _______ _______ _____ _____    ______ ____
ROOT
ATOM      1  C   UNL     1       1.953  -5.266   0.322  0.00  0.00    +0.258 C 
ATOM      2  C   UNL     1       2.175  -6.261   1.560  0.00  0.00    +0.277 C 
ATOM      3  O   UNL     1       1.527  -6.917   2.347  0.00  0.00    -0.270 OA
ATOM      4  N   UNL     1       3.500  -5.971   1.605  0.00  0.00    -0.230 N 
ATOM      5  C   UNL     1       4.352  -5.824   2.679  0.00  0.00    +0.125 C 
ATOM      6  C   UNL     1       5.197  -4.752   2.715  0.00  0.00    -0.006 C 
ATOM      7  C   UNL     1       5.163  -3.697   1.616  0.00  0.00    +0.196 C 
ATOM      8  O   UNL     1       3.915  -3.688   0.927  0.00  0.00    -0.349 OA
ATOM      9  C   UNL     1       3.501  -5.002   0.528  0.00  0.00    +0.273 C 
ENDROOT
BRANCH   1  10
ATOM     10  N   UNL     1       1.106  -4.085   0.669  0.00  0.00    -0.276 N 
ATOM     11  H   UNL     1       1.512  -3.155   0.610  0.00  0.00    +0.152 HD
ATOM     12  C   UNL     1      -0.178  -4.223   1.136  0.00  0.00    +0.234 C 
ATOM     13  O   UNL     1      -0.725  -5.320   1.246  0.00  0.00    -0.274 OA
BRANCH  12  14
ATOM     14  C   UNL     1      -0.919  -2.960   1.547  0.00  0.00    +0.213 C 
BRANCH  14  15
ATOM     15  C   UNL     1      -0.411  -2.361   2.855  0.00  0.00    -0.025 A 
ATOM     16  C   UNL     1       0.408  -1.221   2.899  0.00  0.00    +0.008 A 
ATOM     17  C   UNL     1       0.772  -0.653   4.125  0.00  0.00    +0.046 A 
ATOM     18  C   UNL     1       0.329  -1.221   5.311  0.00  0.00    +0.117 A 
ATOM     19  C   UNL     1      -0.439  -2.379   5.295  0.00  0.00    +0.046 A 
ATOM     20  C   UNL     1      -0.799  -2.951   4.073  0.00  0.00    +0.008 A 
BRANCH  18  21
ATOM     21  O   UNL     1       0.660  -0.600   6.479  0.00  0.00    -0.507 OA
ATOM     22  H   UNL     1       0.142  -0.998   7.198  0.00  0.00    +0.292 HD
ENDBRANCH  18  21
ENDBRANCH  14  15
BRANCH  14  23
ATOM     23  C   UNL     1      -1.029  -1.963   0.415  0.00  0.00    +0.321 C 
ATOM     24  O   UNL     1      -0.127  -1.719  -0.374  0.00  0.00    -0.250 OA
BRANCH  23  25
ATOM     25  O   UNL     1      -2.207  -1.292   0.378  0.00  0.00    -0.480 OA
ATOM     26  H   UNL     1      -2.848  -1.535   1.076  0.00  0.00    +0.295 HD
ENDBRANCH  23  25
ENDBRANCH  14  23
ENDBRANCH  12  14
ENDBRANCH   1  10
BRANCH   1  28
ATOM     27  C   UNL     1       1.797  -5.232  -2.123  0.00  0.00    +0.197 C 
ATOM     28  O   UNL     1       1.589  -5.944  -0.912  0.00  0.00    -0.348 OA
ENDBRANCH   1  28
BRANCH   5  29
ATOM     29  C   UNL     1       4.424  -6.921   3.722  0.00  0.00    +0.351 C 
ATOM     30  O   UNL     1       5.447  -7.194   4.329  0.00  0.00    -0.244 OA
BRANCH  29  31
ATOM     31  O   UNL     1       3.308  -7.642   3.937  0.00  0.00    -0.476 OA
ATOM     32  H   UNL     1       2.502  -7.412   3.421  0.00  0.00    +0.295 HD
ENDBRANCH  29  31
ENDBRANCH   5  29
BRANCH   6  33
ATOM     33  C   UNL     1       6.273  -4.484   3.757  0.00  0.00    +0.112 C 
BRANCH  33  34
ATOM     34  S   UNL     1       5.923  -2.963   4.705  0.00  0.00    -0.080 S 
BRANCH  34  35
ATOM     35  C   UNL     1       7.215  -3.003   5.852  0.00  0.00    +0.209 A 
ATOM     36  N   UNL     1       7.358  -2.111   6.874  0.00  0.00    -0.223 N 
ATOM     37  C   UNL     1       6.572  -0.959   7.210  0.00  0.00    +0.177 C 
ATOM     38  N   UNL     1       8.448  -2.428   7.596  0.00  0.00    -0.043 NA
ATOM     39  N   UNL     1       8.951  -3.506   7.008  0.00  0.00    -0.022 NA
ATOM     40  N   UNL     1       8.201  -3.868   5.913  0.00  0.00    -0.102 NA
ENDBRANCH  34  35
ENDBRANCH  33  34
ENDBRANCH   6  33
TORSDOF 12
