REMARK  Name = 
REMARK  7 active torsions:
REMARK  status: ('A' for Active; 'I' for Inactive)
REMARK    1  A    between atoms: C_5  and  C_8
REMARK    2  A    between atoms: C_8  and  C_9
REMARK    3  A    between atoms: C_8  and  C_29
REMARK    4  A    between atoms: C_9  and  C_10
REMARK    5  A    between atoms: C_10  and  C_11
REMARK    6  A    between atoms: C_11  and  N_12
REMARK    7  A    between atoms: N_18  and  C_23
REMARK                            x       y       z     vdW  Elec       q    Type
REMARK                         _______ _______ _______ _____ _____    ______ ____
ROOT
ATOM      1  C   UNL     1       7.404   3.369   1.541  0.00  0.00    +0.084 C 
ENDROOT
BRANCH   1   2
ATOM      2  N   UNL     1       6.586   4.567   1.344  0.00  0.00    -0.302 NA
ATOM      3  C   UNL     1       7.254   5.784   1.822  0.00  0.00    +0.087 C 
ATOM      4  C   UNL     1       7.217   5.959   3.342  0.00  0.00    +0.051 C 
ATOM      5  C   UNL     1       5.785   5.858   3.880  0.00  0.00    +0.115 C 
ATOM      6  C   UNL     1       5.015   7.132   3.464  0.00  0.00    +0.238 C 
ATOM      7  O   UNL     1       4.651   7.482   2.353  0.00  0.00    -0.273 OA
ATOM      8  N   UNL     1       4.786   7.880   4.585  0.00  0.00    -0.298 N 
ATOM      9  H   UNL     1       4.279   8.752   4.532  0.00  0.00    +0.150 HD
ATOM     10  C   UNL     1       5.270   7.290   5.775  0.00  0.00    +0.214 C 
ATOM     11  N   UNL     1       5.752   5.975   5.376  0.00  0.00    -0.300 N 
ATOM     12  C   UNL     1       5.025   4.643   3.335  0.00  0.00    +0.051 C 
ATOM     13  C   UNL     1       5.203   4.480   1.822  0.00  0.00    +0.087 C 
BRANCH  11  14
ATOM     14  C   UNL     1       6.173   5.075   6.338  0.00  0.00    +0.032 A 
ATOM     15  C   UNL     1       6.008   5.330   7.716  0.00  0.00    +0.023 A 
ATOM     16  C   UNL     1       6.366   4.406   8.710  0.00  0.00    +0.002 A 
ATOM     17  C   UNL     1       6.911   3.185   8.355  0.00  0.00    +0.000 A 
ATOM     18  C   UNL     1       7.120   2.904   7.015  0.00  0.00    +0.002 A 
ATOM     19  C   UNL     1       6.770   3.844   6.032  0.00  0.00    +0.023 A 
ENDBRANCH  11  14
ENDBRANCH   1   2
BRANCH   1  20
ATOM     20  C   UNL     1       6.927   2.135   0.763  0.00  0.00    +0.016 C 
BRANCH  20  21
ATOM     21  C   UNL     1       6.766   2.297  -0.757  0.00  0.00    +0.014 C 
BRANCH  21  22
ATOM     22  C   UNL     1       8.041   2.581  -1.607  0.00  0.00    +0.049 C 
BRANCH  22  27
ATOM     23  F   UNL     1      11.881  -1.583  -1.150  0.00  0.00    -0.205 F 
ATOM     24  C   UNL     1      10.954  -0.619  -1.226  0.00  0.00    +0.123 A 
ATOM     25  C   UNL     1      10.976   0.424  -0.313  0.00  0.00    +0.038 A 
ATOM     26  C   UNL     1      10.015   1.432  -0.398  0.00  0.00    +0.007 A 
ATOM     27  C   UNL     1       9.064   1.449  -1.436  0.00  0.00    -0.040 A 
ATOM     28  C   UNL     1       9.040   0.352  -2.320  0.00  0.00    +0.007 A 
ATOM     29  C   UNL     1       9.979  -0.679  -2.212  0.00  0.00    +0.038 A 
ENDBRANCH  22  27
BRANCH  22  30
ATOM     30  C   UNL     1       8.545   4.036  -1.586  0.00  0.00    -0.040 A 
ATOM     31  C   UNL     1       7.631   5.088  -1.803  0.00  0.00    +0.007 A 
ATOM     32  C   UNL     1       8.032   6.428  -1.794  0.00  0.00    +0.038 A 
ATOM     33  C   UNL     1       9.364   6.737  -1.573  0.00  0.00    +0.123 A 
ATOM     34  F   UNL     1       9.754   8.019  -1.546  0.00  0.00    -0.205 F 
ATOM     35  C   UNL     1      10.299   5.734  -1.392  0.00  0.00    +0.038 A 
ATOM     36  C   UNL     1       9.897   4.394  -1.430  0.00  0.00    +0.007 A 
ENDBRANCH  22  30
ENDBRANCH  21  22
ENDBRANCH  20  21
ENDBRANCH   1  20
TORSDOF 7
