REMARK  Name = 
REMARK  16 active torsions:
REMARK  status: ('A' for Active; 'I' for Inactive)
REMARK    1  A    between atoms: C_1  and  C_2
REMARK    2  A    between atoms: C_2  and  C_3
REMARK    3  A    between atoms: C_2  and  C_4
REMARK    4  A    between atoms: C_4  and  C_5
REMARK    5  A    between atoms: C_5  and  N_7
REMARK    6  A    between atoms: C_5  and  C_17
REMARK    7  A    between atoms: C_8  and  C_10
REMARK    8  A    between atoms: C_10  and  O_12
REMARK    9  A    between atoms: C_10  and  C_13
REMARK   10  A    between atoms: C_13  and  C_14
REMARK   11  A    between atoms: C_14  and  O_15
REMARK   12  A    between atoms: N_19  and  C_20
REMARK   13  A    between atoms: C_20  and  C_21
REMARK   14  A    between atoms: C_21  and  C_22
REMARK   15  A    between atoms: C_22  and  C_23
REMARK   16  A    between atoms: C_23  and  N_24
REMARK                            x       y       z     vdW  Elec       q    Type
REMARK                         _______ _______ _______ _____ _____    ______ ____
ROOT
ATOM      1  C   UNL     1       4.544  -1.488  -0.700  0.00  0.00    +0.159 C 
ENDROOT
BRANCH   1   2
ATOM      2  C   UNL     1       5.001  -2.818  -1.346  0.00  0.00    +0.233 C 
ATOM      3  N   UNL     1       4.053  -3.822  -1.282  0.00  0.00    -0.314 N 
ATOM      4  H   UNL     1       3.309  -3.695  -0.596  0.00  0.00    +0.149 HD
ATOM      5  O   UNL     1       6.135  -2.999  -1.784  0.00  0.00    -0.274 OA
BRANCH   3   6
ATOM      6  C   UNL     1       4.299  -5.156  -1.786  0.00  0.00    +0.104 C 
BRANCH   6   7
ATOM      7  C   UNL     1       5.055  -6.020  -0.775  0.00  0.00    +0.022 C 
BRANCH   7   8
ATOM      8  C   UNL     1       5.322  -7.427  -1.317  0.00  0.00    +0.038 C 
BRANCH   8   9
ATOM      9  C   UNL     1       6.081  -8.290  -0.308  0.00  0.00    +0.196 C 
BRANCH   9  10
ATOM     10  N   UNL     1       6.336  -9.636  -0.853  0.00  0.00    -0.279 N 
ATOM     11  H   UNL     1       6.010  -9.844  -1.789  0.00  0.00    +0.258 HD
ATOM     12  C   UNL     1       6.980 -10.616  -0.197  0.00  0.00    +0.341 C 
ATOM     13  N   UNL     1       7.154 -11.801  -0.793  0.00  0.00    -0.292 N 
ATOM     14  H   UNL     1       7.637 -12.557  -0.327  0.00  0.00    +0.255 HD
ATOM     15  H   UNL     1       6.812 -11.988  -1.726  0.00  0.00    +0.255 HD
ATOM     16  N   UNL     1       7.462 -10.452   1.037  0.00  0.00    -0.292 N 
ATOM     17  H   UNL     1       7.946 -11.192   1.527  0.00  0.00    +0.255 HD
ATOM     18  H   UNL     1       7.357  -9.573   1.528  0.00  0.00    +0.255 HD
ENDBRANCH   9  10
ENDBRANCH   8   9
ENDBRANCH   7   8
ENDBRANCH   6   7
ENDBRANCH   3   6
ENDBRANCH   1   2
BRANCH   1  19
ATOM     19  N   UNL     1       4.974  -1.475   0.709  0.00  0.00    -0.302 N 
ATOM     20  H   UNL     1       5.910  -1.136   0.902  0.00  0.00    +0.150 HD
ATOM     21  C   UNL     1       4.354  -2.292   1.638  0.00  0.00    +0.243 C 
ATOM     22  O   UNL     1       3.428  -3.041   1.339  0.00  0.00    -0.273 OA
BRANCH  21  23
ATOM     23  C   UNL     1       4.901  -2.144   3.073  0.00  0.00    +0.210 C 
BRANCH  23  24
ATOM     24  O   UNL     1       4.572  -0.852   3.602  0.00  0.00    -0.382 OA
ATOM     25  H   UNL     1       4.492  -0.235   2.846  0.00  0.00    +0.210 HD
ENDBRANCH  23  24
BRANCH  23  26
ATOM     26  C   UNL     1       4.285  -3.203   3.981  0.00  0.00    +0.161 C 
BRANCH  26  27
ATOM     27  C   UNL     1       4.793  -3.166   5.398  0.00  0.00    +0.308 C 
ATOM     28  O   UNL     1       4.985  -4.179   6.056  0.00  0.00    -0.251 OA
BRANCH  27  29
ATOM     29  O   UNL     1       4.945  -1.930   5.916  0.00  0.00    -0.481 OA
ATOM     30  H   UNL     1       4.717  -1.216   5.273  0.00  0.00    +0.295 HD
ENDBRANCH  27  29
ENDBRANCH  26  27
ENDBRANCH  23  26
ENDBRANCH  21  23
ENDBRANCH   1  19
BRANCH   1  31
ATOM     31  C   UNL     1       5.120  -0.272  -1.451  0.00  0.00    +0.034 C 
BRANCH  31  33
ATOM     32  C   UNL     1       3.194  -0.134  -3.124  0.00  0.00    +0.007 C 
ATOM     33  C   UNL     1       4.712  -0.176  -2.940  0.00  0.00    -0.015 C 
ATOM     34  C   UNL     1       5.348   1.053  -3.598  0.00  0.00    +0.007 C 
ENDBRANCH  31  33
ENDBRANCH   1  31
TORSDOF 14
