REMARK  Name = 
REMARK  8 active torsions:
REMARK  status: ('A' for Active; 'I' for Inactive)
REMARK    1  A    between atoms: N_1  and  S_2
REMARK    2  A    between atoms: S_2  and  O_5
REMARK    3  A    between atoms: O_5  and  C_6
REMARK    4  A    between atoms: C_9  and  C_10
REMARK    5  A    between atoms: C_10  and  N_11
REMARK    6  A    between atoms: N_11  and  N_12
REMARK    7  A    between atoms: N_11  and  C_17
REMARK    8  A    between atoms: C_20  and  C_23
REMARK                            x       y       z     vdW  Elec       q    Type
REMARK                         _______ _______ _______ _____ _____    ______ ____
ROOT
ATOM      1  C   UNL     1       9.018   2.161   0.752  0.00  0.00    +0.165 C 
ENDROOT
BRANCH   1   5
ATOM      2  C   UNL     1       4.709   1.814   0.344  0.00  0.00    +0.158 A 
ATOM      3  C   UNL     1       5.543   1.602  -0.755  0.00  0.00    +0.049 A 
ATOM      4  C   UNL     1       6.934   1.688  -0.622  0.00  0.00    +0.009 A 
ATOM      5  C   UNL     1       7.516   1.985   0.618  0.00  0.00    -0.028 A 
ATOM      6  C   UNL     1       6.660   2.189   1.711  0.00  0.00    +0.009 A 
ATOM      7  C   UNL     1       5.272   2.081   1.585  0.00  0.00    +0.049 A 
BRANCH   2   8
ATOM      8  O   UNL     1       3.361   1.740   0.100  0.00  0.00    -0.334 OA
BRANCH   8   9
ATOM      9  S   UNL     1       2.275   2.481   1.061  0.00  0.00    +0.189 S 
ATOM     10  O   UNL     1       1.904   1.584   2.134  0.00  0.00    -0.119 OA
ATOM     11  O   UNL     1       2.666   3.849   1.314  0.00  0.00    -0.119 OA
BRANCH   9  12
ATOM     12  N   UNL     1       0.900   2.583   0.100  0.00  0.00    -0.174 NA
ATOM     13  H   UNL     1       0.391   1.700   0.138  0.00  0.00    +0.147 HD
ATOM     14  H   UNL     1       0.336   3.367   0.428  0.00  0.00    +0.147 HD
ENDBRANCH   9  12
ENDBRANCH   8   9
ENDBRANCH   2   8
ENDBRANCH   1   5
BRANCH   1  15
ATOM     15  N   UNL     1       9.747   0.914   1.074  0.00  0.00    -0.233 N 
BRANCH  15  16
ATOM     16  C   UNL     1      10.383   0.843   2.339  0.00  0.00    +0.051 A 
ATOM     17  C   UNL     1      11.632   0.223   2.525  0.00  0.00    +0.026 A 
ATOM     18  C   UNL     1      12.244   0.154   3.790  0.00  0.00    +0.021 A 
ATOM     19  C   UNL     1      11.612   0.700   4.907  0.00  0.00    +0.052 A 
ATOM     20  C   UNL     1      10.361   1.292   4.759  0.00  0.00    +0.021 A 
ATOM     21  C   UNL     1       9.765   1.348   3.494  0.00  0.00    +0.026 A 
BRANCH  19  22
ATOM     22  C   UNL     1      12.240   0.651   6.198  0.00  0.00    +0.099 C 
ATOM     23  N   UNL     1      12.738   0.624   7.245  0.00  0.00    -0.191 NA
ENDBRANCH  19  22
ENDBRANCH  15  16
BRANCH  15  24
ATOM     24  N   UNL     1      10.168   0.152  -0.040  0.00  0.00    -0.233 N 
ATOM     25  C   UNL     1      10.269  -1.216  -0.100  0.00  0.00    +0.244 A 
ATOM     26  N   UNL     1      10.733  -1.595  -1.269  0.00  0.00    -0.137 NA
ATOM     27  N   UNL     1      10.938  -0.463  -2.017  0.00  0.00    -0.137 NA
ATOM     28  C   UNL     1      10.612   0.569  -1.270  0.00  0.00    +0.244 A 
ENDBRANCH  15  24
ENDBRANCH   1  15
TORSDOF 8
