REMARK  Name = 
REMARK  14 active torsions:
REMARK  status: ('A' for Active; 'I' for Inactive)
REMARK    1  A    between atoms: C_1  and  C_2
REMARK    2  A    between atoms: C_2  and  C_3
REMARK    3  A    between atoms: C_2  and  C_4
REMARK    4  A    between atoms: C_4  and  C_5
REMARK    5  A    between atoms: C_5  and  N_7
REMARK    6  A    between atoms: C_5  and  C_19
REMARK    7  A    between atoms: C_8  and  C_10
REMARK    8  A    between atoms: C_13  and  N_16
REMARK    9  A    between atoms: C_25  and  C_27
REMARK   10  A    between atoms: N_29  and  C_30
REMARK   11  A    between atoms: C_30  and  C_31
REMARK   12  A    between atoms: C_31  and  C_32
REMARK   13  A    between atoms: C_32  and  C_33
REMARK   14  A    between atoms: C_33  and  N_34
REMARK                            x       y       z     vdW  Elec       q    Type
REMARK                         _______ _______ _______ _____ _____    ______ ____
ROOT
ATOM      1  C   UNL     1       5.690   2.534   1.223  0.00  0.00    +0.237 C 
ATOM      2  N   UNL     1       6.982   2.838   1.659  0.00  0.00    -0.288 N 
ATOM      3  C   UNL     1       8.080   1.843   1.652  0.00  0.00    +0.162 C 
ATOM      4  C   UNL     1       9.324   2.645   1.206  0.00  0.00    +0.033 C 
ATOM      5  C   UNL     1       8.852   4.075   0.993  0.00  0.00    +0.021 C 
ATOM      6  C   UNL     1       7.552   4.169   1.759  0.00  0.00    +0.109 C 
ATOM      7  O   UNL     1       5.359   1.389   0.902  0.00  0.00    -0.274 OA
ENDROOT
BRANCH   3   8
ATOM      8  C   UNL     1       8.455   1.178   3.010  0.00  0.00    +0.234 C 
ATOM      9  N   UNL     1       7.791   1.650   4.117  0.00  0.00    -0.314 N 
ATOM     10  H   UNL     1       6.992   2.243   3.956  0.00  0.00    +0.149 HD
ATOM     11  O   UNL     1       9.366   0.355   3.089  0.00  0.00    -0.274 OA
BRANCH   9  12
ATOM     12  C   UNL     1       8.080   1.214   5.474  0.00  0.00    +0.104 C 
BRANCH  12  13
ATOM     13  C   UNL     1       8.938   2.210   6.263  0.00  0.00    +0.022 C 
BRANCH  13  14
ATOM     14  C   UNL     1       8.283   3.584   6.440  0.00  0.00    +0.042 C 
BRANCH  14  15
ATOM     15  C   UNL     1       9.178   4.536   7.241  0.00  0.00    +0.243 C 
BRANCH  15  16
ATOM     16  N   UNL     1       8.531   5.847   7.304  0.00  0.00    -0.114 NA
ATOM     17  C   UNL     1       9.121   6.780   7.953  0.00  0.00    +0.376 C 
ATOM     18  N   UNL     1       8.563   8.006   8.042  0.00  0.00    -0.289 N 
ATOM     19  H   UNL     1       8.627   8.405   8.972  0.00  0.00    +0.255 HD
ATOM     20  H   UNL     1       7.599   7.980   7.725  0.00  0.00    +0.255 HD
ATOM     21  N   UNL     1      10.294   6.765   8.623  0.00  0.00    -0.289 N 
ATOM     22  H   UNL     1      10.802   7.638   8.542  0.00  0.00    +0.255 HD
ATOM     23  H   UNL     1      10.892   5.977   8.412  0.00  0.00    +0.255 HD
ENDBRANCH  15  16
ENDBRANCH  14  15
ENDBRANCH  13  14
ENDBRANCH  12  13
ENDBRANCH   9  12
ENDBRANCH   3   8
BRANCH   1  24
ATOM     24  C   UNL     1       4.632   3.690   1.173  0.00  0.00    +0.160 C 
BRANCH  24  25
ATOM     25  N   UNL     1       3.882   3.650  -0.082  0.00  0.00    -0.300 N 
ATOM     26  H   UNL     1       3.613   2.734  -0.426  0.00  0.00    +0.150 HD
ATOM     27  C   UNL     1       3.728   4.783  -0.861  0.00  0.00    +0.245 C 
ATOM     28  O   UNL     1       4.189   5.880  -0.586  0.00  0.00    -0.270 OA
BRANCH  27  29
ATOM     29  C   UNL     1       2.986   4.581  -2.129  0.00  0.00    +0.037 A 
ATOM     30  C   UNL     1       3.411   5.267  -3.275  0.00  0.00    +0.019 A 
ATOM     31  C   UNL     1       2.804   5.002  -4.504  0.00  0.00    +0.085 A 
ATOM     32  C   UNL     1       1.754   4.070  -4.572  0.00  0.00    +0.273 A 
ATOM     33  C   UNL     1       1.283   3.442  -3.411  0.00  0.00    +0.085 A 
ATOM     34  C   UNL     1       1.895   3.706  -2.189  0.00  0.00    +0.019 A 
BRANCH  32  35
ATOM     35  N   UNL     1       1.165   3.730  -5.871  0.00  0.00    +0.080 N 
ATOM     36  O   UNL     1       1.605   4.305  -6.874  0.00  0.00    +0.041 OA
ATOM     37  O   UNL     1       0.272   2.868  -5.887  0.00  0.00    -0.576 OA
ENDBRANCH  32  35
ENDBRANCH  27  29
ENDBRANCH  24  25
BRANCH  24  38
ATOM     38  C   UNL     1       3.650   3.659   2.366  0.00  0.00    +0.034 C 
BRANCH  38  40
ATOM     39  C   UNL     1       5.053   5.131   3.896  0.00  0.00    +0.007 C 
ATOM     40  C   UNL     1       4.379   3.765   3.717  0.00  0.00    -0.015 C 
ATOM     41  C   UNL     1       3.501   3.417   4.923  0.00  0.00    +0.007 C 
ENDBRANCH  38  40
ENDBRANCH  24  38
ENDBRANCH   1  24
TORSDOF 12
