REMARK  Name = 
REMARK  11 active torsions:
REMARK  status: ('A' for Active; 'I' for Inactive)
REMARK    1  A    between atoms: O_1  and  C_2
REMARK    2  A    between atoms: C_4  and  O_6
REMARK    3  A    between atoms: C_7  and  C_9
REMARK    4  A    between atoms: C_9  and  O_10
REMARK    5  A    between atoms: O_10  and  V_11
REMARK    6  A    between atoms: V_11  and  O_12
REMARK    7  A    between atoms: C_16  and  O_18
REMARK    8  A    between atoms: O_18  and  P_19
REMARK    9  A    between atoms: P_19  and  O_20
REMARK   10  A    between atoms: P_19  and  O_21
REMARK   11  A    between atoms: C_23  and  O_25
REMARK                            x       y       z     vdW  Elec       q    Type
REMARK                         _______ _______ _______ _____ _____    ______ ____
ROOT
ATOM      1  C   UNL     1       2.443  -0.007  -0.018  0.00  0.00    +0.000 C 
ATOM      2  C   UNL     1       2.950   1.041  -1.019  0.00  0.00    +0.000 C 
ATOM      3  C   UNL     1       2.589   0.639  -2.464  0.00  0.00    +0.000 C 
ATOM      4  O   UNL     1       3.117  -0.653  -2.749  0.00  0.00    +0.000 OA
ATOM      5  C   UNL     1       2.551  -1.651  -1.906  0.00  0.00    +0.000 C 
ATOM      6  C   UNL     1       2.957  -1.394  -0.431  0.00  0.00    +0.000 C 
ENDROOT
BRANCH   1   7
ATOM      7  O   UNL     1       2.840   0.316   1.292  0.00  0.00    +0.000 OA
ATOM      8  H   UNL     1       3.834   0.315   1.313  0.00  0.00    +0.000 HD
ENDBRANCH   1   7
BRANCH   2   9
ATOM      9  O   UNL     1       2.457   2.321  -0.708  0.00  0.00    +0.000 OA
ATOM     10  H   UNL     1       1.466   2.269  -0.705  0.00  0.00    +0.000 HD
ENDBRANCH   2   9
BRANCH   6  11
ATOM     11  O   UNL     1       2.408  -2.370   0.417  0.00  0.00    +0.000 OA
ATOM     12  H   UNL     1       2.946  -2.360   1.252  0.00  0.00    +0.000 HD
ENDBRANCH   6  11
BRANCH   3  13
ATOM     13  O   UNL     1       3.206   1.595  -3.296  0.00  0.00    +0.000 OA
BRANCH  13  14
ATOM     14  P   UNL     1       2.640   1.481  -4.951  0.00  0.00    +0.000 P 
ATOM     15  O   UNL     1       2.037   0.076  -5.235  0.00  0.00    +0.000 OA
BRANCH  14  16
ATOM     16  O   UNL     1       3.990   1.680  -6.022  0.00  0.00    +0.000 OA
ATOM     17  H   UNL     1       4.765   1.332  -5.512  0.00  0.00    +0.000 HD
ENDBRANCH  14  16
BRANCH  14  18
ATOM     18  O   UNL     1       1.433   2.680  -5.298  0.00  0.00    +0.000 OA
ATOM     19  H   UNL     1       0.937   2.798  -4.450  0.00  0.00    +0.000 HD
ENDBRANCH  14  18
ENDBRANCH  13  14
ENDBRANCH   3  13
BRANCH   5  20
ATOM     20  C   UNL     1       3.054  -3.018  -2.395  0.00  0.00    +0.000 C 
BRANCH  20  21
ATOM     21  O   UNL     1       2.499  -4.056  -1.642  0.00  0.00    +0.000 OA
BRANCH  21  22
ATOM     22  V   UNL     1       3.326  -5.704  -2.338  0.00  0.00    +0.000 V 
ATOM     23  O   UNL     1       2.745  -7.081  -1.414  0.00  0.00    +0.000 OA
ATOM     24  O   UNL     1       5.076  -5.608  -2.194  0.00  0.00    +0.000 OA
BRANCH  22  25
ATOM     25  O   UNL     1       2.833  -5.934  -4.228  0.00  0.00    +0.000 OA
ATOM     26  H   UNL     1       3.401  -5.284  -4.713  0.00  0.00    +0.000 HD
ENDBRANCH  22  25
ENDBRANCH  21  22
ENDBRANCH  20  21
ENDBRANCH   5  20
TORSDOF 11
