REMARK  Name = 
REMARK  7 active torsions:
REMARK  status: ('A' for Active; 'I' for Inactive)
REMARK    1  A    between atoms: CA_2  and  N_3
REMARK    2  A    between atoms: CA_2  and  C_12
REMARK    3  A    between atoms: CA_2  and  CE_14
REMARK    4  A    between atoms: C_4  and  C_6
REMARK    5  A    between atoms: C_6  and  C_7
REMARK    6  A    between atoms: CA_19  and  C_21
REMARK    7  A    between atoms: C_21  and  O_22
REMARK                            x       y       z     vdW  Elec       q    Type
REMARK                         _______ _______ _______ _____ _____    ______ ____
ROOT
ATOM      1  CA  MET A   1       2.741  -1.635   2.213  0.00  0.00    +0.170 C 
ENDROOT
BRANCH   1   2
ATOM      2  CE  MET A   1       2.358  -1.423   0.725  0.00  0.00    +0.190 C 
ATOM      3  N   MET A   1       0.952  -1.774   0.529  0.00  0.00    -0.265 NA
ATOM      4  CA  MET A   1       0.628  -2.854  -0.097  0.00  0.00    +0.121 C 
ATOM      5  CB  MET A   1       1.497  -3.863  -0.783  0.00  0.00    +0.073 C 
ATOM      6  CG  MET A   1       2.976  -3.583  -0.930  0.00  0.00    +0.077 C 
ATOM      7  SD  MET A   1       3.594  -1.942  -0.497  0.00  0.00    -0.132 S 
BRANCH   4   8
ATOM      8  C   MET A   1      -0.876  -3.163  -0.117  0.00  0.00    +0.351 C 
ATOM      9  OXT MET A   1      -1.345  -4.185  -0.572  0.00  0.00    -0.244 OA
BRANCH   8  10
ATOM     10  O   MET A   1      -1.567  -2.151   0.438  0.00  0.00    -0.476 OA
ATOM     11  H   MET A   1      -0.915  -1.475   0.743  0.00  0.00    +0.295 HD
ENDBRANCH   8  10
ENDBRANCH   4   8
ENDBRANCH   1   2
BRANCH   1  12
ATOM     12  N   MET A   1       3.949  -0.905   2.625  0.00  0.00    -0.303 N 
ATOM     13  H   MET A   1       4.853  -1.243   2.307  0.00  0.00    +0.149 HD
ATOM     14  C   UNK A   0       3.897   0.180   3.475  0.00  0.00    +0.218 C 
ATOM     15  O   UNK A   0       2.840   0.631   3.911  0.00  0.00    -0.275 OA
BRANCH  14  16
ATOM     16  C   UNK A   0       5.248   0.767   3.843  0.00  0.00    +0.138 C 
BRANCH  16  17
ATOM     17  C   UNK A   0       5.790   0.065   5.050  0.00  0.00    -0.001 A 
ATOM     18  S   UNK A   0       6.753  -1.345   4.877  0.00  0.00    -0.101 S 
ATOM     19  C   UNK A   0       6.962  -1.488   6.568  0.00  0.00    +0.045 A 
ATOM     20  C   UNK A   0       6.317  -0.486   7.255  0.00  0.00    +0.008 A 
ATOM     21  C   UNK A   0       5.640   0.411   6.379  0.00  0.00    +0.011 A 
ENDBRANCH  16  17
ENDBRANCH  14  16
ENDBRANCH   1  12
BRANCH   1  22
ATOM     22  C   MET A   1       2.906  -3.081   2.646  0.00  0.00    +0.248 C 
ATOM     23  O   MET A   1       2.322  -4.036   2.140  0.00  0.00    -0.299 OA
ENDBRANCH   1  22
TORSDOF 7
