REMARK  Name = 
REMARK  13 active torsions:
REMARK  status: ('A' for Active; 'I' for Inactive)
REMARK    1  A    between atoms: C_1  and  C_2
REMARK    2  A    between atoms: N_7  and  C_8
REMARK    3  A    between atoms: C_8  and  C_9
REMARK    4  A    between atoms: C_9  and  C_10
REMARK    5  A    between atoms: C_10  and  C_11
REMARK    6  A    between atoms: C_16  and  C_18
REMARK    7  A    between atoms: C_18  and  C_19
REMARK    8  A    between atoms: C_19  and  C_20
REMARK    9  A    between atoms: C_20  and  C_21
REMARK   10  A    between atoms: C_21  and  O_22
REMARK   11  A    between atoms: CA_27  and  CB_29
REMARK   12  A    between atoms: CB_29  and  CG_30
REMARK   13  A    between atoms: CG_36  and  OD1_38
REMARK                            x       y       z     vdW  Elec       q    Type
REMARK                         _______ _______ _______ _____ _____    ______ ____
ROOT
ATOM      1  C   UNK A   5       9.301   2.742  -4.210  0.00  0.00    +0.159 C 
ATOM      2  C   UNK A   5       8.457   3.796  -5.009  0.00  0.00    +0.237 C 
ATOM      3  O   UNK A   5       8.987   4.895  -5.233  0.00  0.00    -0.274 OA
ATOM      4  N   PRO A   1       7.246   3.547  -5.598  0.00  0.00    -0.288 N 
ATOM      5  CA  PRO A   1       6.356   4.656  -6.018  0.00  0.00    +0.162 C 
ATOM      6  CB  PRO A   1       5.225   3.935  -6.796  0.00  0.00    +0.033 C 
ATOM      7  CG  PRO A   1       5.757   2.539  -7.109  0.00  0.00    +0.021 C 
ATOM      8  C   PRO A   1       6.981   5.817  -6.854  0.00  0.00    +0.234 C 
ATOM      9  O   PRO A   1       7.111   5.707  -8.079  0.00  0.00    -0.274 OA
ATOM     10  N   ASN A   2       7.480   6.956  -6.261  0.00  0.00    -0.302 N 
ATOM     11  H   ASN A   2       7.910   7.565  -6.951  0.00  0.00    +0.150 HD
ATOM     12  CA  ASN A   2       7.220   7.606  -4.969  0.00  0.00    +0.163 C 
ATOM     13  C   ASN A   2       8.231   8.724  -4.470  0.00  0.00    +0.239 C 
ATOM     14  O   ASN A   2       8.865   9.504  -5.164  0.00  0.00    -0.273 OA
ATOM     15  N   ASN A   2       8.228   8.690  -3.030  0.00  0.00    -0.262 N 
ATOM     16  CG  ASN A   2       7.135   7.836  -2.681  0.00  0.00    +0.208 C 
ATOM     17  CA  HIS A   3       9.543   8.715  -2.305  0.00  0.00    +0.170 C 
ATOM     18  C   HIS A   3      10.523   7.584  -2.804  0.00  0.00    +0.235 C 
ATOM     19  O   HIS A   3      10.862   7.531  -3.988  0.00  0.00    -0.274 OA
ATOM     20  N   UNK A   4      10.986   6.628  -1.910  0.00  0.00    -0.302 N 
ATOM     21  H   UNK A   4      10.394   6.460  -1.105  0.00  0.00    +0.150 HD
ATOM     22  C   UNK A   4      11.539   5.369  -2.460  0.00  0.00    +0.159 C 
ATOM     23  C   UNK A   4      10.306   4.493  -2.743  0.00  0.00    +0.234 C 
ATOM     24  O   UNK A   4       9.295   4.607  -2.047  0.00  0.00    -0.274 OA
ATOM     25  CB  ASN A   2       7.218   6.749  -3.711  0.00  0.00    +0.083 C 
ATOM     26  CD  PRO A   1       6.676   2.261  -5.943  0.00  0.00    +0.109 C 
ATOM     27  N   UNK A   5      10.465   3.540  -3.740  0.00  0.00    -0.302 N 
ATOM     28  H   UNK A   5      11.105   3.818  -4.478  0.00  0.00    +0.150 HD
ENDROOT
BRANCH  16  29
ATOM     29  OD1 ASN A   2       7.141   7.386  -1.366  0.00  0.00    -0.374 OA
ATOM     30  HD1 ASN A   2       6.731   8.108  -0.853  0.00  0.00    +0.212 HD
ENDBRANCH  16  29
BRANCH   1  31
ATOM     31  C   UNK A   5       8.776   1.924  -3.013  0.00  0.00    +0.035 C 
BRANCH  31  32
ATOM     32  C   UNK A   5       7.592   1.026  -3.282  0.00  0.00    +0.043 C 
BRANCH  32  33
ATOM     33  C   UNK A   5       7.162   0.183  -2.093  0.00  0.00    +0.243 C 
BRANCH  33  39
ATOM     34  C   UNK A   5       2.347  -3.413  -2.022  0.00  0.00    +0.129 C 
ATOM     35  C   UNK A   5       3.478  -2.779  -1.264  0.00  0.00    +0.272 C 
ATOM     36  N   UNK A   5       4.303  -1.985  -2.044  0.00  0.00    -0.175 N 
ATOM     37  H   UNK A   5       4.091  -1.838  -3.011  0.00  0.00    +0.254 HD
ATOM     38  C   UNK A   5       5.416  -1.296  -1.608  0.00  0.00    +0.377 C 
ATOM     39  N   UNK A   5       5.958  -0.558  -2.499  0.00  0.00    -0.115 NA
ATOM     40  N   UNK A   5       5.812  -1.456  -0.323  0.00  0.00    -0.291 N 
ATOM     41  H   UNK A   5       6.243  -0.657   0.114  0.00  0.00    +0.254 HD
ATOM     42  H   UNK A   5       5.120  -1.911   0.274  0.00  0.00    +0.254 HD
ATOM     43  O   UNK A   5       3.615  -2.939  -0.055  0.00  0.00    -0.258 OA
ENDBRANCH  33  39
ENDBRANCH  32  33
ENDBRANCH  31  32
ENDBRANCH   1  31
BRANCH  17  44
ATOM     44  CB  HIS A   3       9.469   8.776  -0.756  0.00  0.00    +0.086 C 
BRANCH  44  45
ATOM     45  CG  HIS A   3       8.592   9.836  -0.170  0.00  0.00    +0.038 A 
ATOM     46  ND1 HIS A   3       8.466  11.106  -0.671  0.00  0.00    -0.348 N 
ATOM     47  HD1 HIS A   3       8.923  11.483  -1.491  0.00  0.00    +0.166 HD
ATOM     48  CE1 HIS A   3       7.587  11.778   0.129  0.00  0.00    +0.196 A 
ATOM     49  NE2 HIS A   3       7.139  11.019   1.102  0.00  0.00    -0.244 NA
ATOM     50  CD2 HIS A   3       7.771   9.817   0.942  0.00  0.00    +0.133 A 
ENDBRANCH  44  45
ENDBRANCH  17  44
BRANCH  22  51
ATOM     51  C   UNK A   4      12.437   4.627  -1.448  0.00  0.00    +0.032 C 
BRANCH  51  52
ATOM     52  C   UNK A   4      12.958   3.289  -1.998  0.00  0.00    +0.013 C 
BRANCH  52  53
ATOM     53  C   UNK A   4      13.845   2.520  -1.026  0.00  0.00    +0.120 C 
BRANCH  53  54
ATOM     54  C   UNK A   4      14.277   1.197  -1.632  0.00  0.00    +0.305 C 
ATOM     55  O   UNK A   4      13.988   0.806  -2.751  0.00  0.00    -0.251 OA
BRANCH  54  56
ATOM     56  O   UNK A   4      15.031   0.468  -0.779  0.00  0.00    -0.481 OA
ATOM     57  H   UNK A   4      15.182   0.897   0.085  0.00  0.00    +0.295 HD
ENDBRANCH  54  56
ENDBRANCH  53  54
ENDBRANCH  52  53
ENDBRANCH  51  52
ENDBRANCH  22  51
TORSDOF 12
