REMARK  Name = 
REMARK  2 active torsions:
REMARK  status: ('A' for Active; 'I' for Inactive)
REMARK    1  A    between atoms: C_1  and  N_2
REMARK    2  A    between atoms: C_10  and  O_12
REMARK                            x       y       z     vdW  Elec       q    Type
REMARK                         _______ _______ _______ _____ _____    ______ ____
ROOT
ATOM      1  C   UNL     1       1.042  -0.053   0.177  0.00  0.00    +0.105 C 
ATOM      2  N   UNL     1       2.459  -0.051  -0.139  0.00  0.00    -0.299 NA
ATOM      3  C   UNL     1       2.945  -1.194  -0.916  0.00  0.00    +0.059 C 
ATOM      4  C   UNL     1       2.212  -1.354  -2.256  0.00  0.00    +0.050 C 
ATOM      5  C   UNL     1       1.977  -0.043  -3.022  0.00  0.00    +0.117 C 
ATOM      6  C   UNL     1       2.219   1.265  -2.252  0.00  0.00    +0.050 C 
ATOM      7  C   UNL     1       4.412  -0.805  -1.123  0.00  0.00    +0.020 C 
ATOM      8  C   UNL     1       4.410   0.722  -1.105  0.00  0.00    +0.020 C 
ATOM      9  C   UNL     1       2.940   1.101  -0.906  0.00  0.00    +0.059 C 
ENDROOT
BRANCH   5  10
ATOM     10  O   UNL     1       2.779  -0.039  -4.205  0.00  0.00    -0.392 OA
ATOM     11  H   UNL     1       2.427  -0.734  -4.793  0.00  0.00    +0.210 HD
ENDBRANCH   5  10
TORSDOF 1
