REMARK  Name = 
REMARK  8 active torsions:
REMARK  status: ('A' for Active; 'I' for Inactive)
REMARK    1  A    between atoms: N_1  and  S_2
REMARK    2  A    between atoms: S_2  and  O_5
REMARK    3  A    between atoms: O_5  and  C_6
REMARK    4  A    between atoms: C_9  and  C_10
REMARK    5  A    between atoms: C_10  and  N_11
REMARK    6  A    between atoms: N_11  and  N_12
REMARK    7  A    between atoms: N_11  and  C_17
REMARK    8  A    between atoms: C_20  and  C_23
REMARK                            x       y       z     vdW  Elec       q    Type
REMARK                         _______ _______ _______ _____ _____    ______ ____
ROOT
ATOM      1  C   UNL     1       8.957  -2.192   0.859  0.00  0.00    +0.165 C 
ENDROOT
BRANCH   1   6
ATOM      2  C   UNL     1       4.920  -0.583   1.216  0.00  0.00    +0.172 A 
ATOM      3  C   UNL     1       5.789  -0.596   2.314  0.00  0.00    +0.063 A 
ATOM      4 BR   UNL     1       5.254   0.096   4.003  0.00  0.00    -0.046 Br
ATOM      5  C   UNL     1       7.083  -1.124   2.202  0.00  0.00    +0.024 A 
ATOM      6  C   UNL     1       7.532  -1.680   0.992  0.00  0.00    -0.027 A 
ATOM      7  C   UNL     1       6.673  -1.622  -0.115  0.00  0.00    +0.009 A 
ATOM      8  C   UNL     1       5.387  -1.065  -0.009  0.00  0.00    +0.050 A 
BRANCH   2   9
ATOM      9  O   UNL     1       3.661  -0.077   1.428  0.00  0.00    -0.333 OA
BRANCH   9  10
ATOM     10  S   UNL     1       2.428  -0.262   0.391  0.00  0.00    +0.189 S 
ATOM     11  O   UNL     1       2.434   0.843  -0.541  0.00  0.00    -0.119 OA
ATOM     12  O   UNL     1       2.338  -1.631  -0.060  0.00  0.00    -0.119 OA
BRANCH  10  13
ATOM     13  N   UNL     1       1.069  -0.008   1.348  0.00  0.00    -0.174 NA
ATOM     14  H   UNL     1       1.049   0.952   1.688  0.00  0.00    +0.147 HD
ATOM     15  H   UNL     1       0.235  -0.241   0.808  0.00  0.00    +0.147 HD
ENDBRANCH  10  13
ENDBRANCH   9  10
ENDBRANCH   2   9
ENDBRANCH   1   6
BRANCH   1  16
ATOM     16  N   UNL     1       9.308  -3.578   1.277  0.00  0.00    -0.233 N 
BRANCH  16  17
ATOM     17  C   UNL     1      10.726  -3.797   1.454  0.00  0.00    +0.051 A 
ATOM     18  C   UNL     1      11.251  -5.067   1.768  0.00  0.00    +0.026 A 
ATOM     19  C   UNL     1      12.645  -5.314   1.839  0.00  0.00    +0.021 A 
ATOM     20  C   UNL     1      13.557  -4.273   1.671  0.00  0.00    +0.052 A 
ATOM     21  C   UNL     1      13.066  -2.991   1.439  0.00  0.00    +0.021 A 
ATOM     22  C   UNL     1      11.685  -2.765   1.328  0.00  0.00    +0.026 A 
BRANCH  20  23
ATOM     23  C   UNL     1      14.970  -4.505   1.736  0.00  0.00    +0.099 C 
ATOM     24  N   UNL     1      16.121  -4.681   1.781  0.00  0.00    -0.191 NA
ENDBRANCH  20  23
ENDBRANCH  16  17
BRANCH  16  25
ATOM     25  N   UNL     1       8.439  -4.622   0.791  0.00  0.00    -0.233 N 
ATOM     26  C   UNL     1       8.770  -5.756   0.080  0.00  0.00    +0.244 A 
ATOM     27  N   UNL     1       7.732  -6.550  -0.055  0.00  0.00    -0.137 NA
ATOM     28  N   UNL     1       6.662  -5.923   0.525  0.00  0.00    -0.137 NA
ATOM     29  C   UNL     1       7.094  -4.785   1.022  0.00  0.00    +0.244 A 
ENDBRANCH  16  25
ENDBRANCH   1  16
TORSDOF 8
