REMARK  Name = 
REMARK  18 active torsions:
REMARK  status: ('A' for Active; 'I' for Inactive)
REMARK    1  A    between atoms: C_1  and  O_2
REMARK    2  A    between atoms: O_2  and  C_3
REMARK    3  A    between atoms: C_3  and  O_5
REMARK    4  A    between atoms: C_3  and  C_6
REMARK    5  A    between atoms: C_9  and  C_10
REMARK    6  A    between atoms: C_10  and  N_11
REMARK    7  A    between atoms: C_12  and  C_14
REMARK    8  A    between atoms: C_14  and  O_15
REMARK    9  A    between atoms: O_15  and  C_16
REMARK   10  A    between atoms: C_22  and  O_24
REMARK   11  A    between atoms: C_25  and  O_27
REMARK   12  A    between atoms: C_28  and  C_30
REMARK   13  A    between atoms: C_30  and  O_31
REMARK   14  A    between atoms: O_31  and  C_32
REMARK   15  A    between atoms: N_38  and  C_39
REMARK   16  A    between atoms: C_39  and  C_40
REMARK   17  A    between atoms: C_43  and  C_44
REMARK   18  A    between atoms: C_44  and  O_45
REMARK                            x       y       z     vdW  Elec       q    Type
REMARK                         _______ _______ _______ _____ _____    ______ ____
ROOT
ATOM      1  N   UNL     1       9.055  -0.291  -0.021  0.00  0.00    -0.153 NA
ATOM      2  S   UNL     1      10.709   0.117   0.258  0.00  0.00    +0.101 S 
ATOM      3  O   UNL     1      10.926   1.543   0.206  0.00  0.00    -0.141 OA
ATOM      4  O   UNL     1      11.525  -0.776  -0.522  0.00  0.00    -0.141 OA
ATOM      5  N   UNL     1      10.786  -0.288   1.889  0.00  0.00    -0.153 NA
ATOM      6  C   UNL     1      11.351  -1.637   2.227  0.00  0.00    +0.150 C 
ATOM      7  C   UNL     1      10.707  -2.788   1.408  0.00  0.00    +0.167 C 
ATOM      8  C   UNL     1       9.195  -2.619   1.173  0.00  0.00    +0.167 C 
ATOM      9  C   UNL     1       8.805  -1.827  -0.132  0.00  0.00    +0.150 C 
ENDROOT
BRANCH   8  10
ATOM     10  O   UNL     1       8.655  -3.969   1.145  0.00  0.00    -0.387 OA
ATOM     11  H   UNL     1       9.019  -4.419   0.357  0.00  0.00    +0.210 HD
ENDBRANCH   8  10
BRANCH   7  12
ATOM     12  O   UNL     1      10.958  -4.072   2.007  0.00  0.00    -0.387 OA
ATOM     13  H   UNL     1      10.092  -4.509   2.134  0.00  0.00    +0.210 HD
ENDBRANCH   7  12
BRANCH   6  14
ATOM     14  C   UNL     1      11.427  -1.899   3.742  0.00  0.00    +0.252 C 
BRANCH  14  15
ATOM     15  O   UNL     1      12.270  -3.008   4.060  0.00  0.00    -0.490 OA
BRANCH  15  16
ATOM     16  C   UNL     1      12.215  -3.382   5.375  0.00  0.00    +0.121 A 
ATOM     17  C   UNL     1      12.107  -2.501   6.455  0.00  0.00    +0.045 A 
ATOM     18  C   UNL     1      12.070  -2.986   7.759  0.00  0.00    +0.004 A 
ATOM     19  C   UNL     1      12.169  -4.354   7.992  0.00  0.00    +0.000 A 
ATOM     20  C   UNL     1      12.306  -5.236   6.919  0.00  0.00    +0.004 A 
ATOM     21  C   UNL     1      12.338  -4.744   5.613  0.00  0.00    +0.045 A 
ENDBRANCH  15  16
ENDBRANCH  14  15
ENDBRANCH   6  14
BRANCH   9  22
ATOM     22  C   UNL     1       7.310  -2.183  -0.418  0.00  0.00    +0.252 C 
BRANCH  22  23
ATOM     23  O   UNL     1       6.920  -1.903  -1.771  0.00  0.00    -0.490 OA
BRANCH  23  24
ATOM     24  C   UNL     1       5.597  -2.183  -2.014  0.00  0.00    +0.121 A 
ATOM     25  C   UNL     1       4.954  -3.352  -1.597  0.00  0.00    +0.045 A 
ATOM     26  C   UNL     1       3.610  -3.565  -1.901  0.00  0.00    +0.004 A 
ATOM     27  C   UNL     1       2.906  -2.611  -2.639  0.00  0.00    +0.000 A 
ATOM     28  C   UNL     1       3.548  -1.460  -3.077  0.00  0.00    +0.004 A 
ATOM     29  C   UNL     1       4.896  -1.247  -2.775  0.00  0.00    +0.045 A 
ENDBRANCH  23  24
ENDBRANCH  22  23
ENDBRANCH   9  22
BRANCH   5  30
ATOM     30  C   UNL     1       9.817   0.418   2.778  0.00  0.00    +0.146 C 
BRANCH  30  31
ATOM     31  C   UNL     1      10.345   0.896   4.111  0.00  0.00    -0.032 A 
ATOM     32  C   UNL     1       9.779   0.453   5.317  0.00  0.00    +0.005 A 
ATOM     33  C   UNL     1      10.401   0.741   6.535  0.00  0.00    +0.006 A 
ATOM     34  C   UNL     1      11.577   1.507   6.570  0.00  0.00    -0.022 A 
ATOM     35  C   UNL     1      12.073   2.034   5.370  0.00  0.00    +0.006 A 
ATOM     36  C   UNL     1      11.457   1.744   4.153  0.00  0.00    +0.005 A 
BRANCH  34  37
ATOM     37  C   UNL     1      12.391   1.645   7.832  0.00  0.00    +0.191 C 
BRANCH  37  38
ATOM     38  O   UNL     1      11.577   1.634   8.996  0.00  0.00    -0.390 OA
ATOM     39  H   UNL     1      10.868   2.277   8.844  0.00  0.00    +0.210 HD
ENDBRANCH  37  38
ENDBRANCH  34  37
ENDBRANCH  30  31
ENDBRANCH   5  30
BRANCH   1  40
ATOM     40  C   UNL     1       8.460   0.456  -1.202  0.00  0.00    +0.146 C 
BRANCH  40  44
ATOM     41  C   UNL     1       8.344   4.809  -1.156  0.00  0.00    +0.008 A 
ATOM     42  C   UNL     1       8.406   4.077   0.033  0.00  0.00    +0.009 A 
ATOM     43  C   UNL     1       8.361   2.686   0.006  0.00  0.00    +0.005 A 
ATOM     44  C   UNL     1       8.471   1.973  -1.190  0.00  0.00    -0.032 A 
ATOM     45  C   UNL     1       8.518   2.703  -2.385  0.00  0.00    +0.005 A 
ATOM     46  C   UNL     1       8.442   4.104  -2.368  0.00  0.00    +0.009 A 
BRANCH  41  47
ATOM     47  C   UNL     1       8.099   6.310  -1.157  0.00  0.00    +0.279 C 
BRANCH  47  48
ATOM     48  O   UNL     1       7.281   6.730  -0.067  0.00  0.00    -0.363 OA
ATOM     49  H   UNL     1       7.090   5.959   0.484  0.00  0.00    +0.213 HD
ENDBRANCH  47  48
BRANCH  47  51
ATOM     50  C   UNL     1       9.108   8.417  -1.286  0.00  0.00    +0.197 C 
ATOM     51  O   UNL     1       9.332   7.015  -1.161  0.00  0.00    -0.351 OA
ENDBRANCH  47  51
ENDBRANCH  41  47
ENDBRANCH  40  44
ENDBRANCH   1  40
TORSDOF 17
