REMARK  Name = 
REMARK  22 active torsions:
REMARK  status: ('A' for Active; 'I' for Inactive)
REMARK    1  A    between atoms: C_1  and  C_2
REMARK    2  A    between atoms: C_2  and  C_3
REMARK    3  A    between atoms: C_3  and  C_4
REMARK    4  A    between atoms: C_4  and  N_5
REMARK    5  A    between atoms: N_5  and  C_6
REMARK    6  A    between atoms: N_5  and  C_10
REMARK    7  A    between atoms: C_6  and  C_7
REMARK    8  A    between atoms: C_7  and  C_8
REMARK    9  A    between atoms: C_8  and  C_9
REMARK   10  A    between atoms: C_10  and  C_11
REMARK   11  A    between atoms: C_11  and  C_12
REMARK   12  A    between atoms: C_12  and  O_13
REMARK   13  A    between atoms: O_13  and  C_14
REMARK   14  A    between atoms: C_17  and  C_20
REMARK   15  A    between atoms: C_20  and  C_22
REMARK   16  A    between atoms: C_23  and  C_24
REMARK   17  A    between atoms: C_24  and  C_25
REMARK   18  A    between atoms: C_25  and  C_26
REMARK   19  A    between atoms: C_26  and  C_27
REMARK   20  A    between atoms: C_32  and  N_33
REMARK   21  A    between atoms: N_33  and  S_34
REMARK   22  A    between atoms: S_34  and  C_35
REMARK                            x       y       z     vdW  Elec       q    Type
REMARK                         _______ _______ _______ _____ _____    ______ ____
ROOT
ATOM      1  C   UNL     1      14.499   6.280  -2.659  0.00  0.00    +0.197 C 
ATOM      2  O   UNL     1      15.041   7.375  -2.541  0.00  0.00    -0.287 OA
ENDROOT
BRANCH   1   3
ATOM      3  C   UNL     1      15.204   5.112  -3.193  0.00  0.00    +0.071 A 
ATOM      4  C   UNL     1      14.667   3.994  -3.937  0.00  0.00    +0.033 A 
ATOM      5  C   UNL     1      13.403   3.603  -4.433  0.00  0.00    +0.036 A 
ATOM      6  C   UNL     1      13.268   2.370  -5.083  0.00  0.00    +0.048 A 
ATOM      7  C   UNL     1      14.379   1.559  -5.328  0.00  0.00    +0.028 A 
ATOM      8  C   UNL     1      15.649   1.948  -4.898  0.00  0.00    +0.049 A 
ATOM      9  C   UNL     1      15.737   3.156  -4.207  0.00  0.00    +0.136 A 
ATOM     10  O   UNL     1      16.883   3.693  -3.731  0.00  0.00    -0.459 OA
ATOM     11  C   UNL     1      16.583   4.902  -3.170  0.00  0.00    +0.117 A 
BRANCH   6  12
ATOM     12  N   UNL     1      11.973   1.970  -5.513  0.00  0.00    -0.221 N 
ATOM     13  H   UNL     1      11.724   0.999  -5.312  0.00  0.00    +0.173 HD
BRANCH  12  14
ATOM     14  S   UNL     1      11.517   2.351  -7.094  0.00  0.00    +0.040 S 
ATOM     15  O   UNL     1      10.484   1.399  -7.433  0.00  0.00    -0.155 OA
ATOM     16  O   UNL     1      12.692   2.509  -7.920  0.00  0.00    -0.155 OA
ATOM     17  C   UNL     1      10.742   3.936  -6.871  0.00  0.00    +0.218 C 
ENDBRANCH  12  14
ENDBRANCH   6  12
BRANCH  11  18
ATOM     18  C   UNL     1      17.797   5.696  -2.826  0.00  0.00    +0.075 C 
BRANCH  18  19
ATOM     19  C   UNL     1      18.015   6.057  -1.358  0.00  0.00    +0.007 C 
BRANCH  19  20
ATOM     20  C   UNL     1      19.387   6.743  -1.234  0.00  0.00    -0.003 C 
ATOM     21  C   UNL     1      19.733   7.195   0.173  0.00  0.00    +0.004 C 
ENDBRANCH  19  20
ENDBRANCH  18  19
ENDBRANCH  11  18
ENDBRANCH   1   3
BRANCH   1  25
ATOM     22  C   UNL     1      10.274   5.834  -1.909  0.00  0.00    +0.121 A 
ATOM     23  C   UNL     1      11.157   4.807  -1.572  0.00  0.00    +0.046 A 
ATOM     24  C   UNL     1      12.540   4.971  -1.724  0.00  0.00    +0.015 A 
ATOM     25  C   UNL     1      13.054   6.147  -2.285  0.00  0.00    +0.023 A 
ATOM     26  C   UNL     1      12.176   7.206  -2.550  0.00  0.00    +0.015 A 
ATOM     27  C   UNL     1      10.795   7.050  -2.358  0.00  0.00    +0.046 A 
BRANCH  22  28
ATOM     28  O   UNL     1       8.946   5.526  -1.770  0.00  0.00    -0.492 OA
BRANCH  28  29
ATOM     29  C   UNL     1       8.015   6.561  -2.103  0.00  0.00    +0.230 C 
BRANCH  29  30
ATOM     30  C   UNL     1       6.593   6.024  -1.959  0.00  0.00    +0.056 C 
BRANCH  30  31
ATOM     31  C   UNL     1       5.543   7.118  -2.205  0.00  0.00    +0.087 C 
BRANCH  31  32
ATOM     32  N   UNL     1       5.612   7.789  -3.528  0.00  0.00    -0.302 NA
BRANCH  32  33
ATOM     33  C   UNL     1       5.341   6.798  -4.600  0.00  0.00    +0.084 C 
BRANCH  33  34
ATOM     34  C   UNL     1       5.355   7.288  -6.057  0.00  0.00    +0.015 C 
BRANCH  34  36
ATOM     35  C   UNL     1       6.617   8.296  -7.974  0.00  0.00    +0.004 C 
ATOM     36  C   UNL     1       6.690   7.879  -6.510  0.00  0.00    -0.002 C 
ENDBRANCH  34  36
ENDBRANCH  33  34
ENDBRANCH  32  33
BRANCH  32  37
ATOM     37  C   UNL     1       4.648   8.913  -3.597  0.00  0.00    +0.084 C 
BRANCH  37  38
ATOM     38  C   UNL     1       4.796  10.028  -2.543  0.00  0.00    +0.015 C 
BRANCH  38  39
ATOM     39  C   UNL     1       6.157  10.727  -2.558  0.00  0.00    -0.002 C 
ATOM     40  C   UNL     1       6.222  11.807  -1.486  0.00  0.00    +0.004 C 
ENDBRANCH  38  39
ENDBRANCH  37  38
ENDBRANCH  32  37
ENDBRANCH  31  32
ENDBRANCH  30  31
ENDBRANCH  29  30
ENDBRANCH  28  29
ENDBRANCH  22  28
ENDBRANCH   1  25
TORSDOF 18
