REMARK  Name = 
REMARK  4 active torsions:
REMARK  status: ('A' for Active; 'I' for Inactive)
REMARK    1  A    between atoms: O_1  and  C_2
REMARK    2  A    between atoms: C_2  and  C_4
REMARK    3  A    between atoms: C_5  and  O_6
REMARK    4  A    between atoms: C_11  and  O_12
REMARK                            x       y       z     vdW  Elec       q    Type
REMARK                         _______ _______ _______ _____ _____    ______ ____
ROOT
ATOM      1  C   UNL     1       3.144   0.748  -0.898  0.00  0.00    +0.101 A 
ATOM      2  C   UNL     1       2.979   2.138  -0.831  0.00  0.00    +0.027 A 
ATOM      3  C   UNL     1       3.523   2.966  -1.824  0.00  0.00    -0.013 A 
ATOM      4  C   UNL     1       4.269   2.390  -2.882  0.00  0.00    -0.014 A 
ATOM      5  C   UNL     1       4.781   3.221  -3.892  0.00  0.00    +0.012 A 
ATOM      6  C   UNL     1       4.556   4.600  -3.866  0.00  0.00    +0.046 A 
ATOM      7  C   UNL     1       3.833   5.153  -2.817  0.00  0.00    +0.117 A 
ATOM      8  C   UNL     1       4.480   1.003  -2.901  0.00  0.00    +0.054 A 
ATOM      9  C   UNL     1       3.327   4.354  -1.798  0.00  0.00    +0.054 A 
ATOM     10  C   UNL     1       3.929   0.191  -1.911  0.00  0.00    +0.131 A 
ENDROOT
BRANCH   1  11
ATOM     11  C   UNL     1       2.499  -0.143   0.090  0.00  0.00    +0.340 C 
ATOM     12  O   UNL     1       3.003  -1.204   0.422  0.00  0.00    -0.245 OA
BRANCH  11  13
ATOM     13  O   UNL     1       1.283   0.271   0.501  0.00  0.00    -0.477 OA
ATOM     14  H   UNL     1       0.900   1.007  -0.011  0.00  0.00    +0.295 HD
ENDBRANCH  11  13
ENDBRANCH   1  11
BRANCH   7  15
ATOM     15  O   UNL     1       3.582   6.491  -2.753  0.00  0.00    -0.507 OA
ATOM     16  H   UNL     1       3.959   6.918  -3.540  0.00  0.00    +0.292 HD
ENDBRANCH   7  15
BRANCH  10  17
ATOM     17  O   UNL     1       4.192  -1.150  -2.003  0.00  0.00    -0.506 OA
ATOM     18  H   UNL     1       3.917  -1.584  -1.164  0.00  0.00    +0.292 HD
ENDBRANCH  10  17
TORSDOF 4
