REMARK  Name = 
REMARK  4 active torsions:
REMARK  status: ('A' for Active; 'I' for Inactive)
REMARK    1  A    between atoms: C_1  and  O_2
REMARK    2  A    between atoms: O_2  and  C_3
REMARK    3  A    between atoms: C_9  and  C_14
REMARK    4  A    between atoms: C_17  and  O_18
REMARK                            x       y       z     vdW  Elec       q    Type
REMARK                         _______ _______ _______ _____ _____    ______ ____
ROOT
ATOM      1  C   UNL     1       2.876   1.030   0.704  0.00  0.00    +0.124 A 
ATOM      2  C   UNL     1       3.769   0.821   1.762  0.00  0.00    +0.092 A 
ATOM      3  C   UNL     1       4.315   1.911   2.442  0.00  0.00    +0.142 A 
ATOM      4  C   UNL     1       3.991   3.203   2.049  0.00  0.00    +0.065 A 
ATOM      5  C   UNL     1       4.569   4.345   2.770  0.00  0.00    +0.200 A 
ATOM      6  C   UNL     1       5.416   4.037   3.961  0.00  0.00    +0.064 A 
ATOM      7  C   UNL     1       5.631   2.733   4.209  0.00  0.00    +0.208 A 
ATOM      8  O   UNL     1       4.344   5.487   2.382  0.00  0.00    -0.286 OA
ATOM      9  C   UNL     1       3.123   3.422   0.977  0.00  0.00    +0.019 A 
ATOM     10  O   UNL     1       5.157   1.656   3.493  0.00  0.00    -0.462 OA
ATOM     11  C   UNL     1       2.570   2.333   0.305  0.00  0.00    +0.046 A 
ENDROOT
BRANCH   6  12
ATOM     12  C   UNL     1       5.966   5.101   4.836  0.00  0.00    -0.011 A 
ATOM     13  C   UNL     1       5.241   6.280   5.077  0.00  0.00    +0.012 A 
ATOM     14  C   UNL     1       5.741   7.284   5.912  0.00  0.00    +0.046 A 
ATOM     15  C   UNL     1       6.970   7.114   6.529  0.00  0.00    +0.117 A 
ATOM     16  C   UNL     1       7.723   5.969   6.300  0.00  0.00    +0.046 A 
ATOM     17  C   UNL     1       7.226   4.973   5.450  0.00  0.00    +0.012 A 
BRANCH  15  18
ATOM     18  O   UNL     1       7.404   8.098   7.366  0.00  0.00    -0.507 OA
ATOM     19  H   UNL     1       8.219   7.799   7.801  0.00  0.00    +0.292 HD
ENDBRANCH  15  18
ENDBRANCH   6  12
BRANCH   1  21
ATOM     20  C   UNL     1       1.099   0.054  -0.502  0.00  0.00    +0.277 C 
ATOM     21  O   UNL     1       2.380  -0.097   0.106  0.00  0.00    -0.495 OA
ENDBRANCH   1  21
TORSDOF 3
