REMARK  Name = 
REMARK  27 active torsions:
REMARK  status: ('A' for Active; 'I' for Inactive)
REMARK    1  A    between atoms: N_1  and  C_2
REMARK    2  A    between atoms: C_2  and  C_3
REMARK    3  A    between atoms: C_6  and  O_8
REMARK    4  A    between atoms: O_8  and  C_9
REMARK    5  A    between atoms: C_11  and  C_13
REMARK    6  A    between atoms: C_13  and  O_14
REMARK    7  A    between atoms: C_16  and  O_18
REMARK    8  A    between atoms: O_18  and  C_19
REMARK    9  A    between atoms: C_21  and  O_23
REMARK   10  A    between atoms: C_24  and  N_26
REMARK   11  A    between atoms: C_28  and  N_30
REMARK   12  A    between atoms: C_31  and  O_33
REMARK   13  A    between atoms: O_33  and  C_34
REMARK   14  A    between atoms: C_37  and  C_39
REMARK   15  A    between atoms: C_39  and  O_40
REMARK   16  A    between atoms: C_41  and  O_43
REMARK   17  A    between atoms: C_45  and  N_47
REMARK   18  A    between atoms: C_48  and  O_50
REMARK   19  A    between atoms: C_51  and  N_53
REMARK   20  A    between atoms: C_54  and  O_56
REMARK   21  A    between atoms: C_57  and  O_59
REMARK   22  A    between atoms: O_59  and  C_60
REMARK   23  A    between atoms: C_63  and  C_65
REMARK   24  A    between atoms: C_65  and  O_66
REMARK   25  A    between atoms: C_67  and  O_69
REMARK   26  A    between atoms: C_70  and  O_72
REMARK   27  A    between atoms: C_73  and  O_75
REMARK                            x       y       z     vdW  Elec       q    Type
REMARK                         _______ _______ _______ _____ _____    ______ ____
ROOT
ATOM      1  C   UNL     1       2.084  -6.236  -3.064  0.00  0.00    +0.186 C 
ATOM      2  C   UNL     1       1.294  -7.350  -2.400  0.00  0.00    +0.202 C 
ATOM      3  C   UNL     1       1.565  -8.562  -3.316  0.00  0.00    +0.282 C 
ATOM      4  O   UNL     1       2.819  -8.355  -3.953  0.00  0.00    -0.341 OA
ATOM      5  C   UNL     1       3.246  -7.012  -3.690  0.00  0.00    +0.178 C 
ENDROOT
BRANCH   2   6
ATOM      6  O   UNL     1      -0.075  -7.026  -2.169  0.00  0.00    -0.384 OA
ATOM      7  H   UNL     1      -0.460  -7.776  -1.676  0.00  0.00    +0.210 HD
ENDBRANCH   2   6
BRANCH   3   8
ATOM      8  O   UNL     1       1.614  -9.723  -2.491  0.00  0.00    -0.340 OA
BRANCH   8   9
ATOM      9  C   UNL     1       1.677 -11.028  -3.098  0.00  0.00    +0.182 C 
ATOM     10  C   UNL     1       0.418 -11.491  -3.892  0.00  0.00    +0.169 C 
ATOM     11  C   UNL     1       0.628 -12.963  -4.401  0.00  0.00    +0.084 C 
ATOM     12  C   UNL     1       1.974 -13.204  -5.110  0.00  0.00    +0.042 C 
ATOM     13  C   UNL     1       3.156 -12.686  -4.295  0.00  0.00    +0.084 C 
ATOM     14  C   UNL     1       2.938 -11.202  -3.970  0.00  0.00    +0.163 C 
BRANCH  13  15
ATOM     15  N   UNL     1       4.416 -12.908  -5.026  0.00  0.00    -0.325 NA
ATOM     16  H   UNL     1       4.693 -12.027  -5.467  0.00  0.00    +0.119 HD
ATOM     17  H   UNL     1       5.153 -13.032  -4.325  0.00  0.00    +0.119 HD
ENDBRANCH  13  15
BRANCH  11  18
ATOM     18  N   UNL     1      -0.457 -13.389  -5.308  0.00  0.00    -0.325 NA
ATOM     19  H   UNL     1      -0.400 -12.867  -6.183  0.00  0.00    +0.119 HD
ATOM     20  H   UNL     1      -0.311 -14.367  -5.567  0.00  0.00    +0.119 HD
ENDBRANCH  11  18
BRANCH  14  21
ATOM     21  O   UNL     1       4.092 -10.689  -3.300  0.00  0.00    -0.388 OA
ATOM     22  H   UNL     1       3.906  -9.731  -3.235  0.00  0.00    +0.210 HD
ENDBRANCH  14  21
BRANCH  10  23
ATOM     23  O   UNL     1      -0.809 -11.492  -3.115  0.00  0.00    -0.342 OA
BRANCH  23  24
ATOM     24  C   UNL     1      -1.219 -10.218  -2.627  0.00  0.00    +0.268 C 
ATOM     25  C   UNL     1      -2.551 -10.262  -1.830  0.00  0.00    +0.110 C 
ATOM     26  C   UNL     1      -3.739 -10.472  -2.770  0.00  0.00    +0.057 C 
ATOM     27  C   UNL     1      -3.702  -9.445  -3.908  0.00  0.00    +0.147 C 
ATOM     28  C   UNL     1      -2.340  -9.478  -4.612  0.00  0.00    +0.175 C 
ATOM     29  O   UNL     1      -1.296  -9.236  -3.658  0.00  0.00    -0.342 OA
BRANCH  25  30
ATOM     30  N   UNL     1      -2.520 -11.250  -0.747  0.00  0.00    -0.323 NA
ATOM     31  H   UNL     1      -3.450 -11.374  -0.353  0.00  0.00    +0.119 HD
ATOM     32  H   UNL     1      -2.244 -12.153  -1.140  0.00  0.00    +0.119 HD
ENDBRANCH  25  30
BRANCH  27  33
ATOM     33  O   UNL     1      -4.770  -9.699  -4.812  0.00  0.00    -0.389 OA
ATOM     34  H   UNL     1      -4.653 -10.593  -5.179  0.00  0.00    +0.210 HD
ENDBRANCH  27  33
BRANCH  28  35
ATOM     35  C   UNL     1      -2.225  -8.403  -5.702  0.00  0.00    +0.190 C 
BRANCH  35  36
ATOM     36  O   UNL     1      -1.009  -8.583  -6.436  0.00  0.00    -0.392 OA
ATOM     37  H   UNL     1      -0.288  -8.434  -5.802  0.00  0.00    +0.210 HD
ENDBRANCH  35  36
ENDBRANCH  28  35
ENDBRANCH  23  24
ENDBRANCH  10  23
ENDBRANCH   8   9
ENDBRANCH   3   8
BRANCH   1  38
ATOM     38  O   UNL     1       1.376  -5.514  -4.093  0.00  0.00    -0.341 OA
BRANCH  38  43
ATOM     39  C   UNL     1       0.580  -2.740  -1.867  0.00  0.00    +0.166 C 
ATOM     40  C   UNL     1       0.711  -1.493  -2.775  0.00  0.00    +0.181 C 
ATOM     41  C   UNL     1      -0.022  -1.930  -4.090  0.00  0.00    +0.167 C 
ATOM     42  C   UNL     1       0.469  -3.285  -4.693  0.00  0.00    +0.139 C 
ATOM     43  C   UNL     1       0.645  -4.376  -3.578  0.00  0.00    +0.270 C 
ATOM     44  O   UNL     1       1.322  -3.803  -2.472  0.00  0.00    -0.343 OA
BRANCH  42  45
ATOM     45  N   UNL     1       1.709  -3.075  -5.473  0.00  0.00    -0.321 NA
ATOM     46  H   UNL     1       2.427  -2.728  -4.834  0.00  0.00    +0.119 HD
ATOM     47  H   UNL     1       2.048  -4.002  -5.746  0.00  0.00    +0.119 HD
ENDBRANCH  42  45
BRANCH  41  48
ATOM     48  O   UNL     1      -1.442  -1.993  -3.809  0.00  0.00    -0.387 OA
ATOM     49  H   UNL     1      -1.746  -2.917  -3.793  0.00  0.00    +0.210 HD
ENDBRANCH  41  48
BRANCH  40  50
ATOM     50  O   UNL     1       2.107  -1.109  -2.897  0.00  0.00    -0.340 OA
BRANCH  50  51
ATOM     51  C   UNL     1       2.362   0.068  -3.683  0.00  0.00    +0.282 C 
ATOM     52  C   UNL     1       3.877   0.246  -3.997  0.00  0.00    +0.201 C 
ATOM     53  C   UNL     1       4.687   0.871  -2.856  0.00  0.00    +0.179 C 
ATOM     54  C   UNL     1       3.975   2.049  -2.193  0.00  0.00    +0.177 C 
ATOM     55  C   UNL     1       2.484   1.778  -1.965  0.00  0.00    +0.178 C 
ATOM     56  O   UNL     1       1.802   1.254  -3.112  0.00  0.00    -0.341 OA
BRANCH  54  57
ATOM     57  O   UNL     1       4.646   2.340  -0.951  0.00  0.00    -0.386 OA
ATOM     58  H   UNL     1       4.371   1.685  -0.286  0.00  0.00    +0.210 HD
ENDBRANCH  54  57
BRANCH  53  59
ATOM     59  O   UNL     1       5.951   1.336  -3.398  0.00  0.00    -0.386 OA
ATOM     60  H   UNL     1       6.365   1.891  -2.707  0.00  0.00    +0.210 HD
ENDBRANCH  53  59
BRANCH  52  61
ATOM     61  O   UNL     1       4.035   1.093  -5.156  0.00  0.00    -0.384 OA
ATOM     62  H   UNL     1       4.989   1.323  -5.169  0.00  0.00    +0.210 HD
ENDBRANCH  52  61
BRANCH  55  63
ATOM     63  C   UNL     1       1.792   3.109  -1.620  0.00  0.00    +0.190 C 
BRANCH  63  64
ATOM     64  O   UNL     1       0.411   2.877  -1.349  0.00  0.00    -0.392 OA
ATOM     65  H   UNL     1       0.071   2.419  -2.143  0.00  0.00    +0.210 HD
ENDBRANCH  63  64
ENDBRANCH  55  63
ENDBRANCH  50  51
ENDBRANCH  40  50
BRANCH  39  66
ATOM     66  C   UNL     1       1.080  -2.634  -0.427  0.00  0.00    +0.112 C 
BRANCH  66  67
ATOM     67  N   UNL     1       0.915  -3.952   0.251  0.00  0.00    -0.328 NA
ATOM     68  H   UNL     1       1.446  -4.618  -0.312  0.00  0.00    +0.118 HD
ATOM     69  H   UNL     1      -0.059  -4.245   0.162  0.00  0.00    +0.118 HD
ENDBRANCH  66  67
ENDBRANCH  39  66
ENDBRANCH  38  43
ENDBRANCH   1  38
BRANCH   5  70
ATOM     70  C   UNL     1       4.450  -7.089  -2.747  0.00  0.00    +0.190 C 
BRANCH  70  71
ATOM     71  O   UNL     1       4.966  -5.789  -2.529  0.00  0.00    -0.392 OA
ATOM     72  H   UNL     1       5.845  -5.891  -2.129  0.00  0.00    +0.210 HD
ENDBRANCH  70  71
ENDBRANCH   5  70
TORSDOF 27
