REMARK  Name = 
REMARK  17 active torsions:
REMARK  status: ('A' for Active; 'I' for Inactive)
REMARK    1  A    between atoms: C_1  and  C_2
REMARK    2  A    between atoms: C_4  and  C_6
REMARK    3  A    between atoms: C_6  and  C_7
REMARK    4  A    between atoms: C_10  and  C_11
REMARK    5  A    between atoms: C_11  and  C_12
REMARK    6  A    between atoms: C_12  and  C_13
REMARK    7  A    between atoms: C_13  and  O_14
REMARK    8  A    between atoms: C_16  and  C_17
REMARK    9  A    between atoms: C_17  and  C_18
REMARK   10  A    between atoms: C_18  and  O_19
REMARK   11  A    between atoms: C_21  and  C_22
REMARK   12  A    between atoms: C_22  and  C_23
REMARK   13  A    between atoms: C_23  and  C_24
REMARK   14  A    between atoms: C_24  and  O_25
REMARK   15  A    between atoms: C_27  and  C_28
REMARK   16  A    between atoms: C_28  and  C_29
REMARK   17  A    between atoms: C_29  and  O_30
REMARK                            x       y       z     vdW  Elec       q    Type
REMARK                         _______ _______ _______ _____ _____    ______ ____
ROOT
ATOM      1  C   UNL     1       1.046  -0.147  -0.039  0.00  0.00    +0.065 C 
ATOM      2  C   UNL     1       2.543  -0.115  -0.107  0.00  0.00    +0.037 C 
ATOM      3  C   UNL     1       3.332   1.129  -0.034  0.00  0.00    -0.015 C 
ATOM      4  C   UNL     1       4.598   0.677  -0.087  0.00  0.00    -0.039 C 
ATOM      5  C   UNL     1       4.626  -0.833  -0.124  0.00  0.00    +0.138 C 
ATOM      6  N   UNL     1       3.201  -1.236  -0.195  0.00  0.00    -0.280 NA
ENDROOT
BRANCH   5   7
ATOM      7  C   UNL     1       5.168  -1.435   1.174  0.00  0.00    +0.086 C 
BRANCH   7   8
ATOM      8  C   UNL     1       5.207  -2.931   1.100  0.00  0.00    +0.042 C 
ATOM      9  C   UNL     1       4.248  -3.795   1.812  0.00  0.00    -0.015 C 
ATOM     10  C   UNL     1       4.727  -5.015   1.525  0.00  0.00    -0.043 C 
ATOM     11  C   UNL     1       5.940  -4.938   0.649  0.00  0.00    +0.173 C 
ATOM     12  N   UNL     1       6.159  -3.507   0.423  0.00  0.00    -0.284 NA
BRANCH  10  13
ATOM     13  C   UNL     1       4.226  -6.350   2.004  0.00  0.00    +0.044 C 
BRANCH  13  14
ATOM     14  C   UNL     1       5.354  -7.364   2.247  0.00  0.00    +0.125 C 
BRANCH  14  15
ATOM     15  C   UNL     1       4.832  -8.703   2.701  0.00  0.00    +0.305 C 
ATOM     16  O   UNL     1       3.658  -8.975   2.889  0.00  0.00    -0.251 OA
BRANCH  15  17
ATOM     17  O   UNL     1       5.820  -9.613   2.854  0.00  0.00    -0.481 OA
ATOM     18  H   UNL     1       6.714  -9.274   2.663  0.00  0.00    +0.295 HD
ENDBRANCH  15  17
ENDBRANCH  14  15
ENDBRANCH  13  14
ENDBRANCH  10  13
BRANCH   9  19
ATOM     19  C   UNL     1       3.153  -3.315   2.700  0.00  0.00    +0.157 C 
BRANCH  19  20
ATOM     20  C   UNL     1       1.747  -3.815   2.438  0.00  0.00    +0.309 C 
ATOM     21  O   UNL     1       0.959  -4.059   3.345  0.00  0.00    -0.251 OA
BRANCH  20  22
ATOM     22  O   UNL     1       1.372  -3.849   1.144  0.00  0.00    -0.480 OA
ATOM     23  H   UNL     1       2.043  -3.517   0.512  0.00  0.00    +0.295 HD
ENDBRANCH  20  22
ENDBRANCH  19  20
ENDBRANCH   9  19
ENDBRANCH   7   8
ENDBRANCH   5   7
BRANCH   4  24
ATOM     24  C   UNL     1       5.856   1.528  -0.068  0.00  0.00    +0.044 C 
BRANCH  24  25
ATOM     25  C   UNL     1       7.179   0.759  -0.185  0.00  0.00    +0.125 C 
BRANCH  25  26
ATOM     26  C   UNL     1       8.410   1.628  -0.237  0.00  0.00    +0.305 C 
ATOM     27  O   UNL     1       8.416   2.843  -0.215  0.00  0.00    -0.251 OA
BRANCH  26  28
ATOM     28  O   UNL     1       9.545   0.887  -0.256  0.00  0.00    -0.481 OA
ATOM     29  H   UNL     1       9.393  -0.083  -0.254  0.00  0.00    +0.295 HD
ENDBRANCH  26  28
ENDBRANCH  25  26
ENDBRANCH  24  25
ENDBRANCH   4  24
BRANCH   3  30
ATOM     30  C   UNL     1       2.799   2.491   0.243  0.00  0.00    +0.157 C 
BRANCH  30  31
ATOM     31  C   UNL     1       2.498   3.355  -0.966  0.00  0.00    +0.309 C 
ATOM     32  O   UNL     1       2.555   3.004  -2.131  0.00  0.00    -0.251 OA
BRANCH  31  33
ATOM     33  O   UNL     1       2.119   4.612  -0.612  0.00  0.00    -0.480 OA
ATOM     34  H   UNL     1       2.118   4.785   0.352  0.00  0.00    +0.295 HD
ENDBRANCH  31  33
ENDBRANCH  30  31
ENDBRANCH   3  30
TORSDOF 16
