REMARK  Name = 
REMARK  4 active torsions:
REMARK  status: ('A' for Active; 'I' for Inactive)
REMARK    1  A    between atoms: C_2  and  C_3
REMARK    2  A    between atoms: C_3  and  C_4
REMARK    3  A    between atoms: C_4  and  C_5
REMARK    4  A    between atoms: C_5  and  C_6
REMARK                            x       y       z     vdW  Elec       q    Type
REMARK                         _______ _______ _______ _____ _____    ______ ____
ROOT
ATOM      1  C   UNL     1       6.756  -1.985   0.453  0.00  0.00    -0.009 C 
ATOM      2  C   UNL     1       7.198  -0.753   1.265  0.00  0.00    +0.018 C 
ATOM      3  C   UNL     1       6.907   0.571   0.555  0.00  0.00    +0.081 C 
ATOM      4  N   UNL     1       7.470   0.599  -0.793  0.00  0.00    -0.316 NA
ATOM      5  H   UNL     1       7.237   1.486  -1.240  0.00  0.00    +0.122 HD
ATOM      6  C   UNL     1       6.969  -0.502  -1.613  0.00  0.00    +0.081 C 
ATOM      7  C   UNL     1       7.299  -1.854  -0.980  0.00  0.00    +0.018 C 
ENDROOT
BRANCH   1   8
ATOM      8  C   UNL     1       5.227  -2.197   0.522  0.00  0.00    +0.004 C 
BRANCH   8   9
ATOM      9  C   UNL     1       4.791  -3.535  -0.092  0.00  0.00    +0.007 C 
BRANCH   9  10
ATOM     10  C   UNL     1       3.295  -3.786   0.067  0.00  0.00    +0.071 C 
BRANCH  10  12
ATOM     11  O   UNL     1       2.128  -5.197  -1.500  0.00  0.00    -0.301 OA
ATOM     12  C   UNL     1       2.933  -5.098  -0.578  0.00  0.00    +0.223 C 
ENDBRANCH  10  12
ENDBRANCH   9  10
ENDBRANCH   8   9
ENDBRANCH   1   8
TORSDOF 4
