REMARK  Name = 
REMARK  3 active torsions:
REMARK  status: ('A' for Active; 'I' for Inactive)
REMARK    1  A    between atoms: O_1  and  C_2
REMARK    2  A    between atoms: C_2  and  C_3
REMARK    3  A    between atoms: C_18  and  O_20
REMARK                            x       y       z     vdW  Elec       q    Type
REMARK                         _______ _______ _______ _____ _____    ______ ____
ROOT
ATOM      1  C   UNL     1       3.017  -0.442   1.261  0.00  0.00    +0.178 C 
ATOM      2  C   UNL     1       4.124   0.473   1.797  0.00  0.00    +0.190 C 
ATOM      3  C   UNL     1       5.390  -0.268   1.458  0.00  0.00    +0.257 C 
ATOM      4  O   UNL     1       5.859  -0.015   0.121  0.00  0.00    -0.453 OA
ATOM      5  C   UNL     1       6.229  -1.231  -0.380  0.00  0.00    +0.304 A 
ATOM      6  N   UNL     1       5.749  -2.242   0.399  0.00  0.00    -0.272 N 
ATOM      7  C   UNL     1       6.050  -3.532   0.077  0.00  0.00    +0.098 A 
ATOM      8  C   UNL     1       6.813  -3.781  -0.993  0.00  0.00    +0.090 A 
ATOM      9  C   UNL     1       7.283  -2.626  -1.828  0.00  0.00    +0.276 A 
ATOM     10  O   UNL     1       7.963  -2.874  -2.819  0.00  0.00    -0.266 OA
ATOM     11  N   UNL     1       6.944  -1.342  -1.441  0.00  0.00    -0.157 NA
ATOM     12  C   UNL     1       4.952  -1.725   1.470  0.00  0.00    +0.267 C 
ATOM     13  O   UNL     1       3.560  -1.777   1.146  0.00  0.00    -0.344 OA
ENDROOT
BRANCH   2  14
ATOM     14  O   UNL     1       4.031   0.546   3.228  0.00  0.00    -0.385 OA
ATOM     15  H   UNL     1       4.463   1.376   3.502  0.00  0.00    +0.210 HD
ENDBRANCH   2  14
BRANCH   1  16
ATOM     16  C   UNL     1       2.484   0.008  -0.103  0.00  0.00    +0.190 C 
BRANCH  16  17
ATOM     17  O   UNL     1       1.923   1.313  -0.008  0.00  0.00    -0.392 OA
ATOM     18  H   UNL     1       1.582   1.543  -0.891  0.00  0.00    +0.210 HD
ENDBRANCH  16  17
ENDBRANCH   1  16
TORSDOF 3
