REMARK  Name = 
REMARK  45 active torsions:
REMARK  status: ('A' for Active; 'I' for Inactive)
REMARK    1  A    between atoms: C_1  and  C_2
REMARK    2  A    between atoms: C_2  and  C_3
REMARK    3  A    between atoms: C_3  and  C_4
REMARK    4  A    between atoms: C_4  and  C_5
REMARK    5  A    between atoms: C_5  and  C_6
REMARK    6  A    between atoms: C_6  and  C_7
REMARK    7  A    between atoms: C_7  and  C_8
REMARK    8  A    between atoms: C_8  and  C_9
REMARK    9  A    between atoms: C_10  and  C_11
REMARK   10  A    between atoms: C_11  and  C_12
REMARK   11  A    between atoms: C_12  and  C_13
REMARK   12  A    between atoms: C_13  and  C_14
REMARK   13  A    between atoms: C_14  and  C_15
REMARK   14  A    between atoms: C_15  and  C_16
REMARK   15  A    between atoms: C_16  and  C_17
REMARK   16  A    between atoms: C_17  and  C_18
REMARK   17  A    between atoms: C_18  and  O_20
REMARK   18  A    between atoms: O_20  and  C_21
REMARK   19  A    between atoms: C_21  and  C_22
REMARK   20  A    between atoms: C_22  and  C_24
REMARK   21  A    between atoms: C_22  and  O_36
REMARK   22  A    between atoms: C_24  and  O_25
REMARK   23  A    between atoms: O_25  and  P_26
REMARK   24  A    between atoms: P_26  and  O_27
REMARK   25  A    between atoms: P_26  and  O_29
REMARK   26  A    between atoms: O_29  and  C_30
REMARK   27  A    between atoms: C_30  and  C_31
REMARK   28  A    between atoms: C_31  and  O_33
REMARK   29  A    between atoms: C_31  and  C_34
REMARK   30  A    between atoms: C_34  and  O_35
REMARK   31  A    between atoms: O_36  and  C_37
REMARK   32  A    between atoms: C_37  and  C_39
REMARK   33  A    between atoms: C_39  and  C_40
REMARK   34  A    between atoms: C_40  and  C_41
REMARK   35  A    between atoms: C_41  and  C_42
REMARK   36  A    between atoms: C_42  and  C_43
REMARK   37  A    between atoms: C_43  and  C_44
REMARK   38  A    between atoms: C_44  and  C_45
REMARK   39  A    between atoms: C_45  and  C_46
REMARK   40  A    between atoms: C_47  and  C_48
REMARK   41  A    between atoms: C_48  and  C_49
REMARK   42  A    between atoms: C_49  and  C_50
REMARK   43  A    between atoms: C_50  and  C_51
REMARK   44  A    between atoms: C_51  and  C_52
REMARK   45  A    between atoms: C_52  and  C_53
REMARK                            x       y       z     vdW  Elec       q    Type
REMARK                         _______ _______ _______ _____ _____    ______ ____
ROOT
ATOM      1  C   UNL     1      21.099  -9.813  -4.639  0.00  0.00    +0.240 C 
ENDROOT
BRANCH   1   2
ATOM      2  C   UNL     1      21.485  -8.330  -4.737  0.00  0.00    +0.220 C 
BRANCH   2   3
ATOM      3  O   UNL     1      21.750  -7.746  -3.468  0.00  0.00    -0.283 OA
BRANCH   3   4
ATOM      4  P   UNL     1      22.066  -6.167  -3.443  0.00  0.00    +0.475 P 
ATOM      5  O   UNL     1      22.247  -5.560  -2.093  0.00  0.00    -0.227 OA
BRANCH   4   6
ATOM      6  O   UNL     1      23.405  -6.055  -4.319  0.00  0.00    -0.302 OA
ATOM      7  H   UNL     1      24.183  -6.049  -3.731  0.00  0.00    +0.222 HD
ENDBRANCH   4   6
BRANCH   4   8
ATOM      8  O   UNL     1      20.955  -5.484  -4.375  0.00  0.00    -0.284 OA
BRANCH   8   9
ATOM      9  C   UNL     1      20.820  -4.074  -4.336  0.00  0.00    +0.206 C 
BRANCH   9  10
ATOM     10  C   UNL     1      19.804  -3.616  -5.384  0.00  0.00    +0.166 C 
BRANCH  10  11
ATOM     11  O   UNL     1      19.648  -2.192  -5.310  0.00  0.00    -0.387 OA
ATOM     12  H   UNL     1      19.189  -1.926  -6.127  0.00  0.00    +0.210 HD
ENDBRANCH  10  11
BRANCH  10  13
ATOM     13  C   UNL     1      18.437  -4.281  -5.193  0.00  0.00    +0.189 C 
BRANCH  13  14
ATOM     14  O   UNL     1      17.557  -3.875  -6.245  0.00  0.00    -0.392 OA
ATOM     15  H   UNL     1      17.264  -2.972  -6.035  0.00  0.00    +0.210 HD
ENDBRANCH  13  14
ENDBRANCH  10  13
ENDBRANCH   9  10
ENDBRANCH   8   9
ENDBRANCH   4   8
ENDBRANCH   3   4
ENDBRANCH   2   3
ENDBRANCH   1   2
BRANCH   1  16
ATOM     16  C   UNL     1      22.234 -10.697  -4.110  0.00  0.00    +0.279 C 
BRANCH  16  17
ATOM     17  O   UNL     1      23.395 -10.626  -4.951  0.00  0.00    -0.461 OA
BRANCH  17  18
ATOM     18  C   UNL     1      23.242 -11.198  -6.178  0.00  0.00    +0.307 C 
ATOM     19  O   UNL     1      22.251 -11.809  -6.552  0.00  0.00    -0.251 OA
BRANCH  18  20
ATOM     20  C   UNL     1      24.457 -10.950  -7.026  0.00  0.00    +0.120 C 
BRANCH  20  21
ATOM     21  C   UNL     1      24.030 -10.593  -8.441  0.00  0.00    +0.011 C 
BRANCH  21  22
ATOM     22  C   UNL     1      25.237 -10.436  -9.360  0.00  0.00    +0.001 C 
BRANCH  22  23
ATOM     23  C   UNL     1      24.753 -10.100 -10.761  0.00  0.00    +0.000 C 
BRANCH  23  24
ATOM     24  C   UNL     1      25.902  -9.935 -11.749  0.00  0.00    +0.000 C 
BRANCH  24  25
ATOM     25  C   UNL     1      25.394  -9.528 -13.134  0.00  0.00    +0.004 C 
BRANCH  25  26
ATOM     26  C   UNL     1      24.558  -8.245 -13.147  0.00  0.00    +0.027 C 
BRANCH  26  28
ATOM     27  C   UNL     1      25.568  -5.949 -13.391  0.00  0.00    -0.031 C 
ATOM     28  C   UNL     1      25.333  -7.049 -12.661  0.00  0.00    -0.031 C 
BRANCH  27  29
ATOM     29  C   UNL     1      25.042  -5.786 -14.781  0.00  0.00    +0.027 C 
BRANCH  29  30
ATOM     30  C   UNL     1      25.418  -4.455 -15.406  0.00  0.00    +0.004 C 
BRANCH  30  31
ATOM     31  C   UNL     1      24.809  -4.373 -16.802  0.00  0.00    +0.000 C 
BRANCH  31  32
ATOM     32  C   UNL     1      25.161  -3.051 -17.463  0.00  0.00    +0.000 C 
BRANCH  32  33
ATOM     33  C   UNL     1      24.546  -2.965 -18.856  0.00  0.00    -0.000 C 
BRANCH  33  34
ATOM     34  C   UNL     1      24.913  -1.639 -19.513  0.00  0.00    -0.000 C 
BRANCH  34  36
ATOM     35  C   UNL     1      24.683  -0.204 -21.553  0.00  0.00    +0.004 C 
ATOM     36  C   UNL     1      24.313  -1.529 -20.910  0.00  0.00    -0.003 C 
ENDBRANCH  34  36
ENDBRANCH  33  34
ENDBRANCH  32  33
ENDBRANCH  31  32
ENDBRANCH  30  31
ENDBRANCH  29  30
ENDBRANCH  27  29
ENDBRANCH  26  28
ENDBRANCH  25  26
ENDBRANCH  24  25
ENDBRANCH  23  24
ENDBRANCH  22  23
ENDBRANCH  21  22
ENDBRANCH  20  21
ENDBRANCH  18  20
ENDBRANCH  17  18
ENDBRANCH  16  17
ENDBRANCH   1  16
BRANCH   1  37
ATOM     37  O   UNL     1      19.949 -10.014  -3.797  0.00  0.00    -0.456 OA
BRANCH  37  38
ATOM     38  C   UNL     1      18.755  -9.797  -4.400  0.00  0.00    +0.308 C 
ATOM     39  O   UNL     1      18.590  -9.456  -5.562  0.00  0.00    -0.251 OA
BRANCH  38  40
ATOM     40  C   UNL     1      17.624 -10.041  -3.441  0.00  0.00    +0.120 C 
BRANCH  40  41
ATOM     41  C   UNL     1      17.765  -9.088  -2.273  0.00  0.00    +0.011 C 
BRANCH  41  42
ATOM     42  C   UNL     1      16.628  -9.249  -1.269  0.00  0.00    +0.001 C 
BRANCH  42  43
ATOM     43  C   UNL     1      16.860  -8.267  -0.133  0.00  0.00    +0.000 C 
BRANCH  43  44
ATOM     44  C   UNL     1      15.779  -8.345   0.935  0.00  0.00    +0.000 C 
BRANCH  44  45
ATOM     45  C   UNL     1      16.002  -7.293   2.025  0.00  0.00    +0.004 C 
BRANCH  45  46
ATOM     46  C   UNL     1      16.075  -5.853   1.509  0.00  0.00    +0.027 C 
BRANCH  46  47
ATOM     47  C   UNL     1      14.811  -5.424   0.812  0.00  0.00    -0.031 C 
ATOM     48  C   UNL     1      14.043  -4.396   1.199  0.00  0.00    -0.031 C 
BRANCH  48  49
ATOM     49  C   UNL     1      14.390  -3.533   2.371  0.00  0.00    +0.027 C 
BRANCH  49  50
ATOM     50  C   UNL     1      13.379  -2.423   2.614  0.00  0.00    +0.004 C 
BRANCH  50  51
ATOM     51  C   UNL     1      13.839  -1.575   3.797  0.00  0.00    +0.000 C 
BRANCH  51  52
ATOM     52  C   UNL     1      12.850  -0.454   4.074  0.00  0.00    -0.000 C 
BRANCH  52  53
ATOM     53  C   UNL     1      13.311   0.397   5.254  0.00  0.00    -0.003 C 
ATOM     54  C   UNL     1      12.322   1.516   5.529  0.00  0.00    +0.004 C 
ENDBRANCH  52  53
ENDBRANCH  51  52
ENDBRANCH  50  51
ENDBRANCH  49  50
ENDBRANCH  48  49
ENDBRANCH  46  47
ENDBRANCH  45  46
ENDBRANCH  44  45
ENDBRANCH  43  44
ENDBRANCH  42  43
ENDBRANCH  41  42
ENDBRANCH  40  41
ENDBRANCH  38  40
ENDBRANCH  37  38
ENDBRANCH   1  37
TORSDOF 43
