REMARK  Name = 
REMARK  8 active torsions:
REMARK  status: ('A' for Active; 'I' for Inactive)
REMARK    1  A    between atoms: C_1  and  C_2
REMARK    2  A    between atoms: C_2  and  O_3
REMARK    3  A    between atoms: O_3  and  C_4
REMARK    4  A    between atoms: N_6  and  C_7
REMARK    5  A    between atoms: C_8  and  N_9
REMARK    6  A    between atoms: C_11  and  N_12
REMARK    7  A    between atoms: N_12  and  C_13
REMARK    8  A    between atoms: C_13  and  C_14
REMARK                            x       y       z     vdW  Elec       q    Type
REMARK                         _______ _______ _______ _____ _____    ______ ____
ROOT
ATOM      1  C   UNL     1       6.277  -2.635   1.683  0.00  0.00    +0.057 A 
ATOM      2  C   UNL     1       6.666  -3.973   1.772  0.00  0.00    +0.027 A 
ATOM      3  C   UNL     1       8.020  -4.319   1.844  0.00  0.00    +0.025 A 
ATOM      4  C   UNL     1       9.011  -3.336   1.848  0.00  0.00    +0.029 A 
ATOM      5  C   UNL     1       8.607  -2.003   1.924  0.00  0.00    +0.047 A 
ATOM      6  C   UNL     1       7.265  -1.621   1.787  0.00  0.00    +0.048 A 
ENDROOT
BRANCH   1   8
ATOM      7  C   UNL     1       4.346  -1.233   1.034  0.00  0.00    +0.405 C 
ATOM      8  N   UNL     1       4.895  -2.380   1.534  0.00  0.00    -0.249 N 
ATOM      9  H   UNL     1       4.237  -3.102   1.780  0.00  0.00    +0.158 HD
ATOM     10  O   UNL     1       4.931  -0.362   0.403  0.00  0.00    -0.226 OA
BRANCH   7  11
ATOM     11  O   UNL     1       3.045  -1.137   1.414  0.00  0.00    -0.450 OA
BRANCH  11  13
ATOM     12  C   UNL     1       3.007   0.868   2.745  0.00  0.00    +0.048 C 
ATOM     13  C   UNL     1       2.576   0.222   1.436  0.00  0.00    +0.230 C 
ENDBRANCH  11  13
ENDBRANCH   7  11
ENDBRANCH   1   8
BRANCH   6  14
ATOM     14  N   UNL     1       6.962  -0.261   2.019  0.00  0.00    -0.356 N 
ATOM     15  H   UNL     1       7.734   0.354   1.788  0.00  0.00    +0.142 HD
ATOM     16  H   UNL     1       6.148   0.024   1.470  0.00  0.00    +0.142 HD
ENDBRANCH   6  14
BRANCH   4  17
ATOM     17  N   UNL     1      10.387  -3.604   1.873  0.00  0.00    -0.340 N 
ATOM     18  H   UNL     1      10.746  -3.546   2.825  0.00  0.00    +0.146 HD
BRANCH  17  19
ATOM     19  C   UNL     1      10.823  -4.825   1.204  0.00  0.00    +0.137 C 
BRANCH  19  20
ATOM     20  C   UNL     1      12.280  -4.756   0.796  0.00  0.00    -0.030 A 
ATOM     21  C   UNL     1      12.897  -3.550   0.419  0.00  0.00    +0.008 A 
ATOM     22  C   UNL     1      14.223  -3.538  -0.020  0.00  0.00    +0.038 A 
ATOM     23  C   UNL     1      14.929  -4.732  -0.102  0.00  0.00    +0.123 A 
ATOM     24  F   UNL     1      16.199  -4.722  -0.528  0.00  0.00    -0.205 F 
ATOM     25  C   UNL     1      14.333  -5.939   0.239  0.00  0.00    +0.038 A 
ATOM     26  C   UNL     1      13.010  -5.952   0.682  0.00  0.00    +0.008 A 
ENDBRANCH  19  20
ENDBRANCH  17  19
ENDBRANCH   4  17
TORSDOF 7
