REMARK  Name = 
REMARK  7 active torsions:
REMARK  status: ('A' for Active; 'I' for Inactive)
REMARK    1  A    between atoms: C_6  and  C_7
REMARK    2  A    between atoms: C_21  and  O_22
REMARK    3  A    between atoms: C_21  and  C_26
REMARK    4  A    between atoms: O_22  and  C_23
REMARK    5  A    between atoms: C_23  and  C_24
REMARK    6  A    between atoms: C_26  and  C_27
REMARK    7  A    between atoms: C_29  and  C_30
REMARK                            x       y       z     vdW  Elec       q    Type
REMARK                         _______ _______ _______ _____ _____    ______ ____
ROOT
ATOM      1  C   UNL     1      -0.000  -0.000  -0.000  0.00  0.00    +0.064 C 
ATOM      2  C   UNL     1      -0.000  -0.000  -0.000  0.00  0.00    +0.160 C 
ATOM      3  O   UNL     1      -0.000  -0.000  -0.000  0.00  0.00    -0.292 OA
ATOM      4  C   UNL     1      -0.000  -0.000   0.000  0.00  0.00    +0.052 C 
ATOM      5  C   UNL     1      -0.000  -0.000  -0.000  0.00  0.00    -0.020 C 
ATOM      6  C   UNL     1      -0.000  -0.000  -0.000  0.00  0.00    +0.041 C 
ATOM      7 CL   UNL     1      -0.000  -0.000   0.000  0.00  0.00    -0.084 Cl
ATOM      8  C   UNL     1      -0.000  -0.000  -0.000  0.00  0.00    -0.003 C 
ATOM      9  C   UNL     1      -0.000  -0.000   0.000  0.00  0.00    +0.021 C 
ATOM     10  C   UNL     1      -0.000  -0.000  -0.000  0.00  0.00    +0.007 C 
ATOM     11  C   UNL     1      -0.000  -0.000   0.000  0.00  0.00    +0.005 C 
ATOM     12  C   UNL     1      -0.000  -0.000   0.000  0.00  0.00    +0.011 C 
ATOM     13  C   UNL     1      -0.000  -0.000  -0.000  0.00  0.00    +0.018 C 
ATOM     14  C   UNL     1      -0.000  -0.000   0.000  0.00  0.00    +0.016 C 
ATOM     15  C   UNL     1      -0.000  -0.000   0.000  0.00  0.00    +0.176 C 
ATOM     16  C   UNL     1      -0.000  -0.000  -0.000  0.00  0.00    +0.057 C 
ATOM     17  C   UNL     1      -0.000  -0.000  -0.000  0.00  0.00    +0.009 C 
ATOM     18  C   UNL     1      -0.000  -0.000   0.000  0.00  0.00    +0.006 C 
ATOM     19  C   UNL     1      -0.000  -0.000  -0.000  0.00  0.00    +0.001 C 
ATOM     20  C   UNL     1      -0.000  -0.000  -0.000  0.00  0.00    +0.017 C 
ATOM     21  C   UNL     1      -0.000  -0.000   0.000  0.00  0.00    +0.011 C 
ATOM     22  C   UNL     1      -0.000  -0.000  -0.000  0.00  0.00    +0.016 C 
ENDROOT
BRANCH  15  23
ATOM     23  C   UNL     1      -0.000  -0.000   0.000  0.00  0.00    +0.174 C 
ATOM     24  O   UNL     1      -0.000  -0.000  -0.000  0.00  0.00    -0.293 OA
ATOM     25  C   UNL     1      -0.000  -0.000  -0.000  0.00  0.00    +0.090 C 
ENDBRANCH  15  23
BRANCH  15  26
ATOM     26  O   UNL     1      -0.000  -0.000   0.000  0.00  0.00    -0.450 OA
BRANCH  26  27
ATOM     27  C   UNL     1      -0.000  -0.000   0.000  0.00  0.00    +0.305 C 
ATOM     28  O   UNL     1      -0.000  -0.000   0.000  0.00  0.00    -0.251 OA
ATOM     29  C   UNL     1      -0.000  -0.000   0.000  0.00  0.00    +0.136 C 
ENDBRANCH  26  27
ENDBRANCH  15  26
TORSDOF 3
