REMARK  Name = 
REMARK  8 active torsions:
REMARK  status: ('A' for Active; 'I' for Inactive)
REMARK    1  A    between atoms: C_1  and  N_2
REMARK    2  A    between atoms: N_2  and  CA_3
REMARK    3  A    between atoms: CA_3  and  CB_5
REMARK    4  A    between atoms: CA_3  and  C_9
REMARK    5  A    between atoms: CB_5  and  CG_6
REMARK    6  A    between atoms: CG_6  and  CD1_7
REMARK    7  A    between atoms: CG_6  and  CD2_8
REMARK    8  A    between atoms: C_9  and  O_10
REMARK                            x       y       z     vdW  Elec       q    Type
REMARK                         _______ _______ _______ _____ _____    ______ ____
ROOT
ATOM      1  CA  LEU A   1       3.132  -1.268   0.719  0.00  0.00    +0.163 C 
ENDROOT
BRANCH   1   3
ATOM      2  C   ACE A   0       2.958  -2.409   2.898  0.00  0.00    +0.101 C 
ATOM      3  N   LEU A   1       2.628  -1.224   2.114  0.00  0.00    -0.307 NA
ATOM      4  H   LEU A   1       2.930  -0.394   2.613  0.00  0.00    +0.122 HD
ENDBRANCH   1   3
BRANCH   1   5
ATOM      5  C   LEU A   1       4.675  -1.327   0.668  0.00  0.00    +0.322 C 
ATOM      6  OXT LEU A   1       5.333  -2.163   0.068  0.00  0.00    -0.249 OA
BRANCH   5   7
ATOM      7  O   LEU A   1       5.266  -0.317   1.358  0.00  0.00    -0.480 OA
ATOM      8  H   LEU A   1       4.617   0.291   1.754  0.00  0.00    +0.295 HD
ENDBRANCH   5   7
ENDBRANCH   1   5
BRANCH   1   9
ATOM      9  CB  LEU A   1       2.517  -2.401  -0.129  0.00  0.00    +0.033 C 
BRANCH   9  10
ATOM     10  CG  LEU A   1       0.975  -2.420  -0.194  0.00  0.00    -0.015 C 
ATOM     11  CD2 LEU A   1       0.508  -3.660  -0.962  0.00  0.00    +0.007 C 
ATOM     12  CD1 LEU A   1       0.405  -1.163  -0.852  0.00  0.00    +0.007 C 
ENDBRANCH   9  10
ENDBRANCH   1   9
TORSDOF 5
