REMARK  Name = 
REMARK  34 active torsions:
REMARK  status: ('A' for Active; 'I' for Inactive)
REMARK    1  A    between atoms: C_1  and  N_2
REMARK    2  A    between atoms: N_2  and  CA_5
REMARK    3  A    between atoms: CA_5  and  CB_7
REMARK    4  A    between atoms: CA_5  and  C_11
REMARK    5  A    between atoms: CB_7  and  CG_8
REMARK    6  A    between atoms: CG_8  and  CD1_9
REMARK    7  A    between atoms: CG_8  and  CD2_10
REMARK    8  A    between atoms: N_13  and  C_14
REMARK    9  A    between atoms: C_16  and  O_18
REMARK   10  A    between atoms: C_37  and  O_39
REMARK   11  A    between atoms: O_39  and  C_40
REMARK   12  A    between atoms: C_43  and  C_44
REMARK   13  A    between atoms: C_43  and  N_45
REMARK   14  A    between atoms: C_49  and  O_51
REMARK   15  A    between atoms: C_52  and  C_54
REMARK   16  A    between atoms: CA_71  and  CB_73
REMARK   17  A    between atoms: CB_73  and  CG_74
REMARK   18  A    between atoms: C_83  and  O_84
REMARK   19  A    between atoms: C_88  and  O_89
REMARK   20  A    between atoms: C_91  and  O_92
REMARK   21  A    between atoms: C_95  and  C_100
REMARK   22  A    between atoms: C_100  and  O_101
REMARK   23  A    between atoms: C_103  and  O_104
REMARK   24  A    between atoms: O_104  and  C_105
REMARK   25  A    between atoms: C_108  and  C_110
REMARK   26  A    between atoms: C_110  and  O_111
REMARK   27  A    between atoms: C_112  and  O_114
REMARK   28  A    between atoms: C_115  and  O_117
REMARK   29  A    between atoms: C_118  and  O_120
REMARK   30  A    between atoms: O_120  and  C_121
REMARK   31  A    between atoms: C_124  and  C_125
REMARK   32  A    between atoms: C_124  and  N_126
REMARK   33  A    between atoms: C_130  and  O_132
REMARK   34  A    between atoms: C_133  and  C_135
REMARK                            x       y       z     vdW  Elec       q    Type
REMARK                         _______ _______ _______ _____ _____    ______ ____
ROOT
ATOM      1  C   UNK A   2      -0.000  -0.000  -0.000  0.00  0.00    +0.192 C 
ATOM      2  C   UNK A   2      -0.000   0.000   0.000  0.00  0.00    +0.237 C 
ATOM      3  O   UNK A   2      -0.000   0.000   0.000  0.00  0.00    -0.274 OA
ATOM      4  N   ASN A   3      -0.000  -0.000  -0.000  0.00  0.00    -0.302 N 
ATOM      5  H   ASN A   3       0.000   0.000   0.000  0.00  0.00    +0.150 HD
ATOM      6  CA  ASN A   3      -0.000  -0.000  -0.000  0.00  0.00    +0.168 C 
ATOM      7  C   ASN A   3      -0.000   0.000   0.000  0.00  0.00    +0.235 C 
ATOM      8  O   ASN A   3      -0.000   0.000   0.000  0.00  0.00    -0.274 OA
ATOM      9  N   UNK A   4      -0.000  -0.000  -0.000  0.00  0.00    -0.299 N 
ATOM     10  H   UNK A   4       0.000   0.000   0.000  0.00  0.00    +0.150 HD
ATOM     11  C   UNK A   4      -0.000  -0.000  -0.000  0.00  0.00    +0.190 C 
ATOM     12  C   UNK A   4      -0.000   0.000   0.000  0.00  0.00    -0.011 A 
ATOM     13  C   UNK A   4      -0.000   0.000   0.000  0.00  0.00    +0.056 A 
ATOM     14  C   UNK A   4      -0.000   0.000   0.000  0.00  0.00    +0.174 A 
ATOM     15  C   UNK A   4      -0.000  -0.000  -0.000  0.00  0.00    +0.208 A 
ATOM     16  C   UNK A   4      -0.000   0.000   0.000  0.00  0.00    +0.174 A 
ATOM     17  O   UNK A   4      -0.000   0.000   0.000  0.00  0.00    -0.451 OA
ATOM     18  C   UNK A   4      -0.000   0.000   0.000  0.00  0.00    +0.147 A 
ATOM     19  C   UNK A   4      -0.000   0.000   0.000  0.00  0.00    +0.083 A 
ATOM     20  C   UNK A   2      -0.000  -0.000  -0.000  0.00  0.00    +0.030 A 
ATOM     21  C   UNK A   2      -0.000  -0.000  -0.000  0.00  0.00    -0.015 A 
ATOM     22  C   UNK A   2      -0.000   0.000   0.000  0.00  0.00    +0.010 A 
ATOM     23 CL   UNK A   4      -0.000   0.000   0.000  0.00  0.00    -0.080 Cl
ATOM     24  C   UNK A   4      -0.000   0.000   0.000  0.00  0.00    +0.048 A 
ATOM     25  O   UNK A   4      -0.000   0.000   0.000  0.00  0.00    -0.451 OA
ATOM     26  C   UNK A   4      -0.000   0.000   0.000  0.00  0.00    +0.147 A 
ATOM     27  C   UNK A   4      -0.000   0.000   0.000  0.00  0.00    +0.083 A 
ATOM     28 CL   UNK A   4      -0.000   0.000   0.000  0.00  0.00    -0.080 Cl
ATOM     29  C   UNK A   4      -0.000   0.000   0.000  0.00  0.00    +0.030 A 
ATOM     30  C   UNK A   4      -0.000   0.000   0.000  0.00  0.00    -0.015 A 
ATOM     31  C   UNK A   4      -0.000  -0.000  -0.000  0.00  0.00    +0.180 C 
ATOM     32  C   UNK A   4      -0.000   0.000   0.000  0.00  0.00    +0.192 C 
ATOM     33  C   UNK A   4      -0.000   0.000   0.000  0.00  0.00    +0.237 C 
ATOM     34  O   ACE A   6      -0.000   0.000   0.000  0.00  0.00    -0.274 OA
ATOM     35  N   UNK A   7      -0.000  -0.000  -0.000  0.00  0.00    -0.297 N 
ATOM     36  H   UNK A   7       0.000   0.000   0.000  0.00  0.00    +0.150 HD
ATOM     37  C   UNK A   7      -0.000   0.000   0.000  0.00  0.00    +0.213 C 
ATOM     38  C   UNK A   7      -0.000   0.000   0.000  0.00  0.00    -0.002 A 
ATOM     39  C   UNK A   7      -0.000   0.000   0.000  0.00  0.00    +0.033 A 
ATOM     40  C   UNK A   7      -0.000   0.000   0.000  0.00  0.00    +0.128 A 
ATOM     41  C   UNK A   7      -0.000  -0.000  -0.000  0.00  0.00    +0.091 A 
ATOM     42  C   UNK A   7      -0.000   0.000   0.000  0.00  0.00    +0.121 A 
ATOM     43  C   UNK A   7      -0.000  -0.000  -0.000  0.00  0.00    +0.028 A 
ATOM     44  C   UNK A   7      -0.000   0.000   0.000  0.00  0.00    +0.018 A 
ATOM     45  C   UNK A   7      -0.000  -0.000  -0.000  0.00  0.00    -0.018 A 
ATOM     46  C   UNK A   7      -0.000   0.000   0.000  0.00  0.00    +0.009 A 
ATOM     47  C   UNK A   7      -0.000   0.000   0.000  0.00  0.00    +0.046 A 
ATOM     48  C   UNK A   7      -0.000  -0.000  -0.000  0.00  0.00    +0.190 C 
ATOM     49  N   UNK A   7      -0.000  -0.000  -0.000  0.00  0.00    -0.299 N 
ATOM     50  H   ACE A   5       0.000   0.000   0.000  0.00  0.00    +0.150 HD
ATOM     51  C   UNK A   7      -0.000   0.000   0.000  0.00  0.00    +0.239 C 
ATOM     52  O   ACE A   5      -0.000   0.000   0.000  0.00  0.00    -0.273 OA
ATOM     53  C   UNK A   7      -0.000   0.000   0.000  0.00  0.00    +0.125 A 
ATOM     54  C   UNK A   7      -0.000  -0.000  -0.000  0.00  0.00    +0.052 A 
ATOM     55  N   UNK A   4      -0.000  -0.000  -0.000  0.00  0.00    -0.300 N 
ATOM     56  H   UNK A   4       0.000   0.000   0.000  0.00  0.00    +0.150 HD
ATOM     57  C   UNK A   4      -0.000   0.000   0.000  0.00  0.00    +0.010 A 
ATOM     58  C   UNK A   4      -0.000   0.000   0.000  0.00  0.00    +0.048 A 
ATOM     59  C   UNK A   4      -0.000   0.000   0.000  0.00  0.00    +0.056 A 
ATOM     60  C   UNK A   4      -0.000   0.000   0.000  0.00  0.00    +0.239 C 
ATOM     61  O   UNK A   4      -0.000   0.000   0.000  0.00  0.00    -0.273 OA
ATOM     62  C   UNK A   2      -0.000  -0.000  -0.000  0.00  0.00    +0.174 C 
ENDROOT
BRANCH   1  64
ATOM     63  C   LEU A   1      -0.000  -0.000  -0.000  0.00  0.00    +0.262 C 
ATOM     64  N   UNK A   2      -0.000  -0.000  -0.000  0.00  0.00    -0.297 N 
ATOM     65  H   UNK A   2      -0.000  -0.000  -0.000  0.00  0.00    +0.150 HD
ATOM     66  O   LEU A   1      -0.000  -0.000  -0.000  0.00  0.00    -0.270 OA
BRANCH  63  67
ATOM     67  CA  LEU A   1      -0.000  -0.000  -0.000  0.00  0.00    +0.150 C 
BRANCH  67  69
ATOM     68  C   ACE A   0      -0.000  -0.000  -0.000  0.00  0.00    +0.189 C 
ATOM     69  N   LEU A   1      -0.000  -0.000  -0.000  0.00  0.00    +0.234 N 
ATOM     70  H1  LEU A   1      -0.000  -0.000  -0.000  0.00  0.00    +0.202 HD
ATOM     71  H2  LEU A   1      -0.000  -0.000  -0.000  0.00  0.00    +0.202 HD
ENDBRANCH  67  69
BRANCH  67  72
ATOM     72  CB  LEU A   1      -0.000  -0.000  -0.000  0.00  0.00    +0.067 C 
BRANCH  72  73
ATOM     73  CG  LEU A   1      -0.000  -0.000  -0.000  0.00  0.00    -0.011 C 
ATOM     74  CD2 LEU A   1      -0.000  -0.000  -0.000  0.00  0.00    +0.007 C 
ATOM     75  CD1 LEU A   1      -0.000  -0.000  -0.000  0.00  0.00    +0.007 C 
ENDBRANCH  72  73
ENDBRANCH  67  72
ENDBRANCH  63  67
ENDBRANCH   1  64
BRANCH  62  76
ATOM     76  O   UNK A   2      -0.000  -0.000  -0.000  0.00  0.00    -0.385 OA
ATOM     77  H   UNK A   2       0.000   0.000   0.000  0.00  0.00    +0.210 HD
ENDBRANCH  62  76
BRANCH  37  78
ATOM     78  C   UNK A   7      -0.000  -0.000  -0.000  0.00  0.00    +0.330 C 
ATOM     79  O   UNK A   7      -0.000  -0.000  -0.000  0.00  0.00    -0.249 OA
BRANCH  78  80
ATOM     80  O   UNK A   7      -0.000  -0.000  -0.000  0.00  0.00    -0.479 OA
ATOM     81  H   UNK A   7      -0.000   0.000   0.000  0.00  0.00    +0.295 HD
ENDBRANCH  78  80
ENDBRANCH  37  78
BRANCH  42  82
ATOM     82  O   UNK A   7      -0.000   0.000   0.000  0.00  0.00    -0.507 OA
ATOM     83  H   UNK A   7       0.000   0.000   0.000  0.00  0.00    +0.292 HD
ENDBRANCH  42  82
BRANCH  40  84
ATOM     84  O   UNK A   7      -0.000   0.000   0.000  0.00  0.00    -0.506 OA
ATOM     85  H   UNK A   7       0.000   0.000   0.000  0.00  0.00    +0.292 HD
ENDBRANCH  40  84
BRANCH  53  86
ATOM     86  O   UNK A   7      -0.000   0.000   0.000  0.00  0.00    -0.506 OA
ATOM     87  H   UNK A   7       0.000   0.000   0.000  0.00  0.00    +0.292 HD
ENDBRANCH  53  86
BRANCH  31  88
ATOM     88  O   UNK A   4      -0.000  -0.000  -0.000  0.00  0.00    -0.341 OA
BRANCH  88  89
ATOM     89  C   UNK A   4      -0.000  -0.000  -0.000  0.00  0.00    +0.257 C 
ATOM     90  O   UNK A   4      -0.000  -0.000  -0.000  0.00  0.00    -0.345 OA
ATOM     91  C   UNK A   4      -0.000  -0.000  -0.000  0.00  0.00    +0.152 C 
ATOM     92  C   UNK A   4      -0.000  -0.000  -0.000  0.00  0.00    +0.041 C 
ATOM     93  C   UNK A   4      -0.000  -0.000  -0.000  0.00  0.00    +0.194 C 
ATOM     94  C   UNK A   4      -0.000  -0.000  -0.000  0.00  0.00    +0.017 C 
ATOM     95  C   UNK A   4      -0.000  -0.000  -0.000  0.00  0.00    +0.070 C 
ATOM     96  C   UNK A   4      -0.000  -0.000  -0.000  0.00  0.00    +0.121 C 
BRANCH  94  97
ATOM     97  N   UNK A   4      -0.000  -0.000  -0.000  0.00  0.00    +0.225 N 
ATOM     98  H   UNK A   4      -0.000  -0.000  -0.000  0.00  0.00    +0.200 HD
ATOM     99  H   UNK A   4      -0.000  -0.000  -0.000  0.00  0.00    +0.200 HD
ATOM    100  H   UNK A   4      -0.000  -0.000  -0.000  0.00  0.00    +0.200 HD
ENDBRANCH  94  97
BRANCH  93 101
ATOM    101  O   UNK A   4      -0.000  -0.000  -0.000  0.00  0.00    -0.383 OA
ATOM    102  H   UNK A   4      -0.000  -0.000  -0.000  0.00  0.00    +0.210 HD
ENDBRANCH  93 101
ENDBRANCH  88  89
ENDBRANCH  31  88
BRANCH  15 103
ATOM    103  O   UNK A   4      -0.000   0.000   0.000  0.00  0.00    -0.453 OA
BRANCH 103 104
ATOM    104  C   UNK A   4      -0.000  -0.000  -0.000  0.00  0.00    +0.340 C 
ATOM    105  C   UNK A   4      -0.000  -0.000  -0.000  0.00  0.00    +0.220 C 
ATOM    106  C   UNK A   4      -0.000  -0.000  -0.000  0.00  0.00    +0.180 C 
ATOM    107  C   UNK A   4      -0.000  -0.000  -0.000  0.00  0.00    +0.177 C 
ATOM    108  C   UNK A   4      -0.000   0.000   0.000  0.00  0.00    +0.179 C 
ATOM    109  O   UNK A   4      -0.000  -0.000  -0.000  0.00  0.00    -0.331 OA
BRANCH 106 110
ATOM    110  O   UNK A   4      -0.000  -0.000  -0.000  0.00  0.00    -0.386 OA
ATOM    111  H   UNK A   4      -0.000   0.000   0.000  0.00  0.00    +0.210 HD
ENDBRANCH 106 110
BRANCH 107 112
ATOM    112  O   UNK A   4      -0.000  -0.000  -0.000  0.00  0.00    -0.386 OA
ATOM    113  H   UNK A   4      -0.000   0.000   0.000  0.00  0.00    +0.210 HD
ENDBRANCH 107 112
BRANCH 108 114
ATOM    114  C   UNK A   4      -0.000  -0.000  -0.000  0.00  0.00    +0.190 C 
BRANCH 114 115
ATOM    115  O   UNK A   4      -0.000   0.000   0.000  0.00  0.00    -0.392 OA
ATOM    116  H   UNK A   4      -0.000   0.000   0.000  0.00  0.00    +0.210 HD
ENDBRANCH 114 115
ENDBRANCH 108 114
BRANCH 105 117
ATOM    117  O   UNK A   4      -0.000  -0.000  -0.000  0.00  0.00    -0.339 OA
BRANCH 117 118
ATOM    118  C   UNK A   4      -0.000  -0.000  -0.000  0.00  0.00    +0.257 C 
ATOM    119  O   UNK A   4      -0.000  -0.000  -0.000  0.00  0.00    -0.345 OA
ATOM    120  C   UNK A   4      -0.000  -0.000  -0.000  0.00  0.00    +0.152 C 
ATOM    121  C   UNK A   4      -0.000  -0.000  -0.000  0.00  0.00    +0.041 C 
ATOM    122  C   UNK A   4      -0.000  -0.000  -0.000  0.00  0.00    +0.194 C 
ATOM    123  C   UNK A   4      -0.000  -0.000  -0.000  0.00  0.00    +0.017 C 
ATOM    124  C   UNK A   4      -0.000  -0.000  -0.000  0.00  0.00    +0.070 C 
ATOM    125  C   UNK A   4      -0.000  -0.000  -0.000  0.00  0.00    +0.121 C 
BRANCH 123 126
ATOM    126  N   UNK A   4      -0.000  -0.000  -0.000  0.00  0.00    +0.225 N 
ATOM    127  H   UNK A   4      -0.000  -0.000  -0.000  0.00  0.00    +0.200 HD
ATOM    128  H   UNK A   4      -0.000  -0.000  -0.000  0.00  0.00    +0.200 HD
ATOM    129  H   UNK A   4      -0.000  -0.000  -0.000  0.00  0.00    +0.200 HD
ENDBRANCH 123 126
BRANCH 122 130
ATOM    130  O   UNK A   4      -0.000  -0.000  -0.000  0.00  0.00    -0.383 OA
ATOM    131  H   UNK A   4      -0.000  -0.000  -0.000  0.00  0.00    +0.210 HD
ENDBRANCH 122 130
ENDBRANCH 117 118
ENDBRANCH 105 117
ENDBRANCH 103 104
ENDBRANCH  15 103
BRANCH   6 132
ATOM    132  CB  ASN A   3      -0.000  -0.000  -0.000  0.00  0.00    +0.127 C 
BRANCH 132 133
ATOM    133  CG  ASN A   3      -0.000  -0.000  -0.000  0.00  0.00    +0.213 C 
ATOM    134  OD1 ASN A   3      -0.000  -0.000  -0.000  0.00  0.00    -0.276 OA
ATOM    135  ND2 ASN A   3      -0.000  -0.000  -0.000  0.00  0.00    -0.329 N 
ATOM    136 HD21 ASN A   3      -0.000  -0.000  -0.000  0.00  0.00    +0.145 HD
ATOM    137 HD22 ASN A   3      -0.000  -0.000  -0.000  0.00  0.00    +0.145 HD
ENDBRANCH 132 133
ENDBRANCH   6 132
TORSDOF 27
