REMARK  Name = 
REMARK  11 active torsions:
REMARK  status: ('A' for Active; 'I' for Inactive)
REMARK    1  A    between atoms: C_2  and  C_3
REMARK    2  A    between atoms: C_3  and  C_5
REMARK    3  A    between atoms: C_10  and  C_11
REMARK    4  A    between atoms: C_11  and  C_12
REMARK    5  A    between atoms: C_12  and  C_13
REMARK    6  A    between atoms: C_13  and  O_14
REMARK    7  A    between atoms: C_16  and  C_17
REMARK    8  A    between atoms: C_29  and  C_30
REMARK    9  A    between atoms: C_31  and  C_32
REMARK   10  A    between atoms: C_34  and  C_35
REMARK   11  A    between atoms: C_36  and  C_37
REMARK                            x       y       z     vdW  Elec       q    Type
REMARK                         _______ _______ _______ _____ _____    ______ ____
ROOT
ATOM      1 FE   UNL     1       1.074   0.131  -0.017  0.00  0.00    +0.000 Fe
ENDROOT
TORSDOF 0
REMARK  Name = 
REMARK  11 active torsions:
REMARK  status: ('A' for Active; 'I' for Inactive)
REMARK    1  A    between atoms: C_2  and  C_3
REMARK    2  A    between atoms: C_3  and  C_5
REMARK    3  A    between atoms: C_10  and  C_11
REMARK    4  A    between atoms: C_11  and  C_12
REMARK    5  A    between atoms: C_12  and  C_13
REMARK    6  A    between atoms: C_13  and  O_14
REMARK    7  A    between atoms: C_16  and  C_17
REMARK    8  A    between atoms: C_29  and  C_30
REMARK    9  A    between atoms: C_31  and  C_32
REMARK   10  A    between atoms: C_34  and  C_35
REMARK   11  A    between atoms: C_36  and  C_37
REMARK                            x       y       z     vdW  Elec       q    Type
REMARK                         _______ _______ _______ _____ _____    ______ ____
ROOT
ATOM      1  C   UNL     1       4.709 -10.094  -1.501  0.00  0.00    +0.000 C 
ATOM      2  C   UNL     1       4.868  -9.177  -0.037  0.00  0.00    +0.000 C 
ATOM      3  C   UNL     1       5.207  -7.983   0.676  0.00  0.00    +0.000 A 
ATOM      4  C   UNL     1       5.882  -6.577   0.449  0.00  0.00    +0.000 A 
ATOM      5  C   UNL     1       4.988  -5.648   0.842  0.00  0.00    +0.000 A 
ATOM      6  C   UNL     1       4.052  -6.433   1.682  0.00  0.00    +0.000 A 
ATOM      7  O   UNL     1       2.811  -6.030   1.762  0.00  0.00    +1.000 OA
ATOM      8  C   UNL     1       2.339  -6.290   0.594  0.00  0.00    +0.000 C 
ATOM      9  C   UNL     1       1.840  -7.569   0.187  0.00  0.00    +0.000 C 
ATOM     10  C   UNL     1       2.034  -7.499  -1.140  0.00  0.00    +0.000 C 
ATOM     11  C   UNL     1       2.692  -6.206  -1.475  0.00  0.00    +0.000 C 
ATOM     12  C   UNL     1       3.668  -5.872  -2.365  0.00  0.00    +0.000 C 
ATOM     13  C   UNL     1       4.109  -6.527  -3.629  0.00  0.00    +0.000 A 
ATOM     14  N   UNL     1       3.263  -7.343  -4.243  0.00  0.00    -1.000 NA
ATOM     15  C   UNL     1       4.089  -8.161  -4.868  0.00  0.00    +0.000 A 
ATOM     16  C   UNL     1       5.104  -7.411  -5.410  0.00  0.00    +0.000 A 
ATOM     17  C   UNL     1       4.057  -9.646  -4.761  0.00  0.00    +0.000 C 
ATOM     18  C   UNL     1       4.899 -10.147  -3.822  0.00  0.00    +0.000 C 
ATOM     19  C   UNL     1       5.260  -6.370  -4.455  0.00  0.00    +0.000 A 
ATOM     20  C   UNL     1       6.421  -5.434  -4.400  0.00  0.00    +0.000 C 
ATOM     21  C   UNL     1       1.485  -8.556   1.228  0.00  0.00    +0.000 C 
ATOM     22  N   UNL     1       2.518  -5.401  -0.358  0.00  0.00    +0.000 NA
ATOM     23  C   UNL     1       7.176  -6.042   1.179  0.00  0.00    +0.000 C 
ATOM     24  N   UNL     1       4.509  -7.687   1.835  0.00  0.00    -1.000 NA
ATOM     25  N   UNL     1       5.130  -9.521  -2.603  0.00  0.00    +0.000 NA
ENDROOT
BRANCH   1  27
ATOM     26  C   UNL     1       3.139 -12.081  -2.839  0.00  0.00    +0.000 C 
ATOM     27  C   UNL     1       3.865 -11.568  -1.538  0.00  0.00    +0.000 C 
ATOM     28  C   UNL     1       3.738 -12.492  -0.563  0.00  0.00    +0.000 C 
ENDBRANCH   1  27
BRANCH   5  29
ATOM     29  C   UNL     1       4.799  -4.211   0.638  0.00  0.00    +0.000 C 
ATOM     30  C   UNL     1       4.194  -3.409   1.531  0.00  0.00    +0.000 C 
ENDBRANCH   5  29
BRANCH  10  31
ATOM     31  C   UNL     1       1.708  -8.688  -1.865  0.00  0.00    +0.000 C 
ATOM     32  C   UNL     1       0.947  -8.730  -2.956  0.00  0.00    +0.000 C 
ENDBRANCH  10  31
BRANCH  16  33
ATOM     33  C   UNL     1       5.763  -7.761  -6.708  0.00  0.00    +0.000 C 
BRANCH  33  34
ATOM     34  C   UNL     1       4.655  -7.660  -7.772  0.00  0.00    +0.000 C 
BRANCH  34  35
ATOM     35  C   UNL     1       5.054  -8.084  -9.121  0.00  0.00    +0.000 C 
ATOM     36  O   UNL     1       6.196  -7.971  -9.578  0.00  0.00    +0.000 OA
BRANCH  35  37
ATOM     37  O   UNL     1       4.026  -8.583  -9.846  0.00  0.00    +0.000 OA
ATOM     38  H   UNL     1       3.157  -8.616  -9.403  0.00  0.00    +0.000 HD
ENDBRANCH  35  37
ENDBRANCH  34  35
ENDBRANCH  33  34
ENDBRANCH  16  33
TORSDOF 7
