REMARK  Name = 
REMARK  19 active torsions:
REMARK  status: ('A' for Active; 'I' for Inactive)
REMARK    1  A    between atoms: C_7  and  C_8
REMARK    2  A    between atoms: C_8  and  O_9
REMARK    3  A    between atoms: O_9  and  P_10
REMARK    4  A    between atoms: P_10  and  O_11
REMARK    5  A    between atoms: P_10  and  O_13
REMARK    6  A    between atoms: O_13  and  P_14
REMARK    7  A    between atoms: P_14  and  O_15
REMARK    8  A    between atoms: P_14  and  O_17
REMARK    9  A    between atoms: O_17  and  P_18
REMARK   10  A    between atoms: P_18  and  O_19
REMARK   11  A    between atoms: P_18  and  O_21
REMARK   12  A    between atoms: O_21  and  P_22
REMARK   13  A    between atoms: P_22  and  O_23
REMARK   14  A    between atoms: P_22  and  O_25
REMARK   15  A    between atoms: O_25  and  C_26
REMARK   16  A    between atoms: C_26  and  C_27
REMARK   17  A    between atoms: C_30  and  N_38
REMARK   18  A    between atoms: C_32  and  O_34
REMARK   19  A    between atoms: C_35  and  O_37
REMARK                            x       y       z     vdW  Elec       q    Type
REMARK                         _______ _______ _______ _____ _____    ______ ____
ROOT
ATOM      1  P   UNL     1       3.544  -4.952  -5.139  0.00  0.00    +0.492 P 
ATOM      2  O   UNL     1       2.773  -5.521  -3.993  0.00  0.00    -0.226 OA
ENDROOT
BRANCH   1   3
ATOM      3  O   UNL     1       4.819  -5.825  -5.514  0.00  0.00    -0.302 OA
ATOM      4  H   UNL     1       5.152  -6.486  -4.861  0.00  0.00    +0.222 HD
ENDBRANCH   1   3
BRANCH   1   5
ATOM      5  O   UNL     1       3.991  -3.427  -4.939  0.00  0.00    -0.186 OA
BRANCH   5   6
ATOM      6  P   UNL     1       5.054  -3.286  -3.582  0.00  0.00    +0.483 P 
ATOM      7  O   UNL     1       4.854  -1.767  -3.661  0.00  0.00    -0.227 OA
BRANCH   6   8
ATOM      8  O   UNL     1       6.349  -3.523  -4.548  0.00  0.00    -0.302 OA
ATOM      9  H   UNL     1       6.582  -2.659  -4.938  0.00  0.00    +0.222 HD
ENDBRANCH   6   8
BRANCH   6  10
ATOM     10  O   UNL     1       6.118  -3.144  -2.225  0.00  0.00    -0.284 OA
BRANCH  10  11
ATOM     11  C   UNL     1       5.839  -2.069  -1.322  0.00  0.00    +0.206 C 
BRANCH  11  12
ATOM     12  C   UNL     1       6.781  -2.035  -0.117  0.00  0.00    +0.178 C 
ATOM     13  C   UNL     1       6.822  -3.347   0.652  0.00  0.00    +0.178 C 
ATOM     14  C   UNL     1       8.137  -4.012   0.250  0.00  0.00    +0.195 C 
ATOM     15  C   UNL     1       8.784  -3.038  -0.737  0.00  0.00    +0.253 C 
ATOM     16  O   UNL     1       8.140  -1.766  -0.522  0.00  0.00    -0.346 OA
BRANCH  15  17
ATOM     17  N   UNL     1      10.227  -2.891  -0.576  0.00  0.00    -0.286 N 
ATOM     18  C   UNL     1      11.170  -3.893  -0.583  0.00  0.00    +0.167 A 
ATOM     19  N   UNL     1      10.988  -5.226  -0.479  0.00  0.00    -0.216 NA
ATOM     20  C   UNL     1      12.195  -5.863  -0.427  0.00  0.00    +0.225 A 
ATOM     21  N   UNL     1      13.414  -5.369  -0.675  0.00  0.00    -0.219 NA
ATOM     22  C   UNL     1      13.538  -4.037  -0.816  0.00  0.00    +0.147 A 
ATOM     23  N   UNL     1      14.829  -3.558  -1.000  0.00  0.00    -0.341 N 
ATOM     24  H   UNL     1      14.982  -2.673  -0.532  0.00  0.00    +0.144 HD
ATOM     25  H   UNL     1      15.500  -4.293  -0.808  0.00  0.00    +0.144 HD
ATOM     26  C   UNL     1      12.390  -3.233  -0.684  0.00  0.00    +0.147 A 
ATOM     27  N   UNL     1      12.212  -1.872  -0.593  0.00  0.00    -0.231 NA
ATOM     28  C   UNL     1      10.912  -1.707  -0.466  0.00  0.00    +0.203 A 
ENDBRANCH  15  17
BRANCH  14  29
ATOM     29  O   UNL     1       7.927  -5.296  -0.348  0.00  0.00    -0.385 OA
ATOM     30  H   UNL     1       8.805  -5.717  -0.361  0.00  0.00    +0.210 HD
ENDBRANCH  14  29
BRANCH  13  31
ATOM     31  O   UNL     1       6.844  -3.066   2.063  0.00  0.00    -0.386 OA
ATOM     32  H   UNL     1       7.501  -2.367   2.234  0.00  0.00    +0.210 HD
ENDBRANCH  13  31
ENDBRANCH  11  12
ENDBRANCH  10  11
ENDBRANCH   6  10
ENDBRANCH   5   6
ENDBRANCH   1   5
BRANCH   1  33
ATOM     33  O   UNL     1       2.775  -4.857  -6.509  0.00  0.00    -0.186 OA
BRANCH  33  34
ATOM     34  P   UNL     1       3.367  -5.631  -7.938  0.00  0.00    +0.492 P 
ATOM     35  O   UNL     1       2.251  -4.974  -8.759  0.00  0.00    -0.226 OA
BRANCH  34  36
ATOM     36  O   UNL     1       4.594  -4.551  -8.062  0.00  0.00    -0.302 OA
ATOM     37  H   UNL     1       4.302  -3.830  -8.649  0.00  0.00    +0.222 HD
ENDBRANCH  34  36
BRANCH  34  38
ATOM     38  O   UNL     1       3.959  -6.405  -9.368  0.00  0.00    -0.186 OA
BRANCH  38  39
ATOM     39  P   UNL     1       4.513  -7.874  -9.506  0.00  0.00    +0.484 P 
ATOM     40  O   UNL     1       4.974  -8.290 -10.866  0.00  0.00    -0.227 OA
BRANCH  39  41
ATOM     41  O   UNL     1       3.402  -8.854  -8.913  0.00  0.00    -0.302 OA
ATOM     42  H   UNL     1       3.658  -9.773  -9.125  0.00  0.00    +0.222 HD
ENDBRANCH  39  41
BRANCH  39  43
ATOM     43  O   UNL     1       5.643  -7.988  -8.396  0.00  0.00    -0.280 OA
BRANCH  43  44
ATOM     44  C   UNL     1       6.954  -7.925  -8.903  0.00  0.00    +0.224 C 
BRANCH  44  55
ATOM     45  N   UNL     1      11.013  -7.118  -2.584  0.00  0.00    -0.329 N 
ATOM     46  H   UNL     1      10.743  -6.372  -1.972  0.00  0.00    +0.145 HD
ATOM     47  H   UNL     1      11.953  -6.942  -2.966  0.00  0.00    +0.145 HD
ATOM     48  C   UNL     1      10.151  -7.157  -3.600  0.00  0.00    +0.195 A 
ATOM     49  N   UNL     1       8.840  -7.030  -3.279  0.00  0.00    -0.293 N 
ATOM     50  H   UNL     1       8.541  -6.974  -2.317  0.00  0.00    +0.172 HD
ATOM     51  C   UNL     1       7.865  -7.088  -4.218  0.00  0.00    +0.280 A 
ATOM     52  O   UNL     1       6.666  -7.051  -3.930  0.00  0.00    -0.265 OA
ATOM     53  C   UNL     1       8.367  -7.223  -5.622  0.00  0.00    +0.168 A 
ATOM     54  N   UNL     1       7.445  -7.383  -6.619  0.00  0.00    -0.244 NA
ATOM     55  C   UNL     1       7.908  -7.658  -7.792  0.00  0.00    +0.063 C 
ATOM     56  C   UNL     1       9.386  -7.780  -8.163  0.00  0.00    +0.156 C 
ATOM     57  N   UNL     1      10.218  -7.328  -7.095  0.00  0.00    -0.322 N 
ATOM     58  H   UNL     1      11.184  -7.642  -7.079  0.00  0.00    +0.148 HD
ATOM     59  C   UNL     1       9.708  -7.245  -5.810  0.00  0.00    +0.154 A 
ATOM     60  N   UNL     1      10.613  -7.239  -4.801  0.00  0.00    -0.199 NA
ENDBRANCH  44  55
ENDBRANCH  43  44
ENDBRANCH  39  43
ENDBRANCH  38  39
ENDBRANCH  34  38
ENDBRANCH  33  34
ENDBRANCH   1  33
TORSDOF 19
