REMARK  Name = 
REMARK  19 active torsions:
REMARK  status: ('A' for Active; 'I' for Inactive)
REMARK    1  A    between atoms: C_8  and  O_12
REMARK    2  A    between atoms: O_12  and  C_13
REMARK    3  A    between atoms: N_15  and  C_16
REMARK    4  A    between atoms: C_16  and  C_18
REMARK    5  A    between atoms: C_16  and  C_33
REMARK    6  A    between atoms: C_18  and  C_19
REMARK    7  A    between atoms: C_22  and  O_23
REMARK    8  A    between atoms: O_23  and  C_24
REMARK    9  A    between atoms: C_24  and  C_25
REMARK   10  A    between atoms: C_28  and  C_29
REMARK   11  A    between atoms: C_33  and  O_35
REMARK   12  A    between atoms: C_33  and  C_36
REMARK   13  A    between atoms: C_36  and  N_37
REMARK   14  A    between atoms: N_37  and  C_38
REMARK   15  A    between atoms: N_37  and  S_42
REMARK   16  A    between atoms: C_38  and  C_39
REMARK   17  A    between atoms: C_39  and  C_40
REMARK   18  A    between atoms: C_39  and  C_41
REMARK   19  A    between atoms: S_42  and  C_45
REMARK                            x       y       z     vdW  Elec       q    Type
REMARK                         _______ _______ _______ _____ _____    ______ ____
ROOT
ATOM      1  C   UNL     1       3.033  -5.856   3.598  0.00  0.00    +0.110 C 
ENDROOT
BRANCH   1   3
ATOM      2  C   UNL     1       3.925  -5.997   5.967  0.00  0.00    +0.401 C 
ATOM      3  N   UNL     1       2.933  -6.154   5.041  0.00  0.00    -0.275 N 
ATOM      4  H   UNL     1       2.012  -6.116   5.458  0.00  0.00    +0.152 HD
ATOM      5  O   UNL     1       5.107  -5.821   5.723  0.00  0.00    -0.226 OA
BRANCH   2   6
ATOM      6  O   UNL     1       3.376  -6.035   7.211  0.00  0.00    -0.444 OA
BRANCH   6  10
ATOM      7  C   UNL     1       5.353  -6.749  10.177  0.00  0.00    +0.257 C 
ATOM      8  O   UNL     1       4.128  -6.220  10.690  0.00  0.00    -0.347 OA
ATOM      9  C   UNL     1       3.444  -5.560   9.614  0.00  0.00    +0.208 C 
ATOM     10  C   UNL     1       4.247  -5.772   8.326  0.00  0.00    +0.212 C 
ATOM     11  C   UNL     1       5.157  -6.925   8.691  0.00  0.00    +0.090 C 
ATOM     12  C   UNL     1       4.561  -8.317   8.586  0.00  0.00    +0.040 C 
ATOM     13  C   UNL     1       4.916  -8.990   9.901  0.00  0.00    +0.163 C 
ATOM     14  O   UNL     1       5.626  -8.042  10.701  0.00  0.00    -0.351 OA
ENDBRANCH   6  10
ENDBRANCH   2   6
ENDBRANCH   1   3
BRANCH   1  15
ATOM     15  C   UNL     1       3.827  -6.897   2.752  0.00  0.00    +0.151 C 
BRANCH  15  16
ATOM     16  O   UNL     1       3.710  -6.535   1.363  0.00  0.00    -0.389 OA
ATOM     17  H   UNL     1       3.794  -7.354   0.839  0.00  0.00    +0.210 HD
ENDBRANCH  15  16
BRANCH  15  18
ATOM     18  C   UNL     1       3.300  -8.334   2.918  0.00  0.00    +0.142 C 
BRANCH  18  19
ATOM     19  N   UNL     1       4.125  -9.412   2.159  0.00  0.00    -0.174 NA
BRANCH  19  20
ATOM     20  S   UNL     1       3.314 -10.962   2.358  0.00  0.00    +0.061 S 
ATOM     21  O   UNL     1       2.934 -11.064   3.752  0.00  0.00    -0.153 OA
ATOM     22  O   UNL     1       4.101 -11.989   1.715  0.00  0.00    -0.153 OA
BRANCH  20  23
ATOM     23  C   UNL     1       1.813 -10.819   1.388  0.00  0.00    +0.109 A 
ATOM     24  C   UNL     1       0.548 -10.988   1.994  0.00  0.00    +0.032 A 
ATOM     25  C   UNL     1      -0.608 -11.020   1.200  0.00  0.00    +0.051 A 
ATOM     26  C   UNL     1      -0.466 -10.873  -0.165  0.00  0.00    +0.166 A 
ATOM     27  O   UNL     1      -1.456 -10.925  -1.087  0.00  0.00    -0.453 OA
ATOM     28  C   UNL     1      -0.715 -10.748  -2.309  0.00  0.00    +0.466 C 
ATOM     29  O   UNL     1       0.706 -10.629  -2.100  0.00  0.00    -0.453 OA
ATOM     30  C   UNL     1       0.778 -10.716  -0.743  0.00  0.00    +0.168 A 
ATOM     31  C   UNL     1       1.938 -10.680  -0.002  0.00  0.00    +0.078 A 
ENDBRANCH  20  23
ENDBRANCH  19  20
BRANCH  19  32
ATOM     32  C   UNL     1       5.563  -9.418   2.679  0.00  0.00    +0.112 C 
BRANCH  32  33
ATOM     33  C   UNL     1       6.624 -10.375   2.081  0.00  0.00    -0.001 C 
ATOM     34  C   UNL     1       7.967 -10.081   2.787  0.00  0.00    +0.008 C 
ATOM     35  C   UNL     1       6.891 -10.276   0.576  0.00  0.00    +0.008 C 
ENDBRANCH  32  33
ENDBRANCH  19  32
ENDBRANCH  18  19
ENDBRANCH  15  18
ENDBRANCH   1  15
BRANCH   1  36
ATOM     36  C   UNL     1       3.593  -4.440   3.296  0.00  0.00    +0.060 C 
BRANCH  36  37
ATOM     37  C   UNL     1       2.986  -3.344   4.132  0.00  0.00    -0.045 A 
ATOM     38  C   UNL     1       1.620  -3.048   4.080  0.00  0.00    +0.007 A 
ATOM     39  C   UNL     1       1.084  -2.086   4.935  0.00  0.00    +0.046 A 
ATOM     40  C   UNL     1       1.910  -1.398   5.825  0.00  0.00    +0.121 A 
ATOM     41  C   UNL     1       3.274  -1.675   5.860  0.00  0.00    +0.046 A 
ATOM     42  C   UNL     1       3.811  -2.631   5.008  0.00  0.00    +0.007 A 
BRANCH  40  43
ATOM     43  O   UNL     1       1.282  -0.490   6.626  0.00  0.00    -0.486 OA
BRANCH  43  44
ATOM     44  C   UNL     1       2.131   0.511   7.201  0.00  0.00    +0.285 C 
BRANCH  44  45
ATOM     45  C   UNL     1       1.332   1.683   7.666  0.00  0.00    +0.086 A 
ATOM     46  N   UNL     1       1.841   2.493   8.672  0.00  0.00    -0.246 NA
ATOM     47  C   UNL     1       1.001   3.477   8.915  0.00  0.00    +0.076 A 
ATOM     48  C   UNL     1       1.233   4.536   9.934  0.00  0.00    +0.073 C 
ATOM     49  S   UNL     1      -0.425   3.491   7.959  0.00  0.00    -0.080 S 
ATOM     50  C   UNL     1       0.111   2.084   7.157  0.00  0.00    +0.073 A 
ENDBRANCH  44  45
ENDBRANCH  43  44
ENDBRANCH  40  43
ENDBRANCH  36  37
ENDBRANCH   1  36
TORSDOF 16
