REMARK  Name = 
REMARK  1 active torsions:
REMARK  status: ('A' for Active; 'I' for Inactive)
REMARK    1  A    between atoms: O_1  and  C_2
REMARK                            x       y       z     vdW  Elec       q    Type
REMARK                         _______ _______ _______ _____ _____    ______ ____
ROOT
ATOM      1  C   UNL     1       2.367   0.104   0.016  0.00  0.00    +0.131 A 
ATOM      2  C   UNL     1       3.082  -1.094  -0.053  0.00  0.00    +0.059 A 
ATOM      3 BR   UNL     1       2.210  -2.776   0.015  0.00  0.00    -0.047 Br
ATOM      4  C   UNL     1       4.473  -1.069  -0.175  0.00  0.00    +0.019 A 
ATOM      5  C   UNL     1       5.147   0.153  -0.227  0.00  0.00    +0.001 A 
ATOM      6  C   UNL     1       4.431   1.348  -0.157  0.00  0.00    +0.004 A 
ATOM      7  C   UNL     1       3.040   1.326  -0.035  0.00  0.00    +0.046 A 
ENDROOT
BRANCH   1   8
ATOM      8  O   UNL     1       1.005   0.085   0.134  0.00  0.00    -0.506 OA
ATOM      9  H   UNL     1       0.673   0.996   0.154  0.00  0.00    +0.292 HD
ENDBRANCH   1   8
TORSDOF 1
