REMARK  Name = 
REMARK  2 active torsions:
REMARK  status: ('A' for Active; 'I' for Inactive)
REMARK    1  A    between atoms: O_1  and  C_2
REMARK    2  A    between atoms: C_2  and  C_3
REMARK                            x       y       z     vdW  Elec       q    Type
REMARK                         _______ _______ _______ _____ _____    ______ ____
ROOT
ATOM      1  C   UNL     1       2.864  -0.984   1.086  0.00  0.00    -0.004 A 
ATOM      2  C   UNL     1       2.378  -2.284   0.978  0.00  0.00    +0.116 A 
ATOM      3  N   UNL     1       2.742  -3.307   1.785  0.00  0.00    -0.263 NA
ATOM      4  C   UNL     1       3.643  -3.024   2.750  0.00  0.00    +0.111 A 
ATOM      5  C   UNL     1       4.200  -1.771   2.938  0.00  0.00    +0.020 A 
ATOM      6  C   UNL     1       3.808  -0.741   2.088  0.00  0.00    +0.009 A 
ENDROOT
BRANCH   1   7
ATOM      7  C   UNL     1       2.432   0.068   0.109  0.00  0.00    +0.192 C 
BRANCH   7   8
ATOM      8  O   UNL     1       2.505   1.364   0.690  0.00  0.00    -0.390 OA
ATOM      9  H   UNL     1       2.199   1.991   0.014  0.00  0.00    +0.210 HD
ENDBRANCH   7   8
ENDBRANCH   1   7
TORSDOF 2
