REMARK  Name = 
REMARK  9 active torsions:
REMARK  status: ('A' for Active; 'I' for Inactive)
REMARK    1  A    between atoms: C_2  and  C_3
REMARK    2  A    between atoms: C_2  and  N_4
REMARK    3  A    between atoms: C_2  and  C_28
REMARK    4  A    between atoms: C_5  and  C_7
REMARK    5  A    between atoms: C_7  and  C_8
REMARK    6  A    between atoms: C_11  and  N_12
REMARK    7  A    between atoms: N_12  and  C_13
REMARK    8  A    between atoms: C_13  and  C_14
REMARK    9  A    between atoms: C_14  and  C_17
REMARK                            x       y       z     vdW  Elec       q    Type
REMARK                         _______ _______ _______ _____ _____    ______ ____
ROOT
ATOM      1  C   UNL     1       2.197   3.047   3.834  0.00  0.00    +0.224 A 
ATOM      2  C   UNL     1       3.051   4.151   3.707  0.00  0.00    +0.109 A 
ATOM      3 CL   UNL     1       4.633   4.026   3.025  0.00  0.00    -0.077 Cl
ATOM      4  C   UNL     1       2.640   5.409   4.114  0.00  0.00    +0.034 A 
ATOM      5  C   UNL     1       1.382   5.583   4.668  0.00  0.00    +0.099 A 
ATOM      6  C   UNL     1       0.492   4.504   4.818  0.00  0.00    +0.283 A 
ATOM      7  N   UNL     1       0.921   3.214   4.397  0.00  0.00    -0.153 N 
ATOM      8  O   UNL     1       0.130   2.203   4.518  0.00  0.00    -0.618 OA
ENDROOT
BRANCH   6   9
ATOM      9  N   UNL     1      -0.782   4.681   5.407  0.00  0.00    -0.284 N 
ATOM     10  H   UNL     1      -1.425   3.914   5.201  0.00  0.00    +0.152 HD
BRANCH   9  11
ATOM     11  C   UNL     1      -1.279   6.061   5.584  0.00  0.00    +0.194 C 
BRANCH  11  12
ATOM     12  C   UNL     1      -2.700   6.274   6.163  0.00  0.00    +0.347 C 
ATOM     13  F   UNL     1      -2.876   5.353   7.169  0.00  0.00    -0.192 F 
ATOM     14  F   UNL     1      -3.614   5.909   5.210  0.00  0.00    -0.192 F 
BRANCH  12  15
ATOM     15  C   UNL     1      -2.992   7.669   6.686  0.00  0.00    +0.266 A 
ATOM     16  C   UNL     1      -3.926   7.870   7.727  0.00  0.00    +0.081 A 
ATOM     17  C   UNL     1      -4.198   9.150   8.207  0.00  0.00    +0.012 A 
ATOM     18  C   UNL     1      -3.552  10.248   7.659  0.00  0.00    +0.071 A 
ATOM     19  C   UNL     1      -2.651  10.043   6.623  0.00  0.00    +0.322 A 
ATOM     20  N   UNL     1      -2.367   8.773   6.124  0.00  0.00    -0.169 N 
ATOM     21  O   UNL     1      -1.526   8.680   5.180  0.00  0.00    -0.619 OA
ENDBRANCH  12  15
ENDBRANCH  11  12
ENDBRANCH   9  11
ENDBRANCH   6   9
BRANCH   1  22
ATOM     22  C   UNL     1       2.590   1.660   3.417  0.00  0.00    +0.205 C 
BRANCH  22  25
ATOM     23  N   UNL     1       2.708  -0.363   4.751  0.00  0.00    -0.308 N 
ATOM     24  H   UNL     1       1.763  -0.511   4.419  0.00  0.00    +0.149 HD
ATOM     25  C   UNL     1       3.253   0.888   4.542  0.00  0.00    +0.224 C 
ATOM     26  O   UNL     1       4.215   1.321   5.168  0.00  0.00    -0.275 OA
BRANCH  23  27
ATOM     27  C   UNL     1       3.160  -1.214   5.842  0.00  0.00    +0.100 C 
ATOM     28  C   UNL     1       2.866  -2.679   5.523  0.00  0.00    +0.033 C 
BRANCH  27  29
ATOM     29  C   UNL     1       2.546  -0.808   7.170  0.00  0.00    -0.026 A 
ATOM     30  C   UNL     1       3.310  -0.916   8.345  0.00  0.00    +0.025 A 
ATOM     31  C   UNL     1       2.785  -0.508   9.571  0.00  0.00    +0.041 A 
ATOM     32 CL   UNL     1       3.745  -0.628  10.994  0.00  0.00    -0.084 Cl
ATOM     33  C   UNL     1       1.493   0.005   9.651  0.00  0.00    +0.020 A 
ATOM     34  C   UNL     1       0.714   0.097   8.500  0.00  0.00    +0.002 A 
ATOM     35  C   UNL     1       1.234  -0.314   7.269  0.00  0.00    +0.005 A 
ENDBRANCH  27  29
ENDBRANCH  23  27
ENDBRANCH  22  25
ENDBRANCH   1  22
TORSDOF 8
