REMARK  Name = 
REMARK  8 active torsions:
REMARK  status: ('A' for Active; 'I' for Inactive)
REMARK    1  A    between atoms: C_1  and  N_2
REMARK    2  A    between atoms: N_2  and  C_3
REMARK    3  A    between atoms: C_7  and  O_9
REMARK    4  A    between atoms: O_9  and  C_10
REMARK    5  A    between atoms: C_10  and  C_12
REMARK    6  A    between atoms: C_12  and  O_13
REMARK    7  A    between atoms: C_12  and  C_14
REMARK    8  A    between atoms: C_12  and  C_20
REMARK                            x       y       z     vdW  Elec       q    Type
REMARK                         _______ _______ _______ _____ _____    ______ ____
ROOT
ATOM      1  C   UNL     1       7.025  -3.673   2.548  0.00  0.00    +0.213 C 
ENDROOT
BRANCH   1   2
ATOM      2  C   UNL     1       8.447  -3.378   3.057  0.00  0.00    -0.001 A 
ATOM      3  C   UNL     1       9.492  -3.074   2.161  0.00  0.00    +0.007 A 
ATOM      4  C   UNL     1      10.747  -2.658   2.617  0.00  0.00    +0.000 A 
ATOM      5  C   UNL     1      10.996  -2.561   3.983  0.00  0.00    +0.000 A 
ATOM      6  C   UNL     1      10.000  -2.899   4.889  0.00  0.00    +0.000 A 
ATOM      7  C   UNL     1       8.741  -3.303   4.434  0.00  0.00    +0.007 A 
ENDBRANCH   1   2
BRANCH   1   8
ATOM      8  C   UNL     1       6.907  -4.934   1.680  0.00  0.00    -0.001 A 
ATOM      9  C   UNL     1       6.631  -6.187   2.262  0.00  0.00    +0.007 A 
ATOM     10  C   UNL     1       6.411  -7.317   1.469  0.00  0.00    +0.000 A 
ATOM     11  C   UNL     1       6.497  -7.225   0.083  0.00  0.00    +0.000 A 
ATOM     12  C   UNL     1       6.830  -6.011  -0.510  0.00  0.00    +0.000 A 
ATOM     13  C   UNL     1       7.040  -4.879   0.279  0.00  0.00    +0.007 A 
ENDBRANCH   1   8
BRANCH   1  14
ATOM     14  C   UNL     1       6.468  -2.423   1.779  0.00  0.00    +0.349 C 
ATOM     15  O   UNL     1       7.129  -1.652   1.085  0.00  0.00    -0.247 OA
BRANCH  14  16
ATOM     16  O   UNL     1       5.105  -2.264   1.946  0.00  0.00    -0.453 OA
BRANCH  16  20
ATOM     17  C   UNL     1       1.151   0.550   0.933  0.00  0.00    +0.192 C 
ATOM     18  N   UNL     1       2.680   0.567   1.052  0.00  0.00    +0.242 N 
ATOM     19  C   UNL     1       3.176  -0.886   1.273  0.00  0.00    +0.178 C 
ATOM     20  C   UNL     1       4.669  -0.931   1.631  0.00  0.00    +0.222 C 
ATOM     21  C   UNL     1       4.937  -0.061   2.858  0.00  0.00    +0.055 C 
ATOM     22  C   UNL     1       4.520   1.374   2.601  0.00  0.00    +0.055 C 
ATOM     23  C   UNL     1       3.045   1.466   2.245  0.00  0.00    +0.133 C 
ATOM     24  C   UNL     1       3.230   1.144  -0.255  0.00  0.00    +0.192 C 
ENDBRANCH  16  20
ENDBRANCH  14  16
ENDBRANCH   1  14
BRANCH   1  25
ATOM     25  O   UNL     1       6.151  -3.828   3.695  0.00  0.00    -0.370 OA
ATOM     26  H   UNL     1       5.332  -4.233   3.361  0.00  0.00    +0.212 HD
ENDBRANCH   1  25
TORSDOF 6
