REMARK  Name = 
REMARK  6 active torsions:
REMARK  status: ('A' for Active; 'I' for Inactive)
REMARK    1  A    between atoms: C4*_2  and  C5*_3
REMARK    2  A    between atoms: C5*_3  and  O5*_4
REMARK    3  A    between atoms: C1*_6  and  N_8
REMARK    4  A    between atoms: C_13  and  N_14
REMARK    5  A    between atoms: C2*_19  and  O2*_21
REMARK    6  A    between atoms: C3*_22  and  O3*_24
REMARK                            x       y       z     vdW  Elec       q    Type
REMARK                         _______ _______ _______ _____ _____    ______ ____
ROOT
ATOM      1  N   UNL     1       4.401   1.300   2.560  0.00  0.00    -0.302 N 
ATOM      2  C   UNL     1       5.441   0.929   3.394  0.00  0.00    +0.149 A 
ATOM      3  C   UNL     1       5.678   1.976   4.288  0.00  0.00    +0.071 A 
ATOM      4  C   UNL     1       6.712   1.783   5.216  0.00  0.00    +0.130 A 
ATOM      5  N   UNL     1       7.376   0.612   5.216  0.00  0.00    -0.220 NA
ATOM      6  C   UNL     1       7.045  -0.315   4.299  0.00  0.00    +0.225 A 
ATOM      7  C   UNL     1       4.746   2.992   3.958  0.00  0.00    +0.044 A 
ATOM      8  I   UNL     1       4.527   4.817   4.821  0.00  0.00    -0.041 I 
ATOM      9  N   UNL     1       6.109  -0.236   3.334  0.00  0.00    -0.218 NA
ATOM     10  C   UNL     1       3.979   2.569   2.904  0.00  0.00    +0.105 A 
ENDROOT
BRANCH   1  14
ATOM     11  C4* UNL     1       2.087  -0.049   0.189  0.00  0.00    +0.177 C 
ATOM     12  C3* UNL     1       2.683  -1.369   0.667  0.00  0.00    +0.178 C 
ATOM     13  C2* UNL     1       3.924  -0.961   1.468  0.00  0.00    +0.195 C 
ATOM     14  C1* UNL     1       3.937   0.572   1.387  0.00  0.00    +0.252 C 
ATOM     15  O4* UNL     1       2.574   0.956   1.096  0.00  0.00    -0.346 OA
BRANCH  12  16
ATOM     16  O3* UNL     1       3.006  -2.201  -0.447  0.00  0.00    -0.386 OA
ATOM     17  H3* UNL     1       3.973  -2.357  -0.386  0.00  0.00    +0.210 HD
ENDBRANCH  12  16
BRANCH  13  18
ATOM     18  O2* UNL     1       5.099  -1.553   0.893  0.00  0.00    -0.385 OA
ATOM     19  H2* UNL     1       5.827  -1.345   1.518  0.00  0.00    +0.210 HD
ENDBRANCH  13  18
BRANCH  11  20
ATOM     20  C5* UNL     1       0.561  -0.034   0.153  0.00  0.00    +0.190 C 
BRANCH  20  21
ATOM     21  O5* UNL     1       0.012  -0.226   1.456  0.00  0.00    -0.392 OA
ATOM     22  H5* UNL     1       0.266   0.559   1.975  0.00  0.00    +0.210 HD
ENDBRANCH  20  21
ENDBRANCH  11  20
ENDBRANCH   1  14
BRANCH   4  23
ATOM     23  N   UNL     1       7.115   2.730   6.145  0.00  0.00    -0.343 N 
ATOM     24  H   UNL     1       7.661   2.320   6.893  0.00  0.00    +0.144 HD
ATOM     25  H   UNL     1       6.425   3.425   6.394  0.00  0.00    +0.144 HD
ENDBRANCH   4  23
TORSDOF 6
