REMARK  Name = 
REMARK  11 active torsions:
REMARK  status: ('A' for Active; 'I' for Inactive)
REMARK    1  A    between atoms: O_1  and  C_2
REMARK    2  A    between atoms: C_2  and  C_4
REMARK    3  A    between atoms: C_7  and  N_8
REMARK    4  A    between atoms: C_9  and  C_11
REMARK    5  A    between atoms: C_11  and  C_12
REMARK    6  A    between atoms: C_12  and  C_13
REMARK    7  A    between atoms: C_13  and  C_14
REMARK    8  A    between atoms: C_14  and  C_15
REMARK    9  A    between atoms: N_17  and  C_18
REMARK   10  A    between atoms: C_24  and  C_25
REMARK   11  A    between atoms: C_25  and  O_26
REMARK                            x       y       z     vdW  Elec       q    Type
REMARK                         _______ _______ _______ _____ _____    ______ ____
ROOT
ATOM      1  C   UNL     1       7.574  -2.180  -6.705  0.00  0.00    +0.010 C 
ENDROOT
BRANCH   1   2
ATOM      2  C   UNL     1       6.962  -1.116  -5.790  0.00  0.00    +0.096 C 
BRANCH   2   5
ATOM      3  N   UNL     1       4.731  -1.862  -5.153  0.00  0.00    -0.284 N 
ATOM      4  H   UNL     1       4.615  -1.893  -6.162  0.00  0.00    +0.155 HD
ATOM      5  C   UNL     1       6.055  -1.777  -4.758  0.00  0.00    +0.217 C 
ATOM      6  O   UNL     1       6.520  -2.268  -3.732  0.00  0.00    -0.275 OA
BRANCH   3  13
ATOM      7  C   UNL     1       2.045  -4.406  -4.454  0.00  0.00    +0.087 A 
ATOM      8  C   UNL     1       1.711  -4.075  -3.127  0.00  0.00    +0.029 A 
ATOM      9  I   UNL     1       0.125  -4.944  -2.039  0.00  0.00    -0.043 I 
ATOM     10  C   UNL     1       2.400  -3.055  -2.457  0.00  0.00    +0.031 A 
ATOM     11  C   UNL     1       3.403  -2.317  -3.099  0.00  0.00    +0.037 A 
ATOM     12  I   UNL     1       4.110  -0.646  -2.017  0.00  0.00    -0.042 I 
ATOM     13  C   UNL     1       3.758  -2.612  -4.427  0.00  0.00    +0.061 A 
ATOM     14  C   UNL     1       3.062  -3.658  -5.099  0.00  0.00    +0.051 A 
ATOM     15  I   UNL     1       3.714  -4.141  -7.101  0.00  0.00    -0.041 I 
BRANCH   7  16
ATOM     16  C   UNL     1       1.310  -5.473  -5.186  0.00  0.00    +0.339 C 
ATOM     17  O   UNL     1       0.855  -5.325  -6.308  0.00  0.00    -0.245 OA
BRANCH  16  18
ATOM     18  O   UNL     1       1.230  -6.650  -4.529  0.00  0.00    -0.477 OA
ATOM     19  H   UNL     1       1.435  -6.618  -3.575  0.00  0.00    +0.295 HD
ENDBRANCH  16  18
ENDBRANCH   7  16
ENDBRANCH   3  13
ENDBRANCH   2   5
ENDBRANCH   1   2
BRANCH   1  20
ATOM     20  C   UNL     1       8.508  -1.639  -7.791  0.00  0.00    +0.010 C 
BRANCH  20  21
ATOM     21  C   UNL     1       9.818  -1.033  -7.277  0.00  0.00    +0.096 C 
BRANCH  21  22
ATOM     22  C   UNL     1      10.711  -0.615  -8.439  0.00  0.00    +0.217 C 
ATOM     23  N   UNL     1      12.059  -0.552  -8.104  0.00  0.00    -0.284 N 
ATOM     24  H   UNL     1      12.230  -0.246  -7.151  0.00  0.00    +0.155 HD
ATOM     25  O   UNL     1      10.257  -0.293  -9.533  0.00  0.00    -0.275 OA
BRANCH  23  26
ATOM     26  C   UNL     1      13.049  -0.176  -9.060  0.00  0.00    +0.061 A 
ATOM     27  C   UNL     1      13.933   0.899  -8.766  0.00  0.00    +0.051 A 
ATOM     28  I   UNL     1      13.597   1.954  -6.912  0.00  0.00    -0.041 I 
ATOM     29  C   UNL     1      14.928   1.315  -9.694  0.00  0.00    +0.087 A 
ATOM     30  C   UNL     1      15.016   0.636 -10.924  0.00  0.00    +0.029 A 
ATOM     31  I   UNL     1      16.446   1.027 -12.432  0.00  0.00    -0.043 I 
ATOM     32  C   UNL     1      14.161  -0.436 -11.208  0.00  0.00    +0.031 A 
ATOM     33  C   UNL     1      13.211  -0.864 -10.275  0.00  0.00    +0.037 A 
ATOM     34  I   UNL     1      12.286  -2.715 -10.727  0.00  0.00    -0.042 I 
BRANCH  29  35
ATOM     35  C   UNL     1      15.901   2.385  -9.326  0.00  0.00    +0.339 C 
ATOM     36  O   UNL     1      16.458   2.433  -8.244  0.00  0.00    -0.245 OA
BRANCH  35  37
ATOM     37  O   UNL     1      16.097   3.330 -10.269  0.00  0.00    -0.477 OA
ATOM     38  H   UNL     1      15.776   3.112 -11.165  0.00  0.00    +0.295 HD
ENDBRANCH  35  37
ENDBRANCH  29  35
ENDBRANCH  23  26
ENDBRANCH  21  22
ENDBRANCH  20  21
ENDBRANCH   1  20
TORSDOF 11
