REMARK  Name = 
REMARK  6 active torsions:
REMARK  status: ('A' for Active; 'I' for Inactive)
REMARK    1  A    between atoms: N_4  and  CA_5
REMARK    2  A    between atoms: CA_5  and  CB_7
REMARK    3  A    between atoms: CA_5  and  C_11
REMARK    4  A    between atoms: CB_7  and  CG_8
REMARK    5  A    between atoms: CG_8  and  OD1_9
REMARK    6  A    between atoms: C_11  and  O_12
REMARK                            x       y       z     vdW  Elec       q    Type
REMARK                         _______ _______ _______ _____ _____    ______ ____
ROOT
ATOM      1  CA  ASP A   1       4.518  -0.586  -1.034  0.00  0.00    +0.193 C 
ENDROOT
BRANCH   1   6
ATOM      2  N   UNK A   0       1.029   0.262  -1.538  0.00  0.00    -0.313 N 
ATOM      3  H   UNK A   0       0.619  -0.662  -1.516  0.00  0.00    +0.146 HD
ATOM      4  H   UNK A   0       0.498   0.926  -2.090  0.00  0.00    +0.146 HD
ATOM      5  C   UNK A   0       2.361   0.328  -1.732  0.00  0.00    +0.298 C 
ATOM      6  N   ASP A   1       3.055  -0.625  -1.055  0.00  0.00    -0.286 N 
ATOM      7  H   ASP A   1       2.571  -1.002  -0.248  0.00  0.00    +0.151 HD
ATOM      8  O   UNK A   0       2.894   1.145  -2.472  0.00  0.00    -0.253 OA
ENDBRANCH   1   6
BRANCH   1   9
ATOM      9  C   ASP A   1       5.125  -1.100  -2.349  0.00  0.00    +0.326 C 
ATOM     10  OXT ASP A   1       5.900  -2.052  -2.398  0.00  0.00    -0.249 OA
BRANCH   9  11
ATOM     11  O   ASP A   1       4.768  -0.412  -3.453  0.00  0.00    -0.479 OA
ATOM     12  H   ASP A   1       4.141   0.332  -3.264  0.00  0.00    +0.295 HD
ENDBRANCH   9  11
ENDBRANCH   1   9
BRANCH   1  13
ATOM     13  CB  ASP A   1       5.144  -1.284   0.172  0.00  0.00    +0.154 C 
BRANCH  13  14
ATOM     14  CG  ASP A   1       4.735  -2.715   0.410  0.00  0.00    +0.307 C 
ATOM     15  OD2 ASP A   1       4.240  -3.078   1.470  0.00  0.00    -0.251 OA
BRANCH  14  16
ATOM     16  OD1 ASP A   1       4.981  -3.585  -0.585  0.00  0.00    -0.481 OA
ATOM     17  HD1 ASP A   1       5.477  -3.233  -1.365  0.00  0.00    +0.295 HD
ENDBRANCH  14  16
ENDBRANCH  13  14
ENDBRANCH   1  13
TORSDOF 6
