REMARK  Name = 
REMARK  2 active torsions:
REMARK  status: ('A' for Active; 'I' for Inactive)
REMARK    1  A    between atoms: C_4  and  C_10
REMARK    2  A    between atoms: C_7  and  O_8
REMARK                            x       y       z     vdW  Elec       q    Type
REMARK                         _______ _______ _______ _____ _____    ______ ____
ROOT
ATOM      1  N   UNL     1       1.134   0.073  -0.325  0.00  0.00    -0.327 N 
ATOM      2  H   UNL     1       0.724  -0.772   0.051  0.00  0.00    +0.145 HD
ATOM      3  H   UNL     1       0.802   0.955   0.044  0.00  0.00    +0.145 HD
ATOM      4  C   UNL     1       2.507   0.005  -0.230  0.00  0.00    +0.216 A 
ATOM      5  N   UNL     1       3.052  -1.198  -0.113  0.00  0.00    -0.179 NA
ATOM      6  C   UNL     1       4.380  -1.226   0.049  0.00  0.00    +0.232 A 
ATOM      7  C   UNL     1       5.192  -0.106   0.113  0.00  0.00    +0.105 A 
ATOM      8 BR   UNL     1       7.029  -0.331   0.523  0.00  0.00    -0.043 Br
ATOM      9  C   UNL     1       4.542   1.108  -0.058  0.00  0.00    +0.094 A 
ATOM     10  N   UNL     1       3.189   1.153  -0.205  0.00  0.00    -0.213 NA
ENDROOT
BRANCH   9  11
ATOM     11  C   UNL     1       5.172   2.454  -0.101  0.00  0.00    +0.002 A 
ATOM     12  C   UNL     1       6.410   2.707  -0.719  0.00  0.00    +0.010 A 
ATOM     13  C   UNL     1       6.971   3.989  -0.750  0.00  0.00    +0.001 A 
ATOM     14  C   UNL     1       6.285   5.067  -0.202  0.00  0.00    +0.000 A 
ATOM     15  C   UNL     1       5.038   4.861   0.378  0.00  0.00    +0.001 A 
ATOM     16  C   UNL     1       4.496   3.572   0.432  0.00  0.00    +0.010 A 
ENDBRANCH   9  11
BRANCH   6  17
ATOM     17  O   UNL     1       4.888  -2.493   0.156  0.00  0.00    -0.492 OA
ATOM     18  H   UNL     1       5.855  -2.418   0.189  0.00  0.00    +0.294 HD
ENDBRANCH   6  17
TORSDOF 2
