REMARK  Name = 
REMARK  23 active torsions:
REMARK  status: ('A' for Active; 'I' for Inactive)
REMARK    1  A    between atoms: C_1  and  C_2
REMARK    2  A    between atoms: C_5  and  O_7
REMARK    3  A    between atoms: O_7  and  C_8
REMARK    4  A    between atoms: C_10  and  C_12
REMARK    5  A    between atoms: C_12  and  O_13
REMARK    6  A    between atoms: C_15  and  O_17
REMARK    7  A    between atoms: O_17  and  C_18
REMARK    8  A    between atoms: C_20  and  C_22
REMARK    9  A    between atoms: C_22  and  O_23
REMARK   10  A    between atoms: C_25  and  O_27
REMARK   11  A    between atoms: C_28  and  O_30
REMARK   12  A    between atoms: C_31  and  O_33
REMARK   13  A    between atoms: C_34  and  O_36
REMARK   14  A    between atoms: C_37  and  O_39
REMARK   15  A    between atoms: C_40  and  O_42
REMARK   16  A    between atoms: C_43  and  O_45
REMARK   17  A    between atoms: C_46  and  N_48
REMARK   18  A    between atoms: N_48  and  C_49
REMARK   19  A    between atoms: C_52  and  C_54
REMARK   20  A    between atoms: C_54  and  O_55
REMARK   21  A    between atoms: C_56  and  O_58
REMARK   22  A    between atoms: C_59  and  O_61
REMARK   23  A    between atoms: C_62  and  O_64
REMARK                            x       y       z     vdW  Elec       q    Type
REMARK                         _______ _______ _______ _____ _____    ______ ____
ROOT
ATOM      1  O   UNL     1      -0.950 -11.407  -3.831  0.00  0.00    -0.340 OA
ENDROOT
BRANCH   1   7
ATOM      2  C   UNL     1      -0.227 -11.028  -0.863  0.00  0.00    +0.039 C 
ATOM      3  C   UNL     1       0.883 -11.775  -1.617  0.00  0.00    +0.138 C 
ATOM      4  C   UNL     1       1.854 -10.836  -2.422  0.00  0.00    +0.114 C 
ATOM      5  C   UNL     1       2.034 -11.160  -3.926  0.00  0.00    +0.167 C 
ATOM      6  C   UNL     1       1.301 -12.396  -4.412  0.00  0.00    +0.200 C 
ATOM      7  C   UNL     1      -0.056 -12.518  -3.720  0.00  0.00    +0.282 C 
ATOM      8  O   UNL     1       0.240 -12.820  -2.349  0.00  0.00    -0.344 OA
BRANCH   6   9
ATOM      9  O   UNL     1       2.102 -13.560  -4.127  0.00  0.00    -0.384 OA
ATOM     10  H   UNL     1       1.888 -13.830  -3.210  0.00  0.00    +0.210 HD
ENDBRANCH   6   9
BRANCH   5  11
ATOM     11  O   UNL     1       1.641  -9.994  -4.673  0.00  0.00    -0.387 OA
ATOM     12  H   UNL     1       1.691 -10.216  -5.618  0.00  0.00    +0.210 HD
ENDBRANCH   5  11
BRANCH   4  13
ATOM     13  N   UNL     1       3.191 -10.755  -1.757  0.00  0.00    -0.303 NA
ATOM     14  H   UNL     1       3.672 -11.650  -1.844  0.00  0.00    +0.123 HD
BRANCH  13  15
ATOM     15  C   UNL     1       4.076  -9.679  -2.262  0.00  0.00    +0.086 C 
ATOM     16  C   UNL     1       5.521  -9.766  -1.679  0.00  0.00    +0.162 C 
ATOM     17  C   UNL     1       5.611  -9.342  -0.192  0.00  0.00    +0.173 C 
ATOM     18  C   UNL     1       4.892  -8.002   0.096  0.00  0.00    +0.151 C 
ATOM     19  C   UNL     1       3.473  -7.912  -0.498  0.00  0.00    +0.047 C 
ATOM     20  C   UNL     1       3.506  -8.272  -1.988  0.00  0.00    +0.029 C 
BRANCH  18  21
ATOM     21  O   UNL     1       5.696  -6.942  -0.450  0.00  0.00    -0.389 OA
ATOM     22  H   UNL     1       5.137  -6.151  -0.544  0.00  0.00    +0.210 HD
ENDBRANCH  18  21
BRANCH  17  23
ATOM     23  O   UNL     1       5.160 -10.418   0.635  0.00  0.00    -0.387 OA
ATOM     24  H   UNL     1       4.521 -10.076   1.285  0.00  0.00    +0.210 HD
ENDBRANCH  17  23
BRANCH  16  25
ATOM     25  O   UNL     1       6.378  -8.967  -2.514  0.00  0.00    -0.388 OA
ATOM     26  H   UNL     1       7.143  -8.684  -1.981  0.00  0.00    +0.210 HD
ENDBRANCH  16  25
BRANCH  19  27
ATOM     27  C   UNL     1       2.442  -8.716   0.296  0.00  0.00    +0.162 C 
BRANCH  27  28
ATOM     28  O   UNL     1       2.447  -8.292   1.658  0.00  0.00    -0.395 OA
ATOM     29  H   UNL     1       1.880  -7.504   1.707  0.00  0.00    +0.209 HD
ENDBRANCH  27  28
ENDBRANCH  19  27
ENDBRANCH  13  15
ENDBRANCH   4  13
ENDBRANCH   1   7
BRANCH   1  30
ATOM     30  C   UNL     1      -1.439 -11.060  -5.149  0.00  0.00    +0.183 C 
ATOM     31  C   UNL     1      -1.881 -12.283  -5.943  0.00  0.00    +0.179 C 
ATOM     32  C   UNL     1      -2.977 -12.115  -6.968  0.00  0.00    +0.201 C 
ATOM     33  C   UNL     1      -3.907 -10.910  -6.879  0.00  0.00    +0.282 C 
ATOM     34  O   UNL     1      -3.190  -9.790  -6.334  0.00  0.00    -0.341 OA
ATOM     35  C   UNL     1      -2.566 -10.008  -5.048  0.00  0.00    +0.178 C 
BRANCH  32  36
ATOM     36  O   UNL     1      -3.750 -13.318  -7.024  0.00  0.00    -0.384 OA
ATOM     37  H   UNL     1      -3.117 -14.057  -7.112  0.00  0.00    +0.210 HD
ENDBRANCH  32  36
BRANCH  31  38
ATOM     38  O   UNL     1      -0.728 -12.799  -6.667  0.00  0.00    -0.386 OA
ATOM     39  H   UNL     1      -0.483 -12.145  -7.370  0.00  0.00    +0.210 HD
ENDBRANCH  31  38
BRANCH  33  40
ATOM     40  O   UNL     1      -4.354 -10.536  -8.212  0.00  0.00    -0.340 OA
BRANCH  40  41
ATOM     41  C   UNL     1      -4.915 -11.465  -9.181  0.00  0.00    +0.183 C 
ATOM     42  C   UNL     1      -3.927 -12.486  -9.824  0.00  0.00    +0.179 C 
ATOM     43  C   UNL     1      -4.542 -13.577 -10.698  0.00  0.00    +0.201 C 
ATOM     44  C   UNL     1      -5.896 -14.011 -10.139  0.00  0.00    +0.279 C 
ATOM     45  O   UNL     1      -6.767 -12.901  -9.990  0.00  0.00    -0.341 OA
ATOM     46  C   UNL     1      -6.354 -11.986  -8.943  0.00  0.00    +0.178 C 
BRANCH  44  47
ATOM     47  O   UNL     1      -6.493 -14.945 -11.034  0.00  0.00    -0.365 OA
ATOM     48  H   UNL     1      -6.503 -14.518 -11.907  0.00  0.00    +0.213 HD
ENDBRANCH  44  47
BRANCH  43  49
ATOM     49  O   UNL     1      -3.645 -14.714 -10.712  0.00  0.00    -0.384 OA
ATOM     50  H   UNL     1      -4.143 -15.472 -11.072  0.00  0.00    +0.210 HD
ENDBRANCH  43  49
BRANCH  42  51
ATOM     51  O   UNL     1      -2.922 -11.767 -10.570  0.00  0.00    -0.386 OA
ATOM     52  H   UNL     1      -2.626 -11.025 -10.012  0.00  0.00    +0.210 HD
ENDBRANCH  42  51
BRANCH  46  53
ATOM     53  C   UNL     1      -6.751 -12.575  -7.586  0.00  0.00    +0.190 C 
BRANCH  53  54
ATOM     54  O   UNL     1      -8.149 -12.900  -7.613  0.00  0.00    -0.392 OA
ATOM     55  H   UNL     1      -8.344 -13.223  -8.515  0.00  0.00    +0.210 HD
ENDBRANCH  53  54
ENDBRANCH  46  53
ENDBRANCH  40  41
ENDBRANCH  33  40
BRANCH  35  56
ATOM     56  C   UNL     1      -3.566 -10.249  -3.911  0.00  0.00    +0.190 C 
BRANCH  56  57
ATOM     57  O   UNL     1      -4.080 -11.577  -3.944  0.00  0.00    -0.392 OA
ATOM     58  H   UNL     1      -3.569 -12.094  -3.294  0.00  0.00    +0.210 HD
ENDBRANCH  56  57
ENDBRANCH  35  56
ENDBRANCH   1  30
TORSDOF 22
