REMARK  Name = 
REMARK  3 active torsions:
REMARK  status: ('A' for Active; 'I' for Inactive)
REMARK    1  A    between atoms: O_1  and  C_2
REMARK    2  A    between atoms: C_5  and  N_11
REMARK    3  A    between atoms: C_7  and  N_8
REMARK                            x       y       z     vdW  Elec       q    Type
REMARK                         _______ _______ _______ _____ _____    ______ ____
ROOT
ATOM      1  C   UNL     1       2.444   0.033  -0.069  0.00  0.00    +0.195 A 
ATOM      2  C   UNL     1       3.178  -1.151  -0.182  0.00  0.00    +0.320 A 
ATOM      3  C   UNL     1       4.569  -1.145  -0.336  0.00  0.00    +0.172 A 
ATOM      4  C   UNL     1       5.224   0.090  -0.391  0.00  0.00    +0.280 A 
ATOM      5  C   UNL     1       4.500   1.290  -0.284  0.00  0.00    +0.088 A 
ATOM      6  C   UNL     1       3.110   1.258  -0.121  0.00  0.00    +0.059 A 
ENDROOT
BRANCH   2   7
ATOM      7  N   UNL     1       2.503  -2.433  -0.146  0.00  0.00    +0.084 N 
ATOM      8  O   UNL     1       2.834  -3.210   0.759  0.00  0.00    +0.042 OA
ATOM      9  O   UNL     1       1.708  -2.683  -1.061  0.00  0.00    -0.576 OA
ENDBRANCH   2   7
BRANCH   4  10
ATOM     10  N   UNL     1       6.681   0.134  -0.569  0.00  0.00    +0.080 N 
ATOM     11  O   UNL     1       7.281  -0.945  -0.657  0.00  0.00    +0.041 OA
ATOM     12  O   UNL     1       7.220   1.249  -0.624  0.00  0.00    -0.576 OA
ENDBRANCH   4  10
BRANCH   1  13
ATOM     13  O   UNL     1       1.094   0.003   0.114  0.00  0.00    -0.501 OA
ATOM     14  H   UNL     1       0.725   0.902   0.071  0.00  0.00    +0.292 HD
ENDBRANCH   1  13
TORSDOF 3
