REMARK  Name = 
REMARK  5 active torsions:
REMARK  status: ('A' for Active; 'I' for Inactive)
REMARK    1  A    between atoms: C_1  and  C_2
REMARK    2  A    between atoms: C_2  and  C_3
REMARK    3  A    between atoms: C_2  and  C_4
REMARK    4  A    between atoms: C_4  and  C_6
REMARK    5  A    between atoms: C_6  and  O_7
REMARK                            x       y       z     vdW  Elec       q    Type
REMARK                         _______ _______ _______ _____ _____    ______ ____
ROOT
ATOM      1  C   UNL     1       2.990   0.924   1.045  0.00  0.00    +0.242 C 
ATOM      2  O   UNL     1       3.197   2.129   0.929  0.00  0.00    -0.285 OA
ENDROOT
BRANCH   1   4
ATOM      3  C   UNL     1       0.966  -0.094   0.027  0.00  0.00    +0.016 C 
ATOM      4  C   UNL     1       2.486  -0.001  -0.045  0.00  0.00    +0.061 C 
ATOM      5  C   UNL     1       2.939   0.487  -1.417  0.00  0.00    +0.016 C 
ENDBRANCH   1   4
BRANCH   1   6
ATOM      6  C   UNL     1       3.223   0.311   2.427  0.00  0.00    +0.373 C 
ATOM      7  O   UNL     1       3.059  -0.865   2.678  0.00  0.00    -0.242 OA
BRANCH   6   8
ATOM      8  O   UNL     1       3.633   1.254   3.296  0.00  0.00    -0.475 OA
ATOM      9  H   UNL     1       3.683   2.123   2.829  0.00  0.00    +0.295 HD
ENDBRANCH   6   8
ENDBRANCH   1   6
TORSDOF 3
