REMARK  Name = 
REMARK  11 active torsions:
REMARK  status: ('A' for Active; 'I' for Inactive)
REMARK    1  A    between atoms: C_1  and  C_2
REMARK    2  A    between atoms: N_4  and  C_5
REMARK    3  A    between atoms: C_7  and  O_9
REMARK    4  A    between atoms: C_11  and  C_23
REMARK    5  A    between atoms: C_13  and  C_15
REMARK    6  A    between atoms: C_15  and  O_17
REMARK    7  A    between atoms: C_15  and  C_18
REMARK    8  A    between atoms: C_18  and  O_20
REMARK    9  A    between atoms: C_18  and  C_21
REMARK   10  A    between atoms: C_21  and  N_22
REMARK   11  A    between atoms: C_23  and  O_24
REMARK                            x       y       z     vdW  Elec       q    Type
REMARK                         _______ _______ _______ _____ _____    ______ ____
ROOT
ATOM      1  C   UNL     1       5.084  -0.700   1.430  0.00  0.00    +0.148 C 
ATOM      2  C   UNL     1       5.042   0.564   0.519  0.00  0.00    +0.227 C 
ATOM      3  O   UNL     1       5.925   0.526  -0.630  0.00  0.00    -0.478 OA
ATOM      4  C   UNL     1       6.332  -0.684  -1.139  0.00  0.00    +0.203 C 
ATOM      5  C   UNL     1       6.023  -1.869  -0.602  0.00  0.00    +0.059 C 
ATOM      6  C   UNL     1       5.226  -2.009   0.633  0.00  0.00    +0.165 C 
ENDROOT
BRANCH   1   9
ATOM      7  C   UNL     1       7.062   0.294   4.529  0.00  0.00    +0.109 C 
ATOM      8  C   UNL     1       6.011   0.374   3.463  0.00  0.00    +0.210 C 
ATOM      9  N   UNL     1       6.122  -0.582   2.476  0.00  0.00    -0.306 N 
ATOM     10  H   UNL     1       6.753  -1.358   2.640  0.00  0.00    +0.149 HD
ATOM     11  O   UNL     1       5.118   1.216   3.473  0.00  0.00    -0.276 OA
ENDBRANCH   1   9
BRANCH   4  12
ATOM     12  C   UNL     1       7.162  -0.665  -2.381  0.00  0.00    +0.372 C 
ATOM     13  O   UNL     1       7.698  -1.635  -2.891  0.00  0.00    -0.242 OA
BRANCH  12  14
ATOM     14  O   UNL     1       7.261   0.599  -2.865  0.00  0.00    -0.475 OA
ATOM     15  H   UNL     1       6.731   1.214  -2.311  0.00  0.00    +0.296 HD
ENDBRANCH  12  14
ENDBRANCH   4  12
BRANCH   6  16
ATOM     16  O   UNL     1       3.948  -2.495   0.241  0.00  0.00    -0.386 OA
ATOM     17  H   UNL     1       3.549  -2.941   1.008  0.00  0.00    +0.210 HD
ENDBRANCH   6  16
BRANCH   2  18
ATOM     18  C   UNL     1       3.623   1.013   0.062  0.00  0.00    +0.186 C 
BRANCH  18  19
ATOM     19  O   UNL     1       3.775   2.311  -0.570  0.00  0.00    -0.385 OA
ATOM     20  H   UNL     1       3.800   2.956   0.167  0.00  0.00    +0.210 HD
ENDBRANCH  18  19
BRANCH  18  21
ATOM     21  C   UNL     1       2.581   1.180   1.199  0.00  0.00    +0.160 C 
BRANCH  21  22
ATOM     22  O   UNL     1       3.059   2.176   2.119  0.00  0.00    -0.388 OA
ATOM     23  H   UNL     1       3.756   1.781   2.689  0.00  0.00    +0.210 HD
ENDBRANCH  21  22
BRANCH  21  24
ATOM     24  C   UNL     1       1.202   1.685   0.714  0.00  0.00    +0.111 C 
BRANCH  24  25
ATOM     25  N   UNL     1       0.552   0.830  -0.277  0.00  0.00    -0.328 NA
ATOM     26  H   UNL     1      -0.360   1.234  -0.496  0.00  0.00    +0.118 HD
ATOM     27  H   UNL     1       1.076   0.887  -1.152  0.00  0.00    +0.118 HD
ENDBRANCH  24  25
ENDBRANCH  21  24
ENDBRANCH  18  21
ENDBRANCH   2  18
TORSDOF 10
