REMARK  Name = 
REMARK  5 active torsions:
REMARK  status: ('A' for Active; 'I' for Inactive)
REMARK    1  A    between atoms: N_1  and  CA_2
REMARK    2  A    between atoms: CA_2  and  C_4
REMARK    3  A    between atoms: CA_2  and  C_7
REMARK    4  A    between atoms: C_4  and  O_5
REMARK    5  A    between atoms: C_10  and  O_11
REMARK                            x       y       z     vdW  Elec       q    Type
REMARK                         _______ _______ _______ _____ _____    ______ ____
ROOT
ATOM      1  CA  UNL     1       2.538   0.043  -0.154  0.00  0.00    +0.191 C 
ENDROOT
BRANCH   1   2
ATOM      2  C   UNL     1       2.822   1.232  -1.060  0.00  0.00    -0.020 A 
ATOM      3  C   UNL     1       3.081   1.085  -2.433  0.00  0.00    +0.009 A 
ATOM      4  C   UNL     1       3.284   2.204  -3.243  0.00  0.00    +0.046 A 
ATOM      5  C   UNL     1       3.218   3.478  -2.694  0.00  0.00    +0.117 A 
ATOM      6  C   UNL     1       2.965   3.654  -1.339  0.00  0.00    +0.046 A 
ATOM      7  C   UNL     1       2.768   2.534  -0.526  0.00  0.00    +0.009 A 
BRANCH   5   8
ATOM      8  O   UNL     1       3.402   4.539  -3.527  0.00  0.00    -0.507 OA
ATOM      9  H   UNL     1       3.293   5.361  -3.021  0.00  0.00    +0.292 HD
ENDBRANCH   5   8
ENDBRANCH   1   2
BRANCH   1  10
ATOM     10  N   UNL     1       3.422  -1.108  -0.445  0.00  0.00    -0.315 NA
ATOM     11  H1  UNL     1       3.223  -1.821   0.264  0.00  0.00    +0.119 HD
ATOM     12  H2  UNL     1       3.118  -1.544  -1.315  0.00  0.00    +0.119 HD
ENDBRANCH   1  10
BRANCH   1  13
ATOM     13  C   UNL     1       1.065  -0.434  -0.132  0.00  0.00    +0.326 C 
ATOM     14  OXT UNL     1       0.716  -1.444   0.474  0.00  0.00    -0.249 OA
BRANCH  13  15
ATOM     15  O   UNL     1       0.167   0.305  -0.820  0.00  0.00    -0.479 OA
ATOM     16  H   UNL     1       0.541   1.064  -1.310  0.00  0.00    +0.295 HD
ENDBRANCH  13  15
ENDBRANCH   1  13
TORSDOF 5
