REMARK  Name = 
REMARK  5 active torsions:
REMARK  status: ('A' for Active; 'I' for Inactive)
REMARK    1  A    between atoms: N_7  and  C_8
REMARK    2  A    between atoms: C_9  and  C_11
REMARK    3  A    between atoms: C_11  and  O_13
REMARK    4  A    between atoms: O_13  and  C_14
REMARK    5  A    between atoms: C_15  and  O_17
REMARK                            x       y       z     vdW  Elec       q    Type
REMARK                         _______ _______ _______ _____ _____    ______ ____
ROOT
ATOM      1  C   UNL     1       2.139  -0.061   0.009  0.00  0.00    +0.059 C 
ATOM      2  C   UNL     1       2.522  -1.523  -0.262  0.00  0.00    +0.051 C 
ATOM      3  C   UNL     1       4.000  -1.865  -0.010  0.00  0.00    +0.131 C 
ATOM      4  C   UNL     1       4.806  -0.889   0.871  0.00  0.00    +0.143 C 
ATOM      5  C   UNL     1       4.119   0.473   1.076  0.00  0.00    +0.073 C 
ATOM      6  C   UNL     1       4.144   1.274  -0.237  0.00  0.00    +0.021 C 
ATOM      7  N   UNL     1       2.667   0.405   1.290  0.00  0.00    -0.299 NA
ATOM      8  C   UNL     1       2.201  -0.331   2.453  0.00  0.00    +0.105 C 
ATOM      9  C   UNL     1       2.832   0.918  -0.939  0.00  0.00    +0.020 C 
ENDROOT
BRANCH   3  10
ATOM     10  O   UNL     1       4.089  -3.223   0.426  0.00  0.00    -0.391 OA
ATOM     11  H   UNL     1       3.778  -3.257   1.356  0.00  0.00    +0.210 HD
ENDBRANCH   3  10
BRANCH   4  12
ATOM     12  C   UNL     1       5.279  -1.438   2.202  0.00  0.00    +0.314 C 
ATOM     13  O   UNL     1       4.665  -2.236   2.895  0.00  0.00    -0.250 OA
BRANCH  12  14
ATOM     14  O   UNL     1       6.507  -0.921   2.512  0.00  0.00    -0.468 OA
ATOM     15  C   UNL     1       7.068  -1.417   3.728  0.00  0.00    +0.280 C 
ENDBRANCH  12  14
ENDBRANCH   4  12
TORSDOF 3
