REMARK  Name = 
REMARK  10 active torsions:
REMARK  status: ('A' for Active; 'I' for Inactive)
REMARK    1  A    between atoms: C_1  and  C_2
REMARK    2  A    between atoms: C_2  and  O_3
REMARK    3  A    between atoms: C_2  and  C_4
REMARK    4  A    between atoms: C_2  and  C_13
REMARK    5  A    between atoms: C_4  and  C_6
REMARK    6  A    between atoms: C_4  and  C_10
REMARK    7  A    between atoms: C_6  and  C_7
REMARK    8  A    between atoms: C_7  and  O_8
REMARK    9  A    between atoms: C_10  and  O_11
REMARK   10  A    between atoms: C_13  and  O_14
REMARK                            x       y       z     vdW  Elec       q    Type
REMARK                         _______ _______ _______ _____ _____    ______ ____
ROOT
ATOM      1  C   UNL     1       3.126  -0.264   1.099  0.00  0.00    +0.150 C 
ENDROOT
BRANCH   1   3
ATOM      2  C   UNL     1       3.037   1.622  -0.688  0.00  0.00    +0.054 C 
ATOM      3  C   UNL     1       2.556   0.237  -0.251  0.00  0.00    +0.172 C 
BRANCH   3   4
ATOM      4  O   UNL     1       1.108   0.286  -0.215  0.00  0.00    -0.377 OA
ATOM      5  H   UNL     1       0.781  -0.317   0.488  0.00  0.00    +0.211 HD
ENDBRANCH   3   4
BRANCH   3   6
ATOM      6  C   UNL     1       2.892  -0.743  -1.390  0.00  0.00    +0.337 C 
ATOM      7  O   UNL     1       4.012  -1.160  -1.642  0.00  0.00    -0.248 OA
BRANCH   6   8
ATOM      8  O   UNL     1       1.804  -1.060  -2.132  0.00  0.00    -0.479 OA
ATOM      9  H   UNL     1       1.033  -0.559  -1.772  0.00  0.00    +0.295 HD
ENDBRANCH   6   8
ENDBRANCH   3   6
ENDBRANCH   1   3
BRANCH   1  10
ATOM     10  C   UNL     1       2.527   0.538   2.241  0.00  0.00    +0.312 C 
ATOM     11  O   UNL     1       1.538   0.156   2.852  0.00  0.00    -0.251 OA
BRANCH  10  12
ATOM     12  O   UNL     1       3.084   1.740   2.485  0.00  0.00    -0.480 OA
ATOM     13  H   UNL     1       3.784   2.061   1.890  0.00  0.00    +0.295 HD
ENDBRANCH  10  12
ENDBRANCH   1  10
BRANCH   1  14
ATOM     14  C   UNL     1       4.658  -0.354   1.212  0.00  0.00    +0.138 C 
BRANCH  14  15
ATOM     15  C   UNL     1       5.087  -0.965   2.530  0.00  0.00    +0.306 C 
ATOM     16  O   UNL     1       4.392  -1.712   3.199  0.00  0.00    -0.251 OA
BRANCH  15  17
ATOM     17  O   UNL     1       6.341  -0.628   2.882  0.00  0.00    -0.481 OA
ATOM     18  H   UNL     1       6.834  -0.087   2.238  0.00  0.00    +0.295 HD
ENDBRANCH  15  17
ENDBRANCH  14  15
ENDBRANCH   1  14
TORSDOF 9
