REMARK  Name = 
REMARK  0 active torsions:
REMARK  status: ('A' for Active; 'I' for Inactive)
REMARK                            x       y       z     vdW  Elec       q    Type
REMARK                         _______ _______ _______ _____ _____    ______ ____
ROOT
ATOM      1  O   UNL     1       0.878  -0.042  -0.032  0.00  0.00    -0.265 OA
ATOM      2  C   UNL     1       2.101   0.051  -0.028  0.00  0.00    +0.279 A 
ATOM      3  C   UNL     1       2.862   1.283  -0.027  0.00  0.00    +0.172 A 
ATOM      4  C   UNL     1       4.236   1.189  -0.023  0.00  0.00    +0.165 A 
ATOM      5  N   UNL     1       4.682   2.476  -0.022  0.00  0.00    -0.329 N 
ATOM      6  H   UNL     1       5.649   2.767  -0.019  0.00  0.00    +0.168 HD
ATOM      7  C   UNL     1       3.575   3.286  -0.025  0.00  0.00    +0.199 A 
ATOM      8  N   UNL     1       5.012   0.081  -0.020  0.00  0.00    -0.218 NA
ATOM      9  C   UNL     1       4.305  -1.010  -0.022  0.00  0.00    +0.201 A 
ATOM     10  N   UNL     1       2.454   2.593  -0.028  0.00  0.00    -0.229 NA
ATOM     11  N   UNL     1       2.922  -1.069  -0.026  0.00  0.00    -0.312 N 
ATOM     12  H   UNL     1       2.442  -1.956  -0.027  0.00  0.00    +0.170 HD
ENDROOT
TORSDOF 0
