REMARK  Name = 
REMARK  14 active torsions:
REMARK  status: ('A' for Active; 'I' for Inactive)
REMARK    1  A    between atoms: C_5  and  C_6
REMARK    2  A    between atoms: C_6  and  S_7
REMARK    3  A    between atoms: S_7  and  C_8
REMARK    4  A    between atoms: N_12  and  C_13
REMARK    5  A    between atoms: C_14  and  C_35
REMARK    6  A    between atoms: C_18  and  N_19
REMARK    7  A    between atoms: C_18  and  O_33
REMARK    8  A    between atoms: C_20  and  C_22
REMARK    9  A    between atoms: C_22  and  C_23
REMARK   10  A    between atoms: C_22  and  C_26
REMARK   11  A    between atoms: C_23  and  O_24
REMARK   12  A    between atoms: C_29  and  O_30
REMARK   13  A    between atoms: O_33  and  C_34
REMARK   14  A    between atoms: C_35  and  O_36
REMARK                            x       y       z     vdW  Elec       q    Type
REMARK                         _______ _______ _______ _____ _____    ______ ____
ROOT
ATOM      1  C   UNL     1       2.119   0.034   0.081  0.00  0.00    +0.273 C 
ATOM      2  C   UNL     1       2.766  -1.422  -0.040  0.00  0.00    +0.258 C 
ATOM      3  C   UNL     1       3.347  -0.797  -1.417  0.00  0.00    +0.277 C 
ATOM      4  O   UNL     1       4.027  -1.103  -2.365  0.00  0.00    -0.270 OA
ATOM      5  N   UNL     1       2.855   0.415  -1.101  0.00  0.00    -0.230 N 
ATOM      6  C   UNL     1       3.145   1.724  -1.376  0.00  0.00    +0.125 C 
ATOM      7  C   UNL     1       2.751   2.666  -0.474  0.00  0.00    -0.006 C 
ATOM      8  C   UNL     1       2.190   2.262   0.892  0.00  0.00    +0.196 C 
ATOM      9  O   UNL     1       2.435   0.879   1.198  0.00  0.00    -0.349 OA
ENDROOT
BRANCH   2  10
ATOM     10  N   UNL     1       3.788  -1.698   1.020  0.00  0.00    -0.276 N 
ATOM     11  H   UNL     1       3.699  -1.212   1.908  0.00  0.00    +0.152 HD
ATOM     12  C   UNL     1       4.898  -2.468   0.768  0.00  0.00    +0.234 C 
ATOM     13  O   UNL     1       5.094  -3.000  -0.327  0.00  0.00    -0.274 OA
BRANCH  12  14
ATOM     14  C   UNL     1       5.906  -2.618   1.893  0.00  0.00    +0.213 C 
BRANCH  14  15
ATOM     15  C   UNL     1       6.904  -1.465   1.925  0.00  0.00    -0.025 A 
ATOM     16  C   UNL     1       7.250  -0.742   0.769  0.00  0.00    +0.008 A 
ATOM     17  C   UNL     1       8.102   0.360   0.848  0.00  0.00    +0.046 A 
ATOM     18  C   UNL     1       8.636   0.732   2.074  0.00  0.00    +0.117 A 
ATOM     19  C   UNL     1       8.366  -0.006   3.220  0.00  0.00    +0.046 A 
ATOM     20  C   UNL     1       7.505  -1.104   3.144  0.00  0.00    +0.008 A 
BRANCH  18  21
ATOM     21  O   UNL     1       9.423   1.843   2.110  0.00  0.00    -0.507 OA
ATOM     22  H   UNL     1       9.646   2.037   3.035  0.00  0.00    +0.292 HD
ENDBRANCH  18  21
ENDBRANCH  14  15
BRANCH  14  23
ATOM     23  C   UNL     1       6.607  -3.971   1.905  0.00  0.00    +0.321 C 
ATOM     24  O   UNL     1       7.090  -4.448   2.927  0.00  0.00    -0.250 OA
BRANCH  23  25
ATOM     25  O   UNL     1       6.694  -4.630   0.727  0.00  0.00    -0.480 OA
ATOM     26  H   UNL     1       6.264  -4.171  -0.035  0.00  0.00    +0.295 HD
ENDBRANCH  23  25
ENDBRANCH  14  23
ENDBRANCH  12  14
ENDBRANCH   2  10
BRANCH   2  27
ATOM     27  O   UNL     1       1.788  -2.485  -0.211  0.00  0.00    -0.348 OA
ATOM     28  C   UNL     1       2.245  -3.688  -0.821  0.00  0.00    +0.197 C 
ENDBRANCH   2  27
BRANCH   6  29
ATOM     29  C   UNL     1       3.931   2.107  -2.611  0.00  0.00    +0.351 C 
ATOM     30  O   UNL     1       4.414   3.215  -2.789  0.00  0.00    -0.244 OA
BRANCH  29  31
ATOM     31  O   UNL     1       4.058   1.160  -3.560  0.00  0.00    -0.476 OA
ATOM     32  H   UNL     1       3.959   0.228  -3.268  0.00  0.00    +0.295 HD
ENDBRANCH  29  31
ENDBRANCH   6  29
BRANCH   7  33
ATOM     33  C   UNL     1       2.919   4.174  -0.596  0.00  0.00    +0.112 C 
BRANCH  33  34
ATOM     34  S   UNL     1       2.026   4.953  -1.973  0.00  0.00    -0.080 S 
BRANCH  34  35
ATOM     35  C   UNL     1       0.373   4.732  -1.578  0.00  0.00    +0.209 A 
ATOM     36  N   UNL     1      -0.658   5.213  -2.333  0.00  0.00    -0.223 N 
ATOM     37  C   UNL     1      -0.638   6.008  -3.533  0.00  0.00    +0.177 C 
ATOM     38  N   UNL     1      -1.826   4.842  -1.782  0.00  0.00    -0.043 NA
ATOM     39  N   UNL     1      -1.494   4.156  -0.692  0.00  0.00    -0.022 NA
ATOM     40  N   UNL     1      -0.130   4.084  -0.557  0.00  0.00    -0.102 NA
ENDBRANCH  34  35
ENDBRANCH  33  34
ENDBRANCH   7  33
TORSDOF 12
