REMARK  Name = 
REMARK  7 active torsions:
REMARK  status: ('A' for Active; 'I' for Inactive)
REMARK    1  A    between atoms: C_1  and  C_2
REMARK    2  A    between atoms: C_2  and  C_3
REMARK    3  A    between atoms: C_2  and  C_4
REMARK    4  A    between atoms: C_2  and  N_5
REMARK    5  A    between atoms: C_7  and  C_15
REMARK    6  A    between atoms: C_9  and  N_10
REMARK    7  A    between atoms: C_19  and  O_20
REMARK                            x       y       z     vdW  Elec       q    Type
REMARK                         _______ _______ _______ _____ _____    ______ ____
ROOT
ATOM      1  N   UNL     1       3.054   0.613  -1.418  0.00  0.00    -0.240 N 
ATOM      2  C   UNL     1       3.568  -0.077  -2.491  0.00  0.00    +0.164 A 
ATOM      3  C   UNL     1       3.789   0.858  -3.492  0.00  0.00    +0.086 A 
ATOM      4  C   UNL     1       4.301   0.363  -4.704  0.00  0.00    +0.131 A 
ATOM      5  N   UNL     1       4.562  -0.956  -4.809  0.00  0.00    -0.220 NA
ATOM      6  C   UNL     1       4.304  -1.749  -3.757  0.00  0.00    +0.225 A 
ATOM      7  C   UNL     1       3.373   2.104  -2.925  0.00  0.00    +0.105 A 
ATOM      8  N   UNL     1       3.794  -1.401  -2.570  0.00  0.00    -0.216 NA
ATOM      9  N   UNL     1       2.887   1.931  -1.684  0.00  0.00    -0.168 NA
ENDROOT
BRANCH   7  10
ATOM     10  C   UNL     1       3.364   3.443  -3.526  0.00  0.00    +0.006 A 
ATOM     11  C   UNL     1       4.384   3.861  -4.386  0.00  0.00    +0.055 A 
ATOM     12  C   UNL     1       4.294   5.087  -5.038  0.00  0.00    +0.117 A 
ATOM     13  C   UNL     1       3.239   5.956  -4.788  0.00  0.00    +0.045 A 
ATOM     14  C   UNL     1       2.254   5.585  -3.874  0.00  0.00    +0.004 A 
ATOM     15  C   UNL     1       2.311   4.332  -3.255  0.00  0.00    +0.010 A 
BRANCH  12  16
ATOM     16  O   UNL     1       5.265   5.390  -5.946  0.00  0.00    -0.507 OA
ATOM     17  H   UNL     1       5.022   6.213  -6.401  0.00  0.00    +0.292 HD
ENDBRANCH  12  16
ENDBRANCH   7  10
BRANCH   1  19
ATOM     18  C   UNL     1       1.120  -0.378  -0.278  0.00  0.00    +0.036 C 
ATOM     19  C   UNL     1       2.581   0.079  -0.125  0.00  0.00    +0.058 C 
ATOM     20  C   UNL     1       3.432  -1.105   0.380  0.00  0.00    +0.036 C 
ATOM     21  C   UNL     1       2.646   1.169   0.973  0.00  0.00    +0.036 C 
ENDBRANCH   1  19
BRANCH   4  22
ATOM     22  N   UNL     1       4.555   1.112  -5.842  0.00  0.00    -0.342 N 
ATOM     23  H   UNL     1       4.712   0.513  -6.644  0.00  0.00    +0.144 HD
ATOM     24  H   UNL     1       3.943   1.902  -5.997  0.00  0.00    +0.144 HD
ENDBRANCH   4  22
TORSDOF 4
