REMARK  Name = 
REMARK  23 active torsions:
REMARK  status: ('A' for Active; 'I' for Inactive)
REMARK    1  A    between atoms: C_1  and  C_2
REMARK    2  A    between atoms: C_2  and  C_3
REMARK    3  A    between atoms: C_2  and  C_4
REMARK    4  A    between atoms: C_8  and  C_9
REMARK    5  A    between atoms: C_9  and  C_10
REMARK    6  A    between atoms: C_10  and  C_11
REMARK    7  A    between atoms: C_11  and  C_12
REMARK    8  A    between atoms: C_12  and  N_13
REMARK    9  A    between atoms: C_17  and  C_18
REMARK   10  A    between atoms: C_18  and  C_19
REMARK   11  A    between atoms: C_31  and  C_32
REMARK   12  A    between atoms: C_32  and  C_33
REMARK   13  A    between atoms: C_36  and  O_37
REMARK   14  A    between atoms: C_43  and  N_69
REMARK   15  A    between atoms: C_48  and  C_52
REMARK   16  A    between atoms: N_54  and  C_55
REMARK   17  A    between atoms: C_55  and  C_56
REMARK   18  A    between atoms: C_55  and  C_66
REMARK   19  A    between atoms: C_56  and  C_57
REMARK   20  A    between atoms: C_70  and  C_72
REMARK   21  A    between atoms: C_72  and  N_73
REMARK   22  A    between atoms: C_72  and  C_74
REMARK   23  A    between atoms: C_74  and  C_75
REMARK                            x       y       z     vdW  Elec       q    Type
REMARK                         _______ _______ _______ _____ _____    ______ ____
ROOT
ATOM      1  C   UNL     1       4.865  -1.176  -4.838  0.00  0.00    +0.161 C 
ATOM      2  C   UNL     1       5.524  -1.033  -6.643  0.00  0.00    +0.234 C 
ATOM      3  O   UNL     1       5.140  -0.048  -7.296  0.00  0.00    -0.274 OA
ATOM      4  N   UNL     1       6.491  -2.103  -7.416  0.00  0.00    -0.302 N 
ATOM      5  H   UNL     1       6.411  -3.015  -6.993  0.00  0.00    +0.150 HD
ATOM      6  C   UNL     1       7.518  -2.240  -8.967  0.00  0.00    +0.169 C 
ATOM      7  C   UNL     1       8.918  -3.319  -8.890  0.00  0.00    +0.112 C 
ATOM      8  S   UNL     1      10.773  -3.205  -9.901  0.00  0.00    -0.091 S 
ATOM      9  S   UNL     1      11.972  -5.026  -9.435  0.00  0.00    -0.091 S 
ATOM     10  C   UNL     1      14.048  -4.937  -9.595  0.00  0.00    +0.112 C 
ATOM     11  C   UNL     1      14.924  -5.690  -8.487  0.00  0.00    +0.169 C 
ATOM     12  C   UNL     1      14.746  -4.984  -7.137  0.00  0.00    +0.235 C 
ATOM     13  O   UNL     1      15.686  -4.510  -6.499  0.00  0.00    -0.274 OA
ATOM     14  N   UNL     1      13.466  -4.958  -6.690  0.00  0.00    -0.302 N 
ATOM     15  H   UNL     1      12.723  -5.394  -7.237  0.00  0.00    +0.150 HD
ATOM     16  C   UNL     1      13.036  -4.259  -5.500  0.00  0.00    +0.163 C 
ATOM     17  C   UNL     1      11.519  -4.286  -5.549  0.00  0.00    +0.234 C 
ATOM     18  O   UNL     1      10.866  -4.977  -6.327  0.00  0.00    -0.274 OA
ATOM     19  N   UNL     1      10.955  -3.510  -4.577  0.00  0.00    -0.302 N 
ATOM     20  H   UNL     1      11.479  -2.737  -4.132  0.00  0.00    +0.150 HD
ATOM     21  C   UNL     1       9.532  -3.510  -4.406  0.00  0.00    +0.163 C 
ATOM     22  C   UNL     1       9.196  -2.736  -3.179  0.00  0.00    +0.234 C 
ATOM     23  O   UNL     1       9.908  -1.876  -2.742  0.00  0.00    -0.274 OA
ATOM     24  N   UNL     1       7.950  -3.013  -2.711  0.00  0.00    -0.302 N 
ATOM     25  H   UNL     1       7.394  -3.757  -3.133  0.00  0.00    +0.150 HD
ATOM     26  C   UNL     1       7.213  -2.014  -1.965  0.00  0.00    +0.159 C 
ATOM     27  C   UNL     1       5.935  -2.110  -2.786  0.00  0.00    +0.234 C 
ATOM     28  O   UNL     1       5.170  -3.066  -2.707  0.00  0.00    -0.274 OA
ATOM     29  N   UNL     1       5.946  -1.229  -3.861  0.00  0.00    -0.302 N 
ATOM     30  H   UNL     1       6.291  -0.308  -3.622  0.00  0.00    +0.150 HD
ENDROOT
BRANCH   6  31
ATOM     31  C   UNL     1       7.050  -2.869 -10.549  0.00  0.00    +0.235 C 
ATOM     32  N   UNL     1       7.948  -2.792 -11.706  0.00  0.00    -0.302 N 
ATOM     33  H   UNL     1       8.800  -2.247 -11.639  0.00  0.00    +0.150 HD
ATOM     34  O   UNL     1       6.033  -3.563 -10.641  0.00  0.00    -0.274 OA
BRANCH  32  35
ATOM     35  C   UNL     1       7.772  -3.594 -13.081  0.00  0.00    +0.164 C 
BRANCH  35  36
ATOM     36  C   UNL     1       8.850  -3.848 -14.296  0.00  0.00    +0.231 C 
ATOM     37  O   UNL     1       8.498  -4.312 -15.392  0.00  0.00    -0.274 OA
ATOM     38  N   UNL     1      10.174  -3.659 -14.160  0.00  0.00    -0.328 N 
ATOM     39  H   UNL     1      10.773  -3.918 -14.950  0.00  0.00    +0.145 HD
ATOM     40  H   UNL     1      10.598  -3.483 -13.274  0.00  0.00    +0.145 HD
ENDBRANCH  35  36
BRANCH  35  41
ATOM     41  C   UNL     1       6.489  -3.176 -13.892  0.00  0.00    +0.085 C 
BRANCH  41  42
ATOM     42  C   UNL     1       6.690  -1.843 -14.536  0.00  0.00    +0.019 A 
ATOM     43  N   UNL     1       7.335  -1.680 -15.751  0.00  0.00    -0.358 N 
ATOM     44  H   UNL     1       7.584  -2.425 -16.397  0.00  0.00    +0.166 HD
ATOM     45  C   UNL     1       7.879  -0.407 -15.790  0.00  0.00    +0.047 A 
ATOM     46  C   UNL     1       7.261   0.320 -14.764  0.00  0.00    -0.000 A 
ATOM     47  C   UNL     1       7.619   1.672 -14.595  0.00  0.00    +0.010 A 
ATOM     48  C   UNL     1       8.644   2.211 -15.361  0.00  0.00    +0.001 A 
ATOM     49  C   UNL     1       9.273   1.458 -16.346  0.00  0.00    +0.002 A 
ATOM     50  C   UNL     1       8.865   0.141 -16.612  0.00  0.00    +0.026 A 
ATOM     51  C   UNL     1       6.427  -0.580 -14.067  0.00  0.00    +0.031 A 
ENDBRANCH  41  42
ENDBRANCH  35  41
ENDBRANCH  32  35
ENDBRANCH   6  31
BRANCH  11  52
ATOM     52  N   UNL     1      16.428  -5.699  -8.661  0.00  0.00    -0.302 N 
ATOM     53  H   UNL     1      16.934  -5.325  -7.855  0.00  0.00    +0.150 HD
ATOM     54  C   UNL     1      17.154  -6.602  -9.420  0.00  0.00    +0.231 C 
ATOM     55  O   UNL     1      16.596  -7.443 -10.117  0.00  0.00    -0.274 OA
BRANCH  54  56
ATOM     56  C   UNL     1      18.715  -6.531  -9.290  0.00  0.00    +0.142 C 
BRANCH  56  57
ATOM     57  N   UNL     1      19.229  -7.647  -8.458  0.00  0.00    -0.320 NA
ATOM     58  H   UNL     1      18.797  -7.651  -7.539  0.00  0.00    +0.119 HD
ATOM     59  H   UNL     1      18.994  -8.537  -8.903  0.00  0.00    +0.119 HD
ENDBRANCH  56  57
BRANCH  56  60
ATOM     60  C   UNL     1      19.399  -6.626 -10.673  0.00  0.00    +0.063 C 
BRANCH  60  61
ATOM     61  C   UNL     1      19.001  -5.498 -11.592  0.00  0.00    -0.045 A 
ATOM     62  C   UNL     1      18.312  -5.767 -12.780  0.00  0.00    +0.004 A 
ATOM     63  C   UNL     1      17.868  -4.722 -13.589  0.00  0.00    +0.000 A 
ATOM     64  C   UNL     1      18.112  -3.401 -13.218  0.00  0.00    +0.000 A 
ATOM     65  C   UNL     1      18.825  -3.125 -12.053  0.00  0.00    +0.000 A 
ATOM     66  C   UNL     1      19.280  -4.169 -11.249  0.00  0.00    +0.004 A 
ENDBRANCH  60  61
ENDBRANCH  56  60
ENDBRANCH  54  56
ENDBRANCH  11  52
BRANCH   1  68
ATOM     67  C   UNL     1       3.087  -1.122  -2.487  0.00  0.00    +0.009 C 
ATOM     68  C   UNL     1       3.645  -0.293  -3.776  0.00  0.00    +0.012 C 
ATOM     69  C   UNL     1       3.987   1.033  -2.947  0.00  0.00    +0.009 C 
ENDBRANCH   1  68
BRANCH  16  70
ATOM     70  C   UNL     1      13.513  -4.874  -4.171  0.00  0.00    +0.067 C 
BRANCH  70  71
ATOM     71  C   UNL     1      13.007  -6.290  -3.992  0.00  0.00    -0.045 A 
ATOM     72  C   UNL     1      11.727  -6.533  -3.467  0.00  0.00    +0.007 A 
ATOM     73  C   UNL     1      11.175  -7.811  -3.508  0.00  0.00    +0.045 A 
ATOM     74  C   UNL     1      11.920  -8.856  -4.032  0.00  0.00    +0.117 A 
ATOM     75  C   UNL     1      13.211  -8.647  -4.506  0.00  0.00    +0.045 A 
ATOM     76  C   UNL     1      13.753  -7.363  -4.489  0.00  0.00    +0.007 A 
BRANCH  74  77
ATOM     77  O   UNL     1      11.337 -10.087  -4.075  0.00  0.00    -0.507 OA
ATOM     78  H   UNL     1      11.937 -10.694  -4.537  0.00  0.00    +0.292 HD
ENDBRANCH  74  77
ENDBRANCH  70  71
ENDBRANCH  16  70
BRANCH  21  79
ATOM     79  C   UNL     1       8.761  -2.824  -5.511  0.00  0.00    +0.069 C 
BRANCH  79  80
ATOM     80  C   UNL     1       9.358  -1.547  -6.066  0.00  0.00    -0.020 A 
ATOM     81  C   UNL     1       8.931  -0.195  -5.885  0.00  0.00    +0.003 A 
ATOM     82  C   UNL     1       8.213   0.523  -4.921  0.00  0.00    +0.010 A 
ATOM     83  C   UNL     1       7.645   1.757  -5.250  0.00  0.00    +0.001 A 
ATOM     84  C   UNL     1       7.852   2.309  -6.510  0.00  0.00    +0.002 A 
ATOM     85  C   UNL     1       8.741   1.716  -7.409  0.00  0.00    +0.026 A 
ATOM     86  C   UNL     1       9.300   0.490  -7.039  0.00  0.00    +0.047 A 
ATOM     87  N   UNL     1      10.287  -0.259  -7.620  0.00  0.00    -0.360 N 
ATOM     88  H   UNL     1      10.829   0.024  -8.424  0.00  0.00    +0.165 HD
ATOM     89  C   UNL     1      10.410  -1.448  -6.957  0.00  0.00    +0.087 A 
ENDBRANCH  79  80
ENDBRANCH  21  79
BRANCH  26  90
ATOM     90  C   UNL     1       7.247  -2.405  -0.505  0.00  0.00    +0.032 C 
BRANCH  90  91
ATOM     91  C   UNL     1       8.706  -2.260  -0.039  0.00  0.00    +0.003 C 
BRANCH  91  92
ATOM     92  C   UNL     1       8.944  -2.747   1.369  0.00  0.00    +0.015 C 
BRANCH  92  93
ATOM     93  C   UNL     1      10.432  -2.644   1.695  0.00  0.00    +0.077 C 
BRANCH  93  94
ATOM     94  N   UNL     1      10.643  -3.136   3.046  0.00  0.00    -0.330 NA
ATOM     95  H   UNL     1      11.613  -2.988   3.314  0.00  0.00    +0.118 HD
ATOM     96  H   UNL     1      10.073  -2.596   3.695  0.00  0.00    +0.118 HD
ENDBRANCH  93  94
ENDBRANCH  92  93
ENDBRANCH  91  92
ENDBRANCH  90  91
ENDBRANCH  26  90
TORSDOF 21
