REMARK  Name = 
REMARK  13 active torsions:
REMARK  status: ('A' for Active; 'I' for Inactive)
REMARK    1  A    between atoms: C_1  and  C_2
REMARK    2  A    between atoms: C_2  and  N_3
REMARK    3  A    between atoms: C_4  and  C_5
REMARK    4  A    between atoms: C_6  and  C_7
REMARK    5  A    between atoms: C_7  and  O_9
REMARK    6  A    between atoms: O_9  and  C_10
REMARK    7  A    between atoms: C_10  and  C_11
REMARK    8  A    between atoms: C_10  and  C_12
REMARK    9  A    between atoms: C_13  and  C_14
REMARK   10  A    between atoms: C_21  and  C_22
REMARK   11  A    between atoms: C_22  and  O_23
REMARK   12  A    between atoms: C_25  and  C_26
REMARK   13  A    between atoms: C_26  and  O_27
REMARK                            x       y       z     vdW  Elec       q    Type
REMARK                         _______ _______ _______ _____ _____    ______ ____
ROOT
ATOM      1  N   UNL     1       3.003  -0.971   0.990  0.00  0.00    -0.188 N 
ATOM      2  C   UNL     1       2.872  -2.278   0.593  0.00  0.00    +0.307 A 
ATOM      3  C   UNL     1       3.309  -3.343   1.411  0.00  0.00    +0.146 A 
ATOM      4  C   UNL     1       3.731  -3.127   2.746  0.00  0.00    +0.024 A 
ATOM      5  C   UNL     1       3.983  -1.753   3.067  0.00  0.00    +0.134 A 
ATOM      6  C   UNL     1       3.644  -0.679   2.173  0.00  0.00    +0.196 A 
ATOM      7  C   UNL     1       4.059   0.744   2.501  0.00  0.00    +0.123 C 
ENDROOT
BRANCH   4   8
ATOM      8  C   UNL     1       3.836  -4.315   3.706  0.00  0.00    +0.002 A 
ATOM      9  C   UNL     1       2.841  -5.339   3.783  0.00  0.00    +0.049 A 
ATOM     10 CL   UNL     1       1.265  -5.166   3.073  0.00  0.00    -0.083 Cl
ATOM     11  C   UNL     1       3.037  -6.536   4.498  0.00  0.00    +0.020 A 
ATOM     12  C   UNL     1       4.155  -6.696   5.299  0.00  0.00    +0.001 A 
ATOM     13  C   UNL     1       5.087  -5.675   5.352  0.00  0.00    +0.001 A 
ATOM     14  C   UNL     1       4.952  -4.538   4.535  0.00  0.00    +0.010 A 
ENDBRANCH   4   8
BRANCH   1  16
ATOM     15  C   UNL     1       1.128   0.587   0.544  0.00  0.00    +0.082 C 
ATOM     16  C   UNL     1       2.499   0.127   0.083  0.00  0.00    +0.354 C 
ENDBRANCH   1  16
BRANCH   2  17
ATOM     17  C   UNL     1       2.184  -2.534  -0.697  0.00  0.00    +0.403 C 
ATOM     18  O   UNL     1       1.055  -2.162  -0.952  0.00  0.00    -0.238 OA
BRANCH  17  19
ATOM     19  O   UNL     1       3.013  -3.070  -1.601  0.00  0.00    -0.473 OA
ATOM     20  H   UNL     1       2.438  -3.400  -2.334  0.00  0.00    +0.296 HD
ENDBRANCH  17  19
ENDBRANCH   2  17
BRANCH   3  21
ATOM     21  C   UNL     1       3.300  -4.683   0.782  0.00  0.00    +0.344 C 
ATOM     22  O   UNL     1       2.371  -5.083   0.101  0.00  0.00    -0.245 OA
BRANCH  21  23
ATOM     23  O   UNL     1       4.442  -5.388   0.949  0.00  0.00    -0.477 OA
ATOM     24  H   UNL     1       5.135  -5.073   1.560  0.00  0.00    +0.295 HD
ENDBRANCH  21  23
ENDBRANCH   3  21
BRANCH   5  25
ATOM     25  C   UNL     1       4.937  -1.399   4.141  0.00  0.00    +0.346 C 
ATOM     26  O   UNL     1       6.070  -1.841   4.067  0.00  0.00    -0.245 OA
BRANCH  25  27
ATOM     27  O   UNL     1       4.522  -0.418   4.980  0.00  0.00    -0.458 OA
BRANCH  27  28
ATOM     28  C   UNL     1       5.466   0.087   5.979  0.00  0.00    +0.171 C 
ATOM     29  C   UNL     1       4.832   1.304   6.661  0.00  0.00    +0.052 C 
ATOM     30  C   UNL     1       6.827   0.530   5.424  0.00  0.00    +0.052 C 
ENDBRANCH  27  28
ENDBRANCH  25  27
ENDBRANCH   5  25
TORSDOF 9
