REMARK  Name = 
REMARK  2 active torsions:
REMARK  status: ('A' for Active; 'I' for Inactive)
REMARK    1  A    between atoms: O_1  and  C_2
REMARK    2  A    between atoms: C_2  and  C_3
REMARK                            x       y       z     vdW  Elec       q    Type
REMARK                         _______ _______ _______ _____ _____    ______ ____
ROOT
ATOM      1  C   UNL     1       2.777  -0.716  -1.313  0.00  0.00    +0.013 A 
ATOM      2  C   UNL     1       2.729  -2.111  -1.415  0.00  0.00    +0.131 A 
ATOM      3  F   UNL     1       2.401  -2.845  -0.341  0.00  0.00    -0.205 F 
ATOM      4  C   UNL     1       3.005  -2.765  -2.610  0.00  0.00    +0.077 A 
ATOM      5  C   UNL     1       3.326  -2.009  -3.729  0.00  0.00    +0.126 A 
ATOM      6  F   UNL     1       3.588  -2.625  -4.888  0.00  0.00    -0.205 F 
ATOM      7  C   UNL     1       3.372  -0.620  -3.667  0.00  0.00    +0.039 A 
ATOM      8  C   UNL     1       3.094   0.027  -2.461  0.00  0.00    +0.011 A 
ENDROOT
BRANCH   1   9
ATOM      9  C   UNL     1       2.419  -0.057  -0.010  0.00  0.00    +0.194 C 
BRANCH   9  10
ATOM     10  O   UNL     1       3.027   1.225   0.095  0.00  0.00    -0.390 OA
ATOM     11  H   UNL     1       2.717   1.611   0.931  0.00  0.00    +0.210 HD
ENDBRANCH   9  10
ENDBRANCH   1   9
TORSDOF 2
