REMARK  Name = 
REMARK  9 active torsions:
REMARK  status: ('A' for Active; 'I' for Inactive)
REMARK    1  A    between atoms: N_1  and  C_2
REMARK    2  A    between atoms: C_2  and  C_4
REMARK    3  A    between atoms: C_2  and  C_10
REMARK    4  A    between atoms: C_4  and  S_5
REMARK    5  A    between atoms: S_5  and  S_6
REMARK    6  A    between atoms: S_6  and  C_7
REMARK    7  A    between atoms: C_7  and  C_8
REMARK    8  A    between atoms: C_8  and  O_9
REMARK    9  A    between atoms: C_10  and  O_11
REMARK                            x       y       z     vdW  Elec       q    Type
REMARK                         _______ _______ _______ _____ _____    ______ ____
ROOT
ATOM      1  C   UNK     1       2.375   0.013   0.084  0.00  0.00    +0.171 C 
ENDROOT
BRANCH   1   2
ATOM      2  N   UNK     1       0.879  -0.096   0.060  0.00  0.00    -0.318 NA
ATOM      3  H   UNK     1       0.573  -0.500   0.954  0.00  0.00    +0.119 HD
ATOM      4  H   UNK     1       0.514   0.863   0.109  0.00  0.00    +0.119 HD
ENDBRANCH   1   2
BRANCH   1   5
ATOM      5  C   UNK     1       2.972  -1.303  -0.438  0.00  0.00    +0.323 C 
ATOM      6  O   UNK     1       4.156  -1.595  -0.412  0.00  0.00    -0.249 OA
BRANCH   5   7
ATOM      7  O   UNK     1       2.010  -2.114  -0.946  0.00  0.00    -0.480 OA
ATOM      8  H   UNK     1       1.159  -1.614  -0.857  0.00  0.00    +0.295 HD
ENDBRANCH   5   7
ENDBRANCH   1   5
BRANCH   1   9
ATOM      9  C   UNK     1       2.948   0.269   1.480  0.00  0.00    +0.111 C 
BRANCH   9  10
ATOM     10  S   UNK     1       2.442   1.898   2.131  0.00  0.00    -0.091 S 
BRANCH  10  11
ATOM     11  S   UNK     1       3.229   1.838   4.032  0.00  0.00    -0.091 S 
BRANCH  11  12
ATOM     12  C   UNK     1       5.024   1.927   3.693  0.00  0.00    +0.108 C 
BRANCH  12  13
ATOM     13  C   UNK     1       5.826   1.967   4.989  0.00  0.00    +0.167 C 
BRANCH  13  14
ATOM     14  O   UNK     1       5.602   0.805   5.781  0.00  0.00    -0.394 OA
ATOM     15  H   UNK     1       4.651   0.791   5.995  0.00  0.00    +0.209 HD
ENDBRANCH  13  14
ENDBRANCH  12  13
ENDBRANCH  11  12
ENDBRANCH  10  11
ENDBRANCH   9  10
ENDBRANCH   1   9
TORSDOF 9
