REMARK  Name = 
REMARK  5 active torsions:
REMARK  status: ('A' for Active; 'I' for Inactive)
REMARK    1  A    between atoms: O_1  and  C_2
REMARK    2  A    between atoms: C_2  and  C_4
REMARK    3  A    between atoms: N_6  and  C_7
REMARK    4  A    between atoms: C_15  and  C_16
REMARK    5  A    between atoms: C_16  and  O_17
REMARK                            x       y       z     vdW  Elec       q    Type
REMARK                         _______ _______ _______ _____ _____    ______ ____
ROOT
ATOM      1  C   UNL     1       5.229  -2.259  -1.314  0.00  0.00    +0.050 A 
ATOM      2  C   UNL     1       4.900  -3.584  -0.940  0.00  0.00    +0.081 A 
ATOM      3  C   UNL     1       5.506  -4.687  -1.585  0.00  0.00    +0.026 A 
ATOM      4  C   UNL     1       6.416  -4.467  -2.638  0.00  0.00    +0.001 A 
ATOM      5  C   UNL     1       7.162  -5.307  -3.507  0.00  0.00    +0.027 A 
ATOM      6  C   UNL     1       7.905  -4.500  -4.340  0.00  0.00    +0.083 A 
ATOM      7  N   UNL     1       7.650  -3.200  -3.998  0.00  0.00    -0.361 N 
ATOM      8  H   UNL     1       8.072  -2.385  -4.423  0.00  0.00    +0.165 HD
ATOM      9  C   UNL     1       6.723  -3.155  -2.980  0.00  0.00    +0.048 A 
ATOM     10  C   UNL     1       6.159  -2.048  -2.347  0.00  0.00    +0.050 A 
ENDROOT
BRANCH   1  12
ATOM     11  C   UNL     1       5.001   0.171  -0.789  0.00  0.00    +0.325 C 
ATOM     12  N   UNL     1       4.606  -1.147  -0.689  0.00  0.00    -0.275 N 
ATOM     13  H   UNL     1       3.855  -1.338  -0.018  0.00  0.00    +0.155 HD
ATOM     14  O   UNL     1       6.000   0.648  -1.321  0.00  0.00    -0.263 OA
BRANCH  11  15
ATOM     15  C   UNL     1       4.067   1.183  -0.111  0.00  0.00    +0.393 C 
ATOM     16  O   UNL     1       2.984   0.893   0.354  0.00  0.00    -0.240 OA
BRANCH  15  17
ATOM     17  O   UNL     1       4.618   2.415  -0.153  0.00  0.00    -0.474 OA
ATOM     18  H   UNL     1       5.486   2.354  -0.616  0.00  0.00    +0.296 HD
ENDBRANCH  15  17
ENDBRANCH  11  15
ENDBRANCH   1  12
BRANCH   2  19
ATOM     19  C   UNL     1       3.972  -3.827   0.197  0.00  0.00    +0.339 C 
ATOM     20  O   UNL     1       3.840  -3.034   1.115  0.00  0.00    -0.245 OA
BRANCH  19  21
ATOM     21  O   UNL     1       3.251  -4.964   0.113  0.00  0.00    -0.477 OA
ATOM     22  H   UNL     1       3.281  -5.428  -0.744  0.00  0.00    +0.295 HD
ENDBRANCH  19  21
ENDBRANCH   2  19
TORSDOF 5
