REMARK  Name = 
REMARK  8 active torsions:
REMARK  status: ('A' for Active; 'I' for Inactive)
REMARK    1  A    between atoms: N_1  and  C_2
REMARK    2  A    between atoms: C_2  and  C_4
REMARK    3  A    between atoms: C_2  and  C_10
REMARK    4  A    between atoms: C_4  and  O_5
REMARK    5  A    between atoms: O_5  and  P_6
REMARK    6  A    between atoms: P_6  and  O_7
REMARK    7  A    between atoms: P_6  and  O_8
REMARK    8  A    between atoms: C_10  and  O_11
REMARK                            x       y       z     vdW  Elec       q    Type
REMARK                         _______ _______ _______ _____ _____    ______ ____
ROOT
ATOM      1  C   UNK     1       2.331  -0.044  -0.017  0.00  0.00    +0.187 C 
ENDROOT
BRANCH   1   2
ATOM      2  N   UNK     1       2.643   0.965   1.051  0.00  0.00    -0.317 NA
ATOM      3  H   UNK     1       3.650   1.159   1.034  0.00  0.00    +0.119 HD
ATOM      4  H   UNK     1       2.206   1.850   0.779  0.00  0.00    +0.119 HD
ENDBRANCH   1   2
BRANCH   1   5
ATOM      5  C   UNK     1       2.783  -1.420   0.503  0.00  0.00    +0.324 C 
ATOM      6  O   UNK     1       3.080  -2.393  -0.167  0.00  0.00    -0.249 OA
BRANCH   5   7
ATOM      7  O   UNK     1       2.806  -1.433   1.868  0.00  0.00    -0.479 OA
ATOM      8  H   UNK     1       2.576  -0.515   2.152  0.00  0.00    +0.295 HD
ENDBRANCH   5   7
ENDBRANCH   1   5
BRANCH   1   9
ATOM      9  C   UNK     1       3.011   0.279  -1.348  0.00  0.00    +0.202 C 
BRANCH   9  10
ATOM     10  O   UNK     1       2.477  -0.547  -2.377  0.00  0.00    -0.285 OA
BRANCH  10  11
ATOM     11  P   UNK     1       3.159  -0.237  -3.936  0.00  0.00    +0.472 P 
ATOM     12  O   UNK     1       3.770   0.040  -5.332  0.00  0.00    -0.228 OA
BRANCH  11  13
ATOM     13  O   UNK     1       1.970   0.877  -4.097  0.00  0.00    -0.303 OA
ATOM     14  H   UNK     1       1.194   0.385  -4.426  0.00  0.00    +0.222 HD
ENDBRANCH  11  13
BRANCH  11  15
ATOM     15  O   UNK     1       2.227  -1.466  -4.481  0.00  0.00    -0.303 OA
ATOM     16  H   UNK     1       2.742  -1.968  -5.142  0.00  0.00    +0.222 HD
ENDBRANCH  11  15
ENDBRANCH  10  11
ENDBRANCH   9  10
ENDBRANCH   1   9
TORSDOF 8
