REMARK  Name = 
REMARK  3 active torsions:
REMARK  status: ('A' for Active; 'I' for Inactive)
REMARK    1  A    between atoms: C_1  and  C_2
REMARK    2  A    between atoms: C_8  and  C_10
REMARK    3  A    between atoms: C_14  and  C_19
REMARK                            x       y       z     vdW  Elec       q    Type
REMARK                         _______ _______ _______ _____ _____    ______ ____
ROOT
ATOM      1  C   UNL     1       5.353  -2.541  -0.024  0.00  0.00    +0.047 A 
ATOM      2  N   UNL     1       6.590  -2.678  -0.615  0.00  0.00    -0.354 N 
ATOM      3  H   UNL     1       7.081  -1.851  -0.962  0.00  0.00    +0.166 HD
ATOM      4  C   UNL     1       6.925  -3.997  -0.775  0.00  0.00    +0.047 A 
ATOM      5  C   UNL     1       5.929  -4.737  -0.151  0.00  0.00    +0.001 A 
ATOM      6  C   UNL     1       6.013  -6.142  -0.177  0.00  0.00    +0.025 A 
ATOM      7  C   UNL     1       7.051  -6.773  -0.894  0.00  0.00    +0.061 A 
ATOM      8  C   UNL     1       8.037  -5.977  -1.505  0.00  0.00    +0.018 A 
ATOM      9  C   UNL     1       8.007  -4.580  -1.435  0.00  0.00    +0.027 A 
ATOM     10  C   UNL     1       4.974  -3.815   0.363  0.00  0.00    +0.036 A 
ENDROOT
BRANCH   1  14
ATOM     11  C   UNL     1       1.201  -0.007   1.049  0.00  0.00    +0.044 C 
ATOM     12  C   UNL     1       2.618   0.006   0.566  0.00  0.00    -0.049 A 
ATOM     13  C   UNL     1       3.363  -1.172   0.534  0.00  0.00    +0.012 A 
ATOM     14  C   UNL     1       4.690  -1.209   0.043  0.00  0.00    -0.008 A 
ATOM     15  C   UNL     1       5.349  -0.017  -0.436  0.00  0.00    -0.085 A 
ATOM     16  O   UNL     1       6.551  -0.009  -0.901  0.00  0.00    -0.873 OA
ATOM     17  C   UNL     1       4.544   1.158  -0.362  0.00  0.00    +0.011 A 
ATOM     18 BR   UNL     1       5.205   2.865  -0.956  0.00  0.00    -0.051 Br
ATOM     19  C   UNL     1       3.222   1.172   0.120  0.00  0.00    +0.018 A 
ENDBRANCH   1  14
BRANCH   7  20
ATOM     20  C   UNL     1       7.069  -8.239  -1.035  0.00  0.00    +0.266 C 
ATOM     21  N   UNL     1       8.213  -8.885  -1.123  0.00  0.00    -0.288 N 
ATOM     22  H   UNL     1       8.264  -9.886  -1.237  0.00  0.00    +0.301 HD
ATOM     23  H   UNL     1       9.086  -8.374  -1.065  0.00  0.00    +0.301 HD
ATOM     24  N   UNL     1       5.933  -8.906  -1.079  0.00  0.00    -0.250 N 
ATOM     25  H   UNL     1       5.890  -9.911  -1.163  0.00  0.00    +0.288 HD
ATOM     26  H   UNL     1       5.051  -8.402  -1.060  0.00  0.00    +0.288 HD
ENDBRANCH   7  20
TORSDOF 2
