REMARK  Name = 
REMARK  6 active torsions:
REMARK  status: ('A' for Active; 'I' for Inactive)
REMARK    1  A    between atoms: C_1  and  C_2
REMARK    2  A    between atoms: C_2  and  O_4
REMARK    3  A    between atoms: C_2  and  C_5
REMARK    4  A    between atoms: C_5  and  N_7
REMARK    5  A    between atoms: C_5  and  C_8
REMARK    6  A    between atoms: C_8  and  C_9
REMARK                            x       y       z     vdW  Elec       q    Type
REMARK                         _______ _______ _______ _____ _____    ______ ____
ROOT
ATOM      1  C   UNL     1       2.985   1.136  -0.978  0.00  0.00    +0.084 C 
ENDROOT
BRANCH   1   2
ATOM      2  N   UNL     1       2.438   0.744  -2.296  0.00  0.00    -0.325 NA
ATOM      3  H   UNL     1       1.420   0.738  -2.204  0.00  0.00    +0.119 HD
ATOM      4  H   UNL     1       2.660   1.477  -2.972  0.00  0.00    +0.119 HD
ENDBRANCH   1   2
BRANCH   1   6
ATOM      5  C   UNL     1       2.849  -1.290  -0.093  0.00  0.00    +0.039 C 
ATOM      6  C   UNL     1       2.492   0.176   0.132  0.00  0.00    +0.128 C 
BRANCH   6   7
ATOM      7  O   UNL     1       1.063   0.298   0.223  0.00  0.00    -0.391 OA
ATOM      8  H   UNL     1       0.761  -0.326   0.905  0.00  0.00    +0.210 HD
ENDBRANCH   6   7
ENDBRANCH   1   6
BRANCH   1   9
ATOM      9  C   UNL     1       4.525   1.254  -1.021  0.00  0.00    +0.056 C 
BRANCH   9  10
ATOM     10  C   UNL     1       4.993   2.307  -2.004  0.00  0.00    -0.046 A 
ATOM     11  C   UNL     1       5.686   1.934  -3.163  0.00  0.00    +0.004 A 
ATOM     12  C   UNL     1       6.013   2.887  -4.129  0.00  0.00    +0.000 A 
ATOM     13  C   UNL     1       5.654   4.221  -3.942  0.00  0.00    +0.000 A 
ATOM     14  C   UNL     1       4.992   4.608  -2.779  0.00  0.00    +0.000 A 
ATOM     15  C   UNL     1       4.674   3.658  -1.808  0.00  0.00    +0.004 A 
ENDBRANCH   9  10
ENDBRANCH   1   9
TORSDOF 5
