REMARK  Name = 
REMARK  7 active torsions:
REMARK  status: ('A' for Active; 'I' for Inactive)
REMARK    1  A    between atoms: C_1  and  C_2
REMARK    2  A    between atoms: C_2  and  O_3
REMARK    3  A    between atoms: O_3  and  C_4
REMARK    4  A    between atoms: C_10  and  N_12
REMARK    5  A    between atoms: C_13  and  C_15
REMARK    6  A    between atoms: C_24  and  N_30
REMARK    7  A    between atoms: C_31  and  C_33
REMARK                            x       y       z     vdW  Elec       q    Type
REMARK                         _______ _______ _______ _____ _____    ______ ____
ROOT
ATOM      1  C   UNL     1       4.633  -4.109  -0.915  0.00  0.00    +0.183 C 
ATOM      2  N   UNL     1       4.957  -3.369  -2.130  0.00  0.00    -0.204 N 
ATOM      3  C   UNL     1       5.287  -2.020  -2.099  0.00  0.00    +0.253 C 
ATOM      4  C   UNL     1       4.937  -1.202  -3.368  0.00  0.00    +0.161 C 
ATOM      5  C   UNL     1       5.829  -1.453  -4.587  0.00  0.00    +0.041 C 
ATOM      6  C   UNL     1       5.608  -2.826  -5.223  0.00  0.00    +0.100 C 
ATOM      7  C   UNL     1       6.012  -3.853  -4.205  0.00  0.00    +0.232 C 
ATOM      8  O   UNL     1       7.188  -4.145  -3.996  0.00  0.00    -0.274 OA
ATOM      9  O   UNL     1       5.718  -1.481  -1.077  0.00  0.00    -0.272 OA
ATOM     10  N   UNL     1       5.020  -4.160  -3.298  0.00  0.00    -0.217 N 
ATOM     11  C   UNL     1       3.763  -4.811  -3.623  0.00  0.00    +0.131 C 
ATOM     12  C   UNL     1       3.330  -5.698  -2.456  0.00  0.00    +0.023 C 
ATOM     13  C   UNL     1       3.343  -4.928  -1.131  0.00  0.00    +0.035 C 
ENDROOT
BRANCH   1  16
ATOM     14  N   UNL     1       6.684  -5.492  -1.206  0.00  0.00    -0.304 N 
ATOM     15  H   UNL     1       6.738  -5.116  -2.154  0.00  0.00    +0.149 HD
ATOM     16  C   UNL     1       5.779  -4.942  -0.323  0.00  0.00    +0.236 C 
ATOM     17  O   UNL     1       5.787  -5.242   0.872  0.00  0.00    -0.274 OA
BRANCH  14  19
ATOM     18  C   UNL     1       8.711  -6.889  -1.823  0.00  0.00    +0.331 C 
ATOM     19  C   UNL     1       7.793  -6.313  -0.739  0.00  0.00    +0.152 C 
ATOM     20  C   UNL     1       7.335  -7.544   0.020  0.00  0.00    +0.149 C 
ATOM     21  C   UNL     1       8.244  -8.618  -0.468  0.00  0.00    +0.311 C 
ATOM     22  O   UNL     1       8.189  -9.789  -0.119  0.00  0.00    -0.251 OA
ATOM     23  O   UNL     1       9.179  -8.129  -1.318  0.00  0.00    -0.433 OA
BRANCH  18  24
ATOM     24  O   UNL     1       8.018  -7.089  -3.060  0.00  0.00    -0.340 OA
BRANCH  24  26
ATOM     25  C   UNL     1       8.147  -7.705  -5.375  0.00  0.00    +0.034 C 
ATOM     26  C   UNL     1       8.908  -7.571  -4.072  0.00  0.00    +0.161 C 
ENDBRANCH  24  26
ENDBRANCH  18  24
ENDBRANCH  14  19
ENDBRANCH   1  16
BRANCH   4  27
ATOM     27  N   UNL     1       4.966   0.216  -3.021  0.00  0.00    -0.299 N 
ATOM     28  H   UNL     1       5.596   0.544  -2.287  0.00  0.00    +0.150 HD
ATOM     29  C   UNL     1       4.074   1.134  -3.543  0.00  0.00    +0.264 C 
ATOM     30  O   UNL     1       3.220   0.799  -4.355  0.00  0.00    -0.268 OA
BRANCH  29  31
ATOM     31  C   UNL     1       4.244   2.546  -3.019  0.00  0.00    +0.133 A 
ATOM     32  C   UNL     1       3.467   3.640  -3.480  0.00  0.00    +0.013 A 
ATOM     33  C   UNL     1       3.719   4.885  -2.851  0.00  0.00    -0.014 A 
ATOM     34  C   UNL     1       2.989   6.029  -3.222  0.00  0.00    +0.008 A 
ATOM     35  C   UNL     1       2.022   5.970  -4.223  0.00  0.00    +0.001 A 
ATOM     36  C   UNL     1       1.771   4.768  -4.866  0.00  0.00    +0.001 A 
ATOM     37  C   UNL     1       4.702   4.981  -1.859  0.00  0.00    +0.028 A 
ATOM     38  C   UNL     1       5.417   3.852  -1.508  0.00  0.00    +0.112 A 
ATOM     39  C   UNL     1       2.478   3.620  -4.499  0.00  0.00    +0.011 A 
ATOM     40  N   UNL     1       5.214   2.639  -2.056  0.00  0.00    -0.250 NA
ENDBRANCH  29  31
ENDBRANCH   4  27
TORSDOF 6
