REMARK  Name = 
REMARK  7 active torsions:
REMARK  status: ('A' for Active; 'I' for Inactive)
REMARK    1  A    between atoms: C_1  and  N_2
REMARK    2  A    between atoms: C_3  and  C_4
REMARK    3  A    between atoms: C_4  and  C_5
REMARK    4  A    between atoms: C_5  and  O_6
REMARK    5  A    between atoms: C_9  and  C_10
REMARK    6  A    between atoms: C_11  and  C_12
REMARK    7  A    between atoms: C_12  and  C_14
REMARK                            x       y       z     vdW  Elec       q    Type
REMARK                         _______ _______ _______ _____ _____    ______ ____
ROOT
ATOM      1  C   UNL     1       1.127   0.403   0.276  0.00  0.00    +0.149 C 
ATOM      2  N   UNL     1       2.550   0.162   0.129  0.00  0.00    -0.344 N 
ATOM      3  C   UNL     1       3.178  -1.082   0.109  0.00  0.00    +0.093 A 
ATOM      4  C   UNL     1       4.554  -0.821   0.065  0.00  0.00    -0.022 A 
ATOM      5  C   UNL     1       5.659  -1.826   0.042  0.00  0.00    +0.046 C 
ATOM      6  C   UNL     1       4.736   0.580   0.019  0.00  0.00    +0.027 A 
ATOM      7  C   UNL     1       3.495   1.176   0.046  0.00  0.00    +0.030 A 
ENDROOT
BRANCH   3   8
ATOM      8  C   UNL     1       2.611  -2.435   0.218  0.00  0.00    +0.210 C 
ATOM      9  O   UNL     1       3.226  -3.331   0.801  0.00  0.00    -0.285 OA
BRANCH   8  10
ATOM     10  C   UNL     1       1.309  -2.858  -0.379  0.00  0.00    +0.024 A 
ATOM     11  C   UNL     1       0.749  -2.262  -1.516  0.00  0.00    +0.013 A 
ATOM     12  C   UNL     1      -0.474  -2.724  -2.024  0.00  0.00    +0.021 A 
ATOM     13  C   UNL     1      -1.120  -3.803  -1.428  0.00  0.00    +0.041 A 
ATOM     14 CL   UNL     1      -2.625  -4.358  -2.050  0.00  0.00    -0.084 Cl
ATOM     15  C   UNL     1      -0.550  -4.447  -0.333  0.00  0.00    +0.021 A 
ATOM     16  C   UNL     1       0.659  -3.974   0.187  0.00  0.00    +0.013 A 
ENDBRANCH   8  10
ENDBRANCH   3   8
BRANCH   7  17
ATOM     17  C   UNL     1       3.186   2.649  -0.064  0.00  0.00    +0.173 C 
BRANCH  17  18
ATOM     18  C   UNL     1       2.992   3.391   1.243  0.00  0.00    +0.311 C 
ATOM     19  O   UNL     1       2.583   4.548   1.275  0.00  0.00    -0.251 OA
BRANCH  18  20
ATOM     20  O   UNL     1       3.310   2.739   2.377  0.00  0.00    -0.480 OA
ATOM     21  H   UNL     1       3.681   1.847   2.232  0.00  0.00    +0.295 HD
ENDBRANCH  18  20
ENDBRANCH  17  18
ENDBRANCH   7  17
TORSDOF 5
