REMARK  Name = 
REMARK  7 active torsions:
REMARK  status: ('A' for Active; 'I' for Inactive)
REMARK    1  A    between atoms: C_1  and  C_2
REMARK    2  A    between atoms: C_2  and  C_3
REMARK    3  A    between atoms: C_3  and  N_5
REMARK    4  A    between atoms: C_3  and  C_6
REMARK    5  A    between atoms: C_6  and  C_7
REMARK    6  A    between atoms: C_7  and  C_8
REMARK    7  A    between atoms: C_8  and  O_9
REMARK                            x       y       z     vdW  Elec       q    Type
REMARK                         _______ _______ _______ _____ _____    ______ ____
ROOT
ATOM      1  C   UNL     1       3.027   0.221  -1.397  0.00  0.00    +0.051 C 
ENDROOT
BRANCH   1   2
ATOM      2  N   UNL     1       2.526   1.533  -1.812  0.00  0.00    -0.327 NA
ATOM      3  H   UNL     1       1.511   1.490  -1.919  0.00  0.00    +0.118 HD
ATOM      4  H   UNL     1       2.687   2.219  -1.076  0.00  0.00    +0.118 HD
ENDBRANCH   1   2
BRANCH   1   6
ATOM      5  C   UNL     1       2.757  -0.758  -3.786  0.00  0.00    +0.005 C 
ATOM      6  C   UNL     1       2.450  -0.888  -2.299  0.00  0.00    +0.015 C 
ENDBRANCH   1   6
BRANCH   1   7
ATOM      7  C   UNL     1       4.565   0.221  -1.362  0.00  0.00    +0.029 C 
BRANCH   7   8
ATOM      8  C   UNL     1       5.123   1.203  -0.328  0.00  0.00    +0.122 C 
BRANCH   8   9
ATOM      9  C   UNL     1       6.620   1.100  -0.189  0.00  0.00    +0.305 C 
ATOM     10  O   UNL     1       7.185   0.749   0.834  0.00  0.00    -0.251 OA
BRANCH   9  11
ATOM     11  O   UNL     1       7.293   1.478  -1.298  0.00  0.00    -0.481 OA
ATOM     12  H   UNL     1       6.715   1.777  -2.027  0.00  0.00    +0.295 HD
ENDBRANCH   9  11
ENDBRANCH   8   9
ENDBRANCH   7   8
ENDBRANCH   1   7
TORSDOF 6
