REMARK  Name = 
REMARK  6 active torsions:
REMARK  status: ('A' for Active; 'I' for Inactive)
REMARK    1  A    between atoms: CA_2  and  N_3
REMARK    2  A    between atoms: CA_2  and  C_4
REMARK    3  A    between atoms: CA_2  and  C_17
REMARK    4  A    between atoms: C_4  and  C_5
REMARK    5  A    between atoms: C_8  and  C_11
REMARK    6  A    between atoms: C_17  and  O_18
REMARK                            x       y       z     vdW  Elec       q    Type
REMARK                         _______ _______ _______ _____ _____    ______ ____
ROOT
ATOM      1  C   UNL     1       2.214   2.294  -0.588  0.00  0.00    -0.045 A 
ATOM      2  C   UNL     1       2.333   3.638  -0.222  0.00  0.00    +0.004 A 
ATOM      3  C   UNL     1       2.143   4.658  -1.164  0.00  0.00    +0.009 A 
ATOM      4  C   UNL     1       1.842   4.372  -2.507  0.00  0.00    -0.018 A 
ATOM      5  C   UNL     1       1.641   3.020  -2.834  0.00  0.00    +0.009 A 
ATOM      6  C   UNL     1       1.797   2.001  -1.889  0.00  0.00    +0.004 A 
ENDROOT
BRANCH   4   7
ATOM      7  C   UNL     1       1.790   5.433  -3.543  0.00  0.00    -0.018 A 
ATOM      8  C   UNL     1       2.595   6.584  -3.453  0.00  0.00    +0.008 A 
ATOM      9  C   UNL     1       2.590   7.565  -4.449  0.00  0.00    +0.001 A 
ATOM     10  C   UNL     1       1.785   7.414  -5.573  0.00  0.00    +0.000 A 
ATOM     11  C   UNL     1       0.978   6.287  -5.692  0.00  0.00    +0.001 A 
ATOM     12  C   UNL     1       0.975   5.316  -4.685  0.00  0.00    +0.008 A 
ENDBRANCH   4   7
BRANCH   1  13
ATOM     13  C   UNL     1       2.543   1.213   0.418  0.00  0.00    +0.065 C 
BRANCH  13  14
ATOM     14  CA  UNL     1       3.182  -0.080  -0.130  0.00  0.00    +0.165 C 
BRANCH  14  15
ATOM     15  N   UNL     1       3.325  -1.056   0.978  0.00  0.00    -0.318 NA
ATOM     16  H1  UNL     1       3.653  -1.969   0.671  0.00  0.00    +0.119 HD
ATOM     17  H2  UNL     1       3.798  -0.692   1.800  0.00  0.00    +0.119 HD
ENDBRANCH  14  15
BRANCH  14  18
ATOM     18  C   UNL     1       4.533   0.193  -0.834  0.00  0.00    +0.322 C 
ATOM     19  OXT UNL     1       4.676   0.816  -1.874  0.00  0.00    -0.249 OA
BRANCH  18  20
ATOM     20  O   UNL     1       5.597  -0.368  -0.204  0.00  0.00    -0.480 OA
ATOM     21  H   UNL     1       5.303  -0.866   0.577  0.00  0.00    +0.295 HD
ENDBRANCH  18  20
ENDBRANCH  14  18
ENDBRANCH  13  14
ENDBRANCH   1  13
TORSDOF 6
