REMARK  Name = 
REMARK  5 active torsions:
REMARK  status: ('A' for Active; 'I' for Inactive)
REMARK    1  A    between atoms: N_11  and  C1*_12
REMARK    2  A    between atoms: C4*_15  and  C5*_17
REMARK    3  A    between atoms: C5*_17  and  O5*_18
REMARK    4  A    between atoms: C3*_19  and  O3*_21
REMARK    5  A    between atoms: C2*_22  and  O2*_24
REMARK                            x       y       z     vdW  Elec       q    Type
REMARK                         _______ _______ _______ _____ _____    ______ ____
ROOT
ATOM      1  N   UNL     1       8.086   2.227  -5.853  0.00  0.00    -0.341 N 
ATOM      2  H   UNL     1       8.230   3.229  -5.905  0.00  0.00    +0.144 HD
ATOM      3  H   UNL     1       8.684   1.633  -6.413  0.00  0.00    +0.144 HD
ATOM      4  C   UNL     1       7.913   1.749  -4.561  0.00  0.00    +0.150 A 
ATOM      5  C   UNL     1       7.532   2.568  -3.484  0.00  0.00    +0.147 A 
ATOM      6  N   UNL     1       7.270   3.915  -3.390  0.00  0.00    -0.231 NA
ATOM      7  C   UNL     1       6.953   4.108  -2.128  0.00  0.00    +0.203 A 
ATOM      8  N   UNL     1       7.030   2.949  -1.388  0.00  0.00    -0.285 N 
ATOM      9  C   UNL     1       7.377   1.948  -2.256  0.00  0.00    +0.170 A 
ATOM     10  N   UNL     1       7.543   0.645  -1.993  0.00  0.00    -0.182 NA
ATOM     11  C   UNL     1       7.941  -0.037  -3.085  0.00  0.00    +0.313 A 
ATOM     12  F   UNL     1       8.187  -1.344  -2.904  0.00  0.00    -0.161 F 
ATOM     13  N   UNL     1       8.139   0.439  -4.331  0.00  0.00    -0.185 NA
ENDROOT
BRANCH   8  14
ATOM     14  C1* UNL     1       6.692   2.837   0.020  0.00  0.00    +0.253 C 
ATOM     15  C2* UNL     1       7.435   1.792   0.874  0.00  0.00    +0.195 C 
ATOM     16  C3* UNL     1       8.560   2.567   1.567  0.00  0.00    +0.178 C 
ATOM     17  C4* UNL     1       8.388   3.993   1.064  0.00  0.00    +0.177 C 
ATOM     18  O4* UNL     1       7.002   4.101   0.676  0.00  0.00    -0.346 OA
BRANCH  15  19
ATOM     19  O2* UNL     1       6.547   1.257   1.880  0.00  0.00    -0.385 OA
ATOM     20  H2* UNL     1       6.140   1.996   2.362  0.00  0.00    +0.210 HD
ENDBRANCH  15  19
BRANCH  16  21
ATOM     21  O3* UNL     1       9.835   2.051   1.208  0.00  0.00    -0.386 OA
ATOM     22  H3* UNL     1      10.498   2.414   1.821  0.00  0.00    +0.210 HD
ENDBRANCH  16  21
BRANCH  17  23
ATOM     23  C5* UNL     1       8.731   5.038   2.119  0.00  0.00    +0.190 C 
BRANCH  23  24
ATOM     24  O5* UNL     1       8.526   6.349   1.599  0.00  0.00    -0.392 OA
ATOM     25  H5* UNL     1       7.604   6.381   1.282  0.00  0.00    +0.210 HD
ENDBRANCH  23  24
ENDBRANCH  17  23
ENDBRANCH   8  14
TORSDOF 5
