REMARK  Name = 
REMARK  6 active torsions:
REMARK  status: ('A' for Active; 'I' for Inactive)
REMARK    1  A    between atoms: N_1  and  CA_2
REMARK    2  A    between atoms: CA_2  and  C_4
REMARK    3  A    between atoms: CA_2  and  C_7
REMARK    4  A    between atoms: C_4  and  O_5
REMARK    5  A    between atoms: C_9  and  O_10
REMARK    6  A    between atoms: C_12  and  O_13
REMARK                            x       y       z     vdW  Elec       q    Type
REMARK                         _______ _______ _______ _____ _____    ______ ____
ROOT
ATOM      1  C   UNL     1       2.799  -0.951   1.120  0.00  0.00    -0.013 A 
ATOM      2  C   UNL     1       2.644  -2.327   0.884  0.00  0.00    +0.051 A 
ATOM      3  C   UNL     1       2.986  -3.252   1.867  0.00  0.00    +0.121 A 
ATOM      4  C   UNL     1       3.511  -2.839   3.085  0.00  0.00    +0.090 A 
ATOM      5  C   UNL     1       3.680  -1.479   3.317  0.00  0.00    +0.121 A 
ATOM      6  C   UNL     1       3.322  -0.534   2.357  0.00  0.00    +0.051 A 
ENDROOT
BRANCH   3   7
ATOM      7  O   UNL     1       2.785  -4.571   1.590  0.00  0.00    -0.507 OA
ATOM      8  H   UNL     1       2.934  -5.083   2.403  0.00  0.00    +0.292 HD
ENDBRANCH   3   7
BRANCH   5   9
ATOM      9  O   UNL     1       4.211  -1.108   4.518  0.00  0.00    -0.507 OA
ATOM     10  H   UNL     1       4.270  -0.140   4.557  0.00  0.00    +0.292 HD
ENDBRANCH   5   9
BRANCH   1  11
ATOM     11  CA  UNL     1       2.404   0.075   0.073  0.00  0.00    +0.192 C 
BRANCH  11  12
ATOM     12  N   UNL     1       0.945   0.032  -0.164  0.00  0.00    -0.315 NA
ATOM     13  H1  UNL     1       0.742   0.698  -0.915  0.00  0.00    +0.119 HD
ATOM     14  H2  UNL     1       0.714  -0.871  -0.580  0.00  0.00    +0.119 HD
ENDBRANCH  11  12
BRANCH  11  15
ATOM     15  C   UNL     1       3.169  -0.051  -1.267  0.00  0.00    +0.326 C 
ATOM     16  OXT UNL     1       2.664   0.207  -2.355  0.00  0.00    -0.249 OA
BRANCH  15  17
ATOM     17  O   UNL     1       4.475  -0.394  -1.160  0.00  0.00    -0.479 OA
ATOM     18  H   UNL     1       4.763  -0.615  -0.252  0.00  0.00    +0.295 HD
ENDBRANCH  15  17
ENDBRANCH  11  15
ENDBRANCH   1  11
TORSDOF 6
