REMARK  Name = 
REMARK  3 active torsions:
REMARK  status: ('A' for Active; 'I' for Inactive)
REMARK    1  A    between atoms: CA_9  and  CB_11
REMARK    2  A    between atoms: CB_11  and  CG_12
REMARK    3  A    between atoms: CZ_15  and  OH_16
REMARK                            x       y       z     vdW  Elec       q    Type
REMARK                         _______ _______ _______ _____ _____    ______ ____
ROOT
ATOM      1  CA  PRO A   2       2.072  -0.042   0.052  0.00  0.00    +0.162 C 
ATOM      2  C   PRO A   2       2.228  -0.858  -1.227  0.00  0.00    +0.234 C 
ATOM      3  O   PRO A   2       2.264  -0.395  -2.360  0.00  0.00    -0.274 OA
ATOM      4  N   TYR A   1       2.015  -2.204  -1.007  0.00  0.00    -0.302 N 
ATOM      5  H   TYR A   1       1.984  -2.748  -1.861  0.00  0.00    +0.150 HD
ATOM      6  CA  TYR A   1       2.608  -2.875   0.161  0.00  0.00    +0.163 C 
ATOM      7  C   TYR A   1       2.692  -1.981   1.429  0.00  0.00    +0.237 C 
ATOM      8  O   TYR A   1       2.879  -2.451   2.549  0.00  0.00    -0.274 OA
ATOM      9  N   PRO A   2       2.800  -0.629   1.156  0.00  0.00    -0.288 N 
ATOM     10  CD  PRO A   2       3.010   0.370   2.175  0.00  0.00    +0.109 C 
ATOM     11  CG  PRO A   2       3.192   1.658   1.381  0.00  0.00    +0.021 C 
ATOM     12  CB  PRO A   2       2.554   1.401   0.006  0.00  0.00    +0.033 C 
ENDROOT
BRANCH   6  13
ATOM     13  CB  TYR A   1       4.023  -3.411  -0.148  0.00  0.00    +0.067 C 
BRANCH  13  14
ATOM     14  CG  TYR A   1       4.050  -4.344  -1.342  0.00  0.00    -0.045 A 
ATOM     15  CD2 TYR A   1       3.787  -5.713  -1.191  0.00  0.00    +0.007 A 
ATOM     16  CE2 TYR A   1       3.739  -6.548  -2.311  0.00  0.00    +0.045 A 
ATOM     17  CZ  TYR A   1       3.939  -6.018  -3.578  0.00  0.00    +0.117 A 
ATOM     18  CE1 TYR A   1       4.218  -4.667  -3.749  0.00  0.00    +0.045 A 
ATOM     19  CD1 TYR A   1       4.281  -3.835  -2.630  0.00  0.00    +0.007 A 
BRANCH  17  20
ATOM     20  OH  TYR A   1       3.848  -6.864  -4.645  0.00  0.00    -0.507 OA
ATOM     21  HH  TYR A   1       3.935  -6.342  -5.461  0.00  0.00    +0.292 HD
ENDBRANCH  17  20
ENDBRANCH  13  14
ENDBRANCH   6  13
TORSDOF 3
