REMARK  Name = 
REMARK  15 active torsions:
REMARK  status: ('A' for Active; 'I' for Inactive)
REMARK    1  A    between atoms: C_1  and  C_2
REMARK    2  A    between atoms: C_2  and  O_4
REMARK    3  A    between atoms: O_4  and  C_5
REMARK    4  A    between atoms: C_5  and  C_6
REMARK    5  A    between atoms: C_12  and  N_14
REMARK    6  A    between atoms: C_15  and  C_17
REMARK    7  A    between atoms: C_17  and  C_18
REMARK    8  A    between atoms: C_18  and  C_19
REMARK    9  A    between atoms: C_19  and  C_20
REMARK   10  A    between atoms: C_20  and  C_21
REMARK   11  A    between atoms: C_21  and  N_23
REMARK   12  A    between atoms: C_21  and  C_31
REMARK   13  A    between atoms: C_24  and  C_26
REMARK   14  A    between atoms: C_26  and  N_27
REMARK   15  A    between atoms: C_37  and  C_39
REMARK                            x       y       z     vdW  Elec       q    Type
REMARK                         _______ _______ _______ _____ _____    ______ ____
ROOT
ATOM      1  N   UNK A   1       4.324   1.137   7.451  0.00  0.00    -0.302 N 
ATOM      2  H   UNK A   1       3.505   0.914   6.900  0.00  0.00    +0.150 HD
ATOM      3  C   UNK A   0       4.205   2.128   8.421  0.00  0.00    +0.214 C 
ATOM      4  O   UNK A   0       5.136   2.641   9.027  0.00  0.00    -0.276 OA
ENDROOT
BRANCH   1   9
ATOM      5  C   UNK A   1       8.783   3.455   7.075  0.00  0.00    +0.063 C 
ATOM      6  C   UNK A   1       8.788   2.088   7.793  0.00  0.00    +0.130 C 
ATOM      7  N   UNK A   1       7.539   1.415   7.478  0.00  0.00    -0.277 N 
ATOM      8  C   UNK A   1       6.558   1.844   6.509  0.00  0.00    +0.164 C 
ATOM      9  C   UNK A   1       5.679   0.667   6.957  0.00  0.00    +0.190 C 
ATOM     10  S   UNK A   1       7.377   1.966   4.931  0.00  0.00    -0.135 S 
ATOM     11  C   UNK A   1       6.785   0.472   8.069  0.00  0.00    +0.240 C 
ATOM     12  O   UNK A   1       6.913  -0.169   9.086  0.00  0.00    -0.273 OA
ATOM     13  C   UNK A   1       8.566   3.277   5.536  0.00  0.00    +0.080 C 
BRANCH   6  14
ATOM     14  C   UNK A   1      10.115   1.373   7.387  0.00  0.00    +0.063 C 
ATOM     15  O   ACE A   2      11.165   2.015   7.699  0.00  0.00    -0.548 OA
ATOM     16  O   ACE A   2      10.014   0.278   6.769  0.00  0.00    -0.548 OA
ENDBRANCH   6  14
BRANCH   5  17
ATOM     17  C   UNK A   1       7.804   4.409   7.796  0.00  0.00    +0.238 C 
BRANCH  17  18
ATOM     18  O   UNK A   1       7.780   5.718   7.202  0.00  0.00    -0.464 OA
BRANCH  18  20
ATOM     19  C   UNK A   1       6.676   7.630   6.441  0.00  0.00    +0.136 C 
ATOM     20  C   UNK A   1       6.576   6.169   6.770  0.00  0.00    +0.304 C 
ATOM     21  O   UNK A   1       5.522   5.547   6.719  0.00  0.00    -0.251 OA
ENDBRANCH  18  20
ENDBRANCH  17  18
ENDBRANCH   5  17
ENDBRANCH   1   9
BRANCH   3  22
ATOM     22  C   UNK A   0       2.789   2.546   8.707  0.00  0.00    +0.096 C 
BRANCH  22  23
ATOM     23  C   UNK A   0       2.216   1.617   9.764  0.00  0.00    +0.009 C 
BRANCH  23  24
ATOM     24  C   UNK A   0       0.853   2.099  10.244  0.00  0.00    +0.003 C 
BRANCH  24  25
ATOM     25  C   UNK A   0       0.297   1.248  11.389  0.00  0.00    +0.028 C 
BRANCH  25  26
ATOM     26  C   UNK A   0       1.115   1.287  12.687  0.00  0.00    +0.119 C 
BRANCH  26  27
ATOM     27  N   UNK A   0       1.197   2.674  13.204  0.00  0.00    -0.303 N 
ATOM     28  H   UNK A   0       0.660   2.719  14.077  0.00  0.00    +0.150 HD
ATOM     29  C   UNK A   1       2.235   3.516  12.981  0.00  0.00    +0.259 C 
ATOM     30  O   UNK A   1       3.228   3.293  12.291  0.00  0.00    -0.270 OA
BRANCH  29  31
ATOM     31  C   UNK A   1       2.091   4.895  13.593  0.00  0.00    +0.225 C 
BRANCH  31  32
ATOM     32  N   UNK A   1       3.251   5.726  13.137  0.00  0.00    +0.225 N 
ATOM     33  H   UNK A   1       3.356   6.620  13.618  0.00  0.00    +0.200 HD
ATOM     34  H   UNK A   1       3.194   5.855  12.118  0.00  0.00    +0.200 HD
ATOM     35  H   UNK A   1       4.102   5.148  13.252  0.00  0.00    +0.200 HD
ENDBRANCH  31  32
ENDBRANCH  29  31
ENDBRANCH  26  27
BRANCH  26  36
ATOM     36  C   UNK A   0       0.379   0.390  13.745  0.00  0.00    +0.062 C 
ATOM     37  O   ACE A   2       0.038   1.056  14.774  0.00  0.00    -0.548 OA
ATOM     38  O   ACE A   2       0.221  -0.825  13.460  0.00  0.00    -0.548 OA
ENDBRANCH  26  36
ENDBRANCH  25  26
ENDBRANCH  24  25
ENDBRANCH  23  24
ENDBRANCH  22  23
ENDBRANCH   3  22
TORSDOF 14
