REMARK  Name = 
REMARK  2 active torsions:
REMARK  status: ('A' for Active; 'I' for Inactive)
REMARK    1  A    between atoms: C_1  and  C_2
REMARK    2  A    between atoms: C_2  and  C_4
REMARK                            x       y       z     vdW  Elec       q    Type
REMARK                         _______ _______ _______ _____ _____    ______ ____
ROOT
ATOM      1  C   UNL     1       3.218  -1.206   0.289  0.00  0.00    +0.017 A 
ATOM      2  C   UNL     1       2.560  -2.439   0.231  0.00  0.00    +0.011 A 
ATOM      3  C   UNL     1       3.286  -3.624   0.373  0.00  0.00    +0.001 A 
ATOM      4  C   UNL     1       4.667  -3.580   0.567  0.00  0.00    +0.000 A 
ATOM      5  C   UNL     1       5.326  -2.353   0.629  0.00  0.00    +0.001 A 
ATOM      6  C   UNL     1       4.602  -1.167   0.499  0.00  0.00    +0.011 A 
ENDROOT
BRANCH   1   8
ATOM      7  C   UNL     1       1.207   0.100  -0.645  0.00  0.00    +0.091 C 
ATOM      8  C   UNL     1       2.492   0.085   0.139  0.00  0.00    +0.160 C 
ATOM      9  O   UNL     1       2.962   1.112   0.624  0.00  0.00    -0.292 OA
ENDBRANCH   1   8
TORSDOF 1
