REMARK  Name = 
REMARK  7 active torsions:
REMARK  status: ('A' for Active; 'I' for Inactive)
REMARK    1  A    between atoms: C_1  and  C_2
REMARK    2  A    between atoms: C_10  and  C_33
REMARK    3  A    between atoms: C_12  and  C_19
REMARK    4  A    between atoms: C_14  and  C_16
REMARK    5  A    between atoms: C_16  and  O_17
REMARK    6  A    between atoms: N_21  and  C_22
REMARK    7  A    between atoms: C_25  and  C_28
REMARK                            x       y       z     vdW  Elec       q    Type
REMARK                         _______ _______ _______ _____ _____    ______ ____
ROOT
ATOM      1  C   UNL     1       1.064  -0.097   0.061  0.00  0.00    +0.044 C 
ATOM      2  C   UNL     1       2.567  -0.084   0.061  0.00  0.00    -0.050 A 
ATOM      3  C   UNL     1       3.245   1.143   0.078  0.00  0.00    +0.015 A 
ATOM      4  C   UNL     1       4.629   1.115   0.060  0.00  0.00    +0.032 A 
ATOM      5  C   UNL     1       5.340  -0.075   0.023  0.00  0.00    +0.031 A 
ATOM      6  C   UNL     1       6.778   0.205  -0.002  0.00  0.00    +0.204 C 
ATOM      7  C   UNL     1       6.977   1.717  -0.013  0.00  0.00    +0.208 C 
ATOM      8  C   UNL     1       7.760   2.121  -1.247  0.00  0.00    +0.159 C 
ATOM      9  C   UNL     1       9.039   2.738  -0.725  0.00  0.00    +0.126 C 
ATOM     10  C   UNL     1       8.904   2.808   0.790  0.00  0.00    +0.163 C 
ATOM     11  O   UNL     1       7.711   2.102   1.147  0.00  0.00    -0.348 OA
ATOM     12  O   UNL     1       7.672  -0.627  -0.024  0.00  0.00    -0.288 OA
ATOM     13  C   UNL     1       4.700  -1.298   0.013  0.00  0.00    +0.012 A 
ATOM     14  C   UNL     1       5.550   2.248   0.092  0.00  0.00    +0.204 C 
ATOM     15  O   UNL     1       5.219   3.409   0.234  0.00  0.00    -0.288 OA
ATOM     16  C   UNL     1       3.299  -1.294   0.033  0.00  0.00    +0.004 A 
ENDROOT
BRANCH  10  17
ATOM     17  C   UNL     1       8.873   4.245   1.278  0.00  0.00    -0.017 A 
ATOM     18  C   UNL     1       9.977   5.080   1.019  0.00  0.00    +0.027 A 
ATOM     19  C   UNL     1       9.969   6.427   1.396  0.00  0.00    +0.060 A 
ATOM     20 CL   UNL     1      11.348   7.381   0.985  0.00  0.00    -0.082 Cl
ATOM     21  C   UNL     1       8.861   6.951   2.064  0.00  0.00    +0.059 A 
ATOM     22 CL   UNL     1       8.759   8.610   2.530  0.00  0.00    -0.082 Cl
ATOM     23  C   UNL     1       7.779   6.121   2.367  0.00  0.00    +0.022 A 
ATOM     24  C   UNL     1       7.787   4.777   1.983  0.00  0.00    +0.008 A 
ENDBRANCH  10  17
BRANCH   9  25
ATOM     25  C   UNL     1      10.267   1.939  -1.109  0.00  0.00    +0.224 C 
ATOM     26  N   UNL     1      10.387   0.679  -0.550  0.00  0.00    -0.285 N 
ATOM     27  H   UNL     1       9.540   0.196  -0.245  0.00  0.00    +0.155 HD
ATOM     28  O   UNL     1      11.049   2.429  -1.923  0.00  0.00    -0.275 OA
BRANCH  26  29
ATOM     29  C   UNL     1      11.473  -0.155  -0.879  0.00  0.00    +0.033 A 
ATOM     30  C   UNL     1      11.208  -1.492  -1.160  0.00  0.00    +0.024 A 
ATOM     31  C   UNL     1      12.212  -2.295  -1.708  0.00  0.00    +0.012 A 
ATOM     32  C   UNL     1      13.503  -1.785  -1.916  0.00  0.00    +0.003 A 
ATOM     33  C   UNL     1      13.784  -0.472  -1.518  0.00  0.00    +0.012 A 
ATOM     34  C   UNL     1      12.773   0.341  -1.006  0.00  0.00    +0.024 A 
BRANCH  32  35
ATOM     35  C   UNL     1      14.530  -2.556  -2.602  0.00  0.00    +0.102 A 
ATOM     36  N   UNL     1      15.522  -1.922  -3.344  0.00  0.00    -0.141 NA
ATOM     37  N   UNL     1      16.335  -2.786  -3.927  0.00  0.00    -0.110 NA
ATOM     38  S   UNL     1      15.942  -4.374  -3.587  0.00  0.00    +0.029 S 
ATOM     39  C   UNL     1      14.605  -3.938  -2.604  0.00  0.00    +0.097 A 
ENDBRANCH  32  35
ENDBRANCH  26  29
ENDBRANCH   9  25
BRANCH   8  40
ATOM     40  C   UNL     1       6.953   2.969  -2.197  0.00  0.00    +0.312 C 
ATOM     41  O   UNL     1       6.257   2.442  -3.057  0.00  0.00    -0.251 OA
BRANCH  40  42
ATOM     42  O   UNL     1       6.957   4.297  -2.014  0.00  0.00    -0.480 OA
ATOM     43  H   UNL     1       7.339   4.660  -1.193  0.00  0.00    +0.295 HD
ENDBRANCH  40  42
ENDBRANCH   8  40
TORSDOF 6
