REMARK  Name = 
REMARK  10 active torsions:
REMARK  status: ('A' for Active; 'I' for Inactive)
REMARK    1  A    between atoms: O_1  and  C_2
REMARK    2  A    between atoms: C_4  and  C_6
REMARK    3  A    between atoms: C_6  and  O_7
REMARK    4  A    between atoms: O_7  and  P_8
REMARK    5  A    between atoms: P_8  and  O_9
REMARK    6  A    between atoms: P_8  and  O_10
REMARK    7  A    between atoms: C_13  and  O_14
REMARK    8  A    between atoms: C_13  and  C_18
REMARK    9  A    between atoms: C_15  and  O_17
REMARK   10  A    between atoms: C_18  and  O_19
REMARK                            x       y       z     vdW  Elec       q    Type
REMARK                         _______ _______ _______ _____ _____    ______ ____
ROOT
ATOM      1  C   UNL     1       2.445   0.021  -0.102  0.00  0.00    +0.180 C 
ATOM      2  C   UNL     1       2.962  -1.279   0.514  0.00  0.00    +0.216 C 
ATOM      3  C   UNL     1       4.155  -0.834   1.369  0.00  0.00    +0.297 C 
ATOM      4  O   UNL     1       4.277   0.582   1.293  0.00  0.00    -0.330 OA
ATOM      5  C   UNL     1       3.040   1.114   0.777  0.00  0.00    +0.179 C 
ENDROOT
BRANCH   1   6
ATOM      6  O   UNL     1       2.934   0.194  -1.436  0.00  0.00    -0.386 OA
ATOM      7  H   UNL     1       3.467  -0.596  -1.653  0.00  0.00    +0.210 HD
ENDBRANCH   1   6
BRANCH   2   8
ATOM      8  O   UNL     1       3.376  -2.192  -0.524  0.00  0.00    -0.383 OA
ATOM      9  H   UNL     1       3.504  -3.065  -0.100  0.00  0.00    +0.210 HD
ENDBRANCH   2   8
BRANCH   3  10
ATOM     10  O   UNL     1       5.385  -1.402   0.907  0.00  0.00    -0.354 OA
ATOM     11  H   UNL     1       5.243  -1.558  -0.048  0.00  0.00    +0.213 HD
ENDBRANCH   3  10
BRANCH   3  12
ATOM     12  C   UNL     1       3.980  -1.263   2.854  0.00  0.00    +0.368 C 
ATOM     13  O   UNL     1       2.913  -1.366   3.439  0.00  0.00    -0.245 OA
BRANCH  12  14
ATOM     14  O   UNL     1       5.176  -1.496   3.456  0.00  0.00    -0.477 OA
ATOM     15  H   UNL     1       5.883  -1.351   2.782  0.00  0.00    +0.295 HD
ENDBRANCH  12  14
ENDBRANCH   3  12
BRANCH   5  16
ATOM     16  C   UNL     1       2.132   1.502   1.936  0.00  0.00    +0.206 C 
BRANCH  16  17
ATOM     17  O   UNL     1       2.803   2.478   2.729  0.00  0.00    -0.284 OA
BRANCH  17  18
ATOM     18  P   UNL     1       1.912   2.905   4.149  0.00  0.00    +0.472 P 
ATOM     19  O   UNL     1       1.115   3.288   5.420  0.00  0.00    -0.228 OA
BRANCH  18  20
ATOM     20  O   UNL     1       0.925   3.811   3.210  0.00  0.00    -0.303 OA
ATOM     21  H   UNL     1       0.362   4.294   3.852  0.00  0.00    +0.222 HD
ENDBRANCH  18  20
BRANCH  18  22
ATOM     22  O   UNL     1       3.039   4.075   4.338  0.00  0.00    -0.303 OA
ATOM     23  H   UNL     1       3.001   4.667   3.570  0.00  0.00    +0.222 HD
ENDBRANCH  18  22
ENDBRANCH  17  18
ENDBRANCH  16  17
ENDBRANCH   5  16
TORSDOF 10
