REMARK  Name = 
REMARK  28 active torsions:
REMARK  status: ('A' for Active; 'I' for Inactive)
REMARK    1  A    between atoms: C_1  and  C_2
REMARK    2  A    between atoms: C_2  and  C_3
REMARK    3  A    between atoms: C_2  and  C_4
REMARK    4  A    between atoms: C_2  and  C_40
REMARK    5  A    between atoms: C_4  and  O_5
REMARK    6  A    between atoms: O_5  and  P_6
REMARK    7  A    between atoms: P_6  and  O_7
REMARK    8  A    between atoms: P_6  and  O_9
REMARK    9  A    between atoms: O_9  and  P_10
REMARK   10  A    between atoms: P_10  and  O_11
REMARK   11  A    between atoms: P_10  and  O_13
REMARK   12  A    between atoms: O_13  and  C_14
REMARK   13  A    between atoms: C_14  and  C_15
REMARK   14  A    between atoms: C_18  and  N_30
REMARK   15  A    between atoms: C_20  and  O_22
REMARK   16  A    between atoms: C_23  and  O_25
REMARK   17  A    between atoms: O_25  and  P_26
REMARK   18  A    between atoms: P_26  and  O_27
REMARK   19  A    between atoms: P_26  and  O_28
REMARK   20  A    between atoms: C_40  and  O_42
REMARK   21  A    between atoms: C_40  and  C_43
REMARK   22  A    between atoms: N_45  and  C_46
REMARK   23  A    between atoms: C_46  and  C_47
REMARK   24  A    between atoms: C_47  and  C_48
REMARK   25  A    between atoms: N_50  and  C_51
REMARK   26  A    between atoms: C_51  and  C_52
REMARK   27  A    between atoms: C_52  and  C_53
REMARK   28  A    between atoms: C_53  and  N_54
REMARK                            x       y       z     vdW  Elec       q    Type
REMARK                         _______ _______ _______ _____ _____    ______ ____
ROOT
ATOM      1  P   UNL     1      10.020   8.052  -0.934  0.00  0.00    +0.483 P 
ATOM      2  O   UNL     1      11.171   8.952  -1.385  0.00  0.00    -0.227 OA
ENDROOT
BRANCH   1   3
ATOM      3  O   UNL     1       9.971   8.293   0.681  0.00  0.00    -0.302 OA
ATOM      4  H   UNL     1      10.460   9.112   0.851  0.00  0.00    +0.222 HD
ENDBRANCH   1   3
BRANCH   1   5
ATOM      5  O   UNL     1      11.094   6.698  -0.851  0.00  0.00    -0.186 OA
BRANCH   5   6
ATOM      6  P   UNL     1      11.414   6.318   0.806  0.00  0.00    +0.483 P 
ATOM      7  O   UNL     1      10.203   5.385   0.868  0.00  0.00    -0.227 OA
BRANCH   6   8
ATOM      8  O   UNL     1      11.735   5.937   2.463  0.00  0.00    -0.302 OA
ATOM      9  H   UNL     1      10.851   5.802   2.857  0.00  0.00    +0.222 HD
ENDBRANCH   6   8
BRANCH   6  10
ATOM     10  O   UNL     1      12.797   5.492   0.350  0.00  0.00    -0.286 OA
BRANCH  10  11
ATOM     11  C   UNL     1      12.906   4.078   0.508  0.00  0.00    +0.181 C 
BRANCH  11  13
ATOM     12  C   UNL     1      15.306   3.513   0.787  0.00  0.00    +0.016 C 
ATOM     13  C   UNL     1      14.125   3.389  -0.222  0.00  0.00    +0.024 C 
ATOM     14  C   UNL     1      13.840   1.868  -0.311  0.00  0.00    +0.016 C 
BRANCH  13  15
ATOM     15  C   UNL     1      14.479   3.985  -1.660  0.00  0.00    +0.208 C 
BRANCH  15  16
ATOM     16  C   UNL     1      13.582   3.606  -2.907  0.00  0.00    +0.242 C 
ATOM     17  N   UNL     1      13.688   4.474  -4.005  0.00  0.00    -0.313 N 
ATOM     18  H   UNL     1      14.604   4.903  -4.082  0.00  0.00    +0.149 HD
ATOM     19  O   UNL     1      12.876   2.600  -2.976  0.00  0.00    -0.273 OA
BRANCH  17  20
ATOM     20  C   UNL     1      12.959   4.209  -5.258  0.00  0.00    +0.113 C 
BRANCH  20  21
ATOM     21  C   UNL     1      12.178   5.399  -5.813  0.00  0.00    +0.114 C 
BRANCH  21  22
ATOM     22  C   UNL     1      10.787   5.426  -5.247  0.00  0.00    +0.215 C 
ATOM     23  N   UNL     1      10.500   6.583  -4.595  0.00  0.00    -0.315 N 
ATOM     24  H   UNL     1      11.262   7.256  -4.580  0.00  0.00    +0.149 HD
ATOM     25  O   UNL     1       9.970   4.521  -5.386  0.00  0.00    -0.276 OA
BRANCH  23  26
ATOM     26  C   UNL     1       9.800   6.580  -3.374  0.00  0.00    +0.110 C 
BRANCH  26  27
ATOM     27  C   UNL     1       8.871   5.548  -2.692  0.00  0.00    +0.097 C 
BRANCH  27  28
ATOM     28  C   UNL     1       9.179   4.071  -2.546  0.00  0.00    +0.427 C 
BRANCH  28  29
ATOM     29  N   UNL     1      10.336   3.801  -1.687  0.00  0.00    +0.038 N 
ATOM     30  O   UNL     1      11.343   4.473  -1.905  0.00  0.00    +0.034 OA
ATOM     31  O   UNL     1      10.209   2.902  -0.841  0.00  0.00    -0.582 OA
ENDBRANCH  28  29
ENDBRANCH  27  28
ENDBRANCH  26  27
ENDBRANCH  23  26
ENDBRANCH  21  22
ENDBRANCH  20  21
ENDBRANCH  17  20
ENDBRANCH  15  16
BRANCH  15  32
ATOM     32  O   UNL     1      15.789   3.577  -2.133  0.00  0.00    -0.382 OA
ATOM     33  H   UNL     1      16.363   3.394  -1.377  0.00  0.00    +0.210 HD
ENDBRANCH  15  32
ENDBRANCH  13  15
ENDBRANCH  11  13
ENDBRANCH  10  11
ENDBRANCH   6  10
ENDBRANCH   5   6
ENDBRANCH   1   5
BRANCH   1  34
ATOM     34  O   UNL     1       8.946   9.406  -1.018  0.00  0.00    -0.284 OA
BRANCH  34  35
ATOM     35  C   UNL     1       8.102   9.390  -2.158  0.00  0.00    +0.206 C 
BRANCH  35  36
ATOM     36  C   UNL     1       7.158  10.581  -2.157  0.00  0.00    +0.179 C 
ATOM     37  C   UNL     1       6.311  10.680  -0.893  0.00  0.00    +0.194 C 
ATOM     38  C   UNL     1       7.085  11.673  -0.007  0.00  0.00    +0.196 C 
ATOM     39  C   UNL     1       8.261  12.149  -0.882  0.00  0.00    +0.253 C 
ATOM     40  O   UNL     1       7.923  11.797  -2.232  0.00  0.00    -0.346 OA
BRANCH  39  41
ATOM     41  N   UNL     1       8.550  13.563  -0.809  0.00  0.00    -0.286 N 
ATOM     42  C   UNL     1       9.171  14.174   0.247  0.00  0.00    +0.167 A 
ATOM     43  N   UNL     1       9.507  13.623   1.436  0.00  0.00    -0.216 NA
ATOM     44  C   UNL     1      10.147  14.528   2.208  0.00  0.00    +0.225 A 
ATOM     45  N   UNL     1      10.453  15.816   1.924  0.00  0.00    -0.219 NA
ATOM     46  C   UNL     1      10.106  16.311   0.715  0.00  0.00    +0.147 A 
ATOM     47  N   UNL     1      10.433  17.624   0.418  0.00  0.00    -0.341 N 
ATOM     48  H   UNL     1       9.893  18.020  -0.343  0.00  0.00    +0.144 HD
ATOM     49  H   UNL     1      10.573  18.187   1.244  0.00  0.00    +0.144 HD
ATOM     50  C   UNL     1       9.433  15.470  -0.180  0.00  0.00    +0.147 A 
ATOM     51  N   UNL     1       8.921  15.662  -1.433  0.00  0.00    -0.231 NA
ATOM     52  C   UNL     1       8.458  14.488  -1.808  0.00  0.00    +0.203 A 
ENDBRANCH  39  41
BRANCH  38  53
ATOM     53  O   UNL     1       7.552  10.994   1.169  0.00  0.00    -0.385 OA
ATOM     54  H   UNL     1       8.226  11.557   1.602  0.00  0.00    +0.210 HD
ENDBRANCH  38  53
BRANCH  37  55
ATOM     55  O   UNL     1       5.038  11.138  -1.367  0.00  0.00    -0.278 OA
BRANCH  55  56
ATOM     56  P   UNL     1       3.823  11.509  -0.193  0.00  0.00    +0.473 P 
ATOM     57  O   UNL     1       2.736  11.841   0.859  0.00  0.00    -0.228 OA
BRANCH  56  58
ATOM     58  O   UNL     1       2.873  11.757  -1.496  0.00  0.00    -0.303 OA
ATOM     59  H   UNL     1       3.388  11.566  -2.300  0.00  0.00    +0.222 HD
ENDBRANCH  56  58
BRANCH  56  60
ATOM     60  O   UNL     1       3.567   9.902  -0.079  0.00  0.00    -0.303 OA
ATOM     61  H   UNL     1       2.657   9.821   0.276  0.00  0.00    +0.222 HD
ENDBRANCH  56  60
ENDBRANCH  55  56
ENDBRANCH  37  55
ENDBRANCH  35  36
ENDBRANCH  34  35
ENDBRANCH   1  34
TORSDOF 26
