REMARK  Name = 
REMARK  7 active torsions:
REMARK  status: ('A' for Active; 'I' for Inactive)
REMARK    1  A    between atoms: C_1  and  C_2
REMARK    2  A    between atoms: C_2  and  CA_4
REMARK    3  A    between atoms: C_2  and  C_10
REMARK    4  A    between atoms: CA_4  and  N_6
REMARK    5  A    between atoms: CA_4  and  C_7
REMARK    6  A    between atoms: C_7  and  O_8
REMARK    7  A    between atoms: C_10  and  O_11
REMARK                            x       y       z     vdW  Elec       q    Type
REMARK                         _______ _______ _______ _____ _____    ______ ____
ROOT
ATOM      1  CA  UNL     1       2.908   0.767   1.261  0.00  0.00    +0.174 C 
ENDROOT
BRANCH   1   2
ATOM      2  N   UNL     1       2.577   0.207   2.596  0.00  0.00    -0.318 NA
ATOM      3  H1  UNL     1       2.751   0.928   3.306  0.00  0.00    +0.119 HD
ATOM      4  H2  UNL     1       1.569   0.034   2.651  0.00  0.00    +0.119 HD
ENDBRANCH   1   2
BRANCH   1   6
ATOM      5  C   UNL     1       0.852  -0.056  -0.004  0.00  0.00    +0.021 C 
ATOM      6  C   UNL     1       2.380  -0.025   0.051  0.00  0.00    +0.122 C 
BRANCH   6   7
ATOM      7  C   UNL     1       2.920  -1.441   0.028  0.00  0.00    +0.310 C 
ATOM      8  O   UNL     1       2.372  -2.398   0.556  0.00  0.00    -0.251 OA
BRANCH   7   9
ATOM      9  O   UNL     1       4.091  -1.578  -0.634  0.00  0.00    -0.480 OA
ATOM     10  H   UNL     1       4.494  -0.760  -0.991  0.00  0.00    +0.295 HD
ENDBRANCH   7   9
ENDBRANCH   6   7
ENDBRANCH   1   6
BRANCH   1  11
ATOM     11  C   UNL     1       4.432   0.861   1.141  0.00  0.00    +0.323 C 
ATOM     12  OXT UNL     1       5.014   1.511   0.287  0.00  0.00    -0.249 OA
BRANCH  11  13
ATOM     13  O   UNL     1       5.059   0.033   2.009  0.00  0.00    -0.480 OA
ATOM     14  H   UNL     1       4.359  -0.431   2.535  0.00  0.00    +0.295 HD
ENDBRANCH  11  13
ENDBRANCH   1  11
TORSDOF 6
