REMARK  Name = 
REMARK  9 active torsions:
REMARK  status: ('A' for Active; 'I' for Inactive)
REMARK    1  A    between atoms: N_1  and  CA_2
REMARK    2  A    between atoms: CA_2  and  C_4
REMARK    3  A    between atoms: CA_2  and  C_6
REMARK    4  A    between atoms: C_4  and  O_5
REMARK    5  A    between atoms: N_8  and  C_9
REMARK    6  A    between atoms: C_11  and  C_13
REMARK    7  A    between atoms: C_13  and  O_14
REMARK    8  A    between atoms: C_16  and  N_21
REMARK    9  A    between atoms: C_18  and  O_20
REMARK                            x       y       z     vdW  Elec       q    Type
REMARK                         _______ _______ _______ _____ _____    ______ ____
ROOT
ATOM      1  C   UNL     1       4.918  -1.270  -2.834  0.00  0.00    +0.137 C 
ATOM      2  C   UNL     1       4.768  -2.793  -2.958  0.00  0.00    +0.187 C 
ATOM      3  C   UNL     1       6.033  -3.239  -3.708  0.00  0.00    +0.253 C 
ATOM      4  O   UNL     1       6.832  -2.068  -3.976  0.00  0.00    -0.346 OA
ATOM      5  C   UNL     1       6.417  -1.055  -3.036  0.00  0.00    +0.169 C 
ENDROOT
BRANCH   3   6
ATOM      6  N   UNL     1       6.831  -4.211  -2.974  0.00  0.00    -0.286 N 
ATOM      7  C   UNL     1       6.398  -5.448  -2.576  0.00  0.00    +0.167 A 
ATOM      8  N   UNL     1       5.160  -5.963  -2.692  0.00  0.00    -0.216 NA
ATOM      9  C   UNL     1       5.122  -7.216  -2.183  0.00  0.00    +0.225 A 
ATOM     10  N   UNL     1       6.128  -7.938  -1.641  0.00  0.00    -0.219 NA
ATOM     11  C   UNL     1       7.357  -7.376  -1.575  0.00  0.00    +0.147 A 
ATOM     12  N   UNL     1       8.401  -8.130  -1.055  0.00  0.00    -0.341 N 
ATOM     13  H   UNL     1       9.184  -7.570  -0.735  0.00  0.00    +0.144 HD
ATOM     14  H   UNL     1       8.082  -8.885  -0.463  0.00  0.00    +0.144 HD
ATOM     15  C   UNL     1       7.517  -6.061  -2.034  0.00  0.00    +0.147 A 
ATOM     16  N   UNL     1       8.602  -5.211  -2.059  0.00  0.00    -0.231 NA
ATOM     17  C   UNL     1       8.152  -4.110  -2.623  0.00  0.00    +0.203 A 
ENDBRANCH   3   6
BRANCH   1  19
ATOM     18  C   UNL     1       4.851  -1.169  -0.350  0.00  0.00    +0.232 C 
ATOM     19  N   UNL     1       4.397  -0.737  -1.580  0.00  0.00    -0.306 N 
ATOM     20  H   UNL     1       3.868   0.133  -1.577  0.00  0.00    +0.149 HD
ATOM     21  O   UNL     1       5.690  -2.060  -0.232  0.00  0.00    -0.274 OA
BRANCH  18  22
ATOM     22  CA  UNL     1       4.218  -0.450   0.848  0.00  0.00    +0.163 C 
BRANCH  22  23
ATOM     23  N   UNL     1       4.390   1.014   0.676  0.00  0.00    -0.318 NA
ATOM     24  H1  UNL     1       3.900   1.480   1.443  0.00  0.00    +0.119 HD
ATOM     25  H2  UNL     1       5.378   1.211   0.878  0.00  0.00    +0.119 HD
ENDBRANCH  22  23
BRANCH  22  26
ATOM     26  C   UNL     1       4.865  -0.961   2.146  0.00  0.00    +0.183 C 
BRANCH  26  27
ATOM     27  O   UNL     1       6.260  -0.647   2.177  0.00  0.00    -0.393 OA
ATOM     28  H   UNL     1       6.681  -1.239   1.518  0.00  0.00    +0.209 HD
ENDBRANCH  26  27
ENDBRANCH  22  26
ENDBRANCH  18  22
ENDBRANCH   1  19
BRANCH   2  29
ATOM     29  O   UNL     1       3.571  -3.111  -3.683  0.00  0.00    -0.385 OA
ATOM     30  H   UNL     1       3.438  -4.074  -3.578  0.00  0.00    +0.210 HD
ENDBRANCH   2  29
BRANCH   5  31
ATOM     31  C   UNL     1       6.781   0.319  -3.592  0.00  0.00    +0.189 C 
BRANCH  31  32
ATOM     32  O   UNL     1       8.202   0.428  -3.699  0.00  0.00    -0.392 OA
ATOM     33  H   UNL     1       8.502  -0.361  -4.188  0.00  0.00    +0.210 HD
ENDBRANCH  31  32
ENDBRANCH   5  31
TORSDOF 9
