REMARK  Name = 
REMARK  7 active torsions:
REMARK  status: ('A' for Active; 'I' for Inactive)
REMARK    1  A    between atoms: O_1  and  C_2
REMARK    2  A    between atoms: C_5  and  C_6
REMARK    3  A    between atoms: C_6  and  C_7
REMARK    4  A    between atoms: C_13  and  C_23
REMARK    5  A    between atoms: C_15  and  C_16
REMARK    6  A    between atoms: C_16  and  C_17
REMARK    7  A    between atoms: C_26  and  O_27
REMARK                            x       y       z     vdW  Elec       q    Type
REMARK                         _______ _______ _______ _____ _____    ______ ____
ROOT
ATOM      1  C   UNL     1       6.998  -1.306  -0.249  0.00  0.00    +0.223 C 
ATOM      2  N   UNL     1       7.877  -1.664  -1.262  0.00  0.00    -0.269 N 
ATOM      3  H   UNL     1       8.396  -0.922  -1.717  0.00  0.00    +0.156 HD
ATOM      4  C   UNL     1       8.572  -2.907  -1.278  0.00  0.00    +0.147 A 
ATOM      5  C   UNL     1       8.022  -4.150  -0.943  0.00  0.00    +0.086 A 
ATOM      6  N   UNL     1       8.798  -5.282  -0.846  0.00  0.00    -0.246 NA
ATOM      7  C   UNL     1      10.104  -5.220  -1.188  0.00  0.00    +0.089 A 
ATOM      8  C   UNL     1      10.604  -3.995  -1.615  0.00  0.00    +0.141 A 
ATOM      9  N   UNL     1       9.869  -2.833  -1.677  0.00  0.00    -0.236 NA
ATOM     10  O   UNL     1       6.729  -2.028   0.704  0.00  0.00    -0.275 OA
ENDROOT
BRANCH   7  11
ATOM     11  C   UNL     1      10.860  -6.498  -1.036  0.00  0.00    +0.002 A 
ATOM     12  C   UNL     1      12.090  -6.772  -1.666  0.00  0.00    +0.013 A 
ATOM     13  C   UNL     1      12.784  -7.975  -1.430  0.00  0.00    +0.046 A 
ATOM     14  C   UNL     1      12.265  -8.925  -0.560  0.00  0.00    +0.117 A 
ATOM     15  C   UNL     1      11.034  -8.721   0.040  0.00  0.00    +0.046 A 
ATOM     16  C   UNL     1      10.346  -7.524  -0.207  0.00  0.00    +0.013 A 
BRANCH  14  17
ATOM     17  O   UNL     1      12.998 -10.046  -0.320  0.00  0.00    -0.507 OA
ATOM     18  H   UNL     1      12.577 -10.541   0.413  0.00  0.00    +0.292 HD
ENDBRANCH  14  17
ENDBRANCH   7  11
BRANCH   1  19
ATOM     19  C   UNL     1       6.365   0.081  -0.373  0.00  0.00    +0.131 C 
BRANCH  19  23
ATOM     20  C   UNL     1       8.597   3.129   1.705  0.00  0.00    +0.117 A 
ATOM     21  C   UNL     1       7.790   2.262   2.429  0.00  0.00    +0.045 A 
ATOM     22  C   UNL     1       7.049   1.283   1.759  0.00  0.00    +0.007 A 
ATOM     23  C   UNL     1       7.115   1.169   0.360  0.00  0.00    -0.038 A 
ATOM     24  C   UNL     1       7.899   2.086  -0.353  0.00  0.00    +0.007 A 
ATOM     25  C   UNL     1       8.645   3.058   0.318  0.00  0.00    +0.045 A 
BRANCH  20  26
ATOM     26  O   UNL     1       9.338   4.044   2.393  0.00  0.00    -0.507 OA
ATOM     27  H   UNL     1       9.916   4.510   1.767  0.00  0.00    +0.292 HD
ENDBRANCH  20  26
ENDBRANCH  19  23
ENDBRANCH   1  19
BRANCH   5  28
ATOM     28  C   UNL     1       6.538  -4.443  -0.938  0.00  0.00    +0.094 C 
BRANCH  28  29
ATOM     29  C   UNL     1       6.181  -5.323  -2.127  0.00  0.00    -0.041 A 
ATOM     30  C   UNL     1       6.063  -4.771  -3.411  0.00  0.00    +0.004 A 
ATOM     31  C   UNL     1       5.964  -5.603  -4.527  0.00  0.00    +0.000 A 
ATOM     32  C   UNL     1       5.974  -6.988  -4.370  0.00  0.00    +0.000 A 
ATOM     33  C   UNL     1       6.053  -7.545  -3.095  0.00  0.00    +0.000 A 
ATOM     34  C   UNL     1       6.150  -6.718  -1.978  0.00  0.00    +0.004 A 
ENDBRANCH  28  29
ENDBRANCH   5  28
TORSDOF 7
