REMARK  Name = 
REMARK  8 active torsions:
REMARK  status: ('A' for Active; 'I' for Inactive)
REMARK    1  A    between atoms: C_7  and  C_8
REMARK    2  A    between atoms: C_8  and  O_9
REMARK    3  A    between atoms: O_9  and  P_10
REMARK    4  A    between atoms: P_10  and  O_11
REMARK    5  A    between atoms: P_10  and  O_13
REMARK    6  A    between atoms: O_13  and  P_14
REMARK    7  A    between atoms: P_14  and  O_15
REMARK    8  A    between atoms: P_14  and  O_16
REMARK                            x       y       z     vdW  Elec       q    Type
REMARK                         _______ _______ _______ _____ _____    ______ ____
ROOT
ATOM      1  N   UNL     1      11.317   5.586  -7.782  0.00  0.00    -0.329 N 
ATOM      2  H   UNL     1      10.565   6.257  -7.865  0.00  0.00    +0.145 HD
ATOM      3  H   UNL     1      11.550   5.135  -8.665  0.00  0.00    +0.145 HD
ATOM      4  C   UNL     1      11.252   4.697  -6.759  0.00  0.00    +0.195 A 
ATOM      5  N   UNL     1      10.665   5.139  -5.606  0.00  0.00    -0.293 N 
ATOM      6  H   UNL     1      10.336   6.088  -5.535  0.00  0.00    +0.172 HD
ATOM      7  C   UNL     1      10.524   4.371  -4.475  0.00  0.00    +0.280 A 
ATOM      8  O   UNL     1       9.983   4.820  -3.464  0.00  0.00    -0.265 OA
ATOM      9  C   UNL     1      11.062   2.996  -4.576  0.00  0.00    +0.172 A 
ATOM     10  C   UNL     1      11.624   2.640  -5.792  0.00  0.00    +0.187 A 
ATOM     11  N   UNL     1      12.128   1.401  -5.988  0.00  0.00    -0.232 NA
ATOM     12  C   UNL     1      12.032   0.555  -4.931  0.00  0.00    +0.138 A 
ATOM     13  C   UNL     1      11.468   0.913  -3.711  0.00  0.00    +0.086 A 
ATOM     14  N   UNL     1      10.972   2.159  -3.509  0.00  0.00    -0.239 NA
ATOM     15  N   UNL     1      11.721   3.505  -6.894  0.00  0.00    -0.195 NA
ENDROOT
BRANCH  13  16
ATOM     16  C   UNL     1      11.382  -0.112  -2.601  0.00  0.00    +0.229 C 
BRANCH  16  17
ATOM     17  O   UNL     1      10.817   0.357  -1.387  0.00  0.00    -0.280 OA
BRANCH  17  18
ATOM     18  P   UNL     1       9.281   0.817  -1.421  0.00  0.00    +0.484 P 
ATOM     19  O   UNL     1       8.427   0.178  -2.465  0.00  0.00    -0.227 OA
BRANCH  18  20
ATOM     20  O   UNL     1       8.783   0.379   0.042  0.00  0.00    -0.302 OA
ATOM     21  H   UNL     1       8.505  -0.556   0.048  0.00  0.00    +0.222 HD
ENDBRANCH  18  20
BRANCH  18  22
ATOM     22  O   UNL     1       9.276   2.410  -1.313  0.00  0.00    -0.186 OA
BRANCH  22  23
ATOM     23  P   UNL     1       7.700   3.043  -0.985  0.00  0.00    +0.481 P 
ATOM     24  O   UNL     1       6.289   3.610  -0.691  0.00  0.00    -0.227 OA
BRANCH  23  25
ATOM     25  O   UNL     1       7.773   3.719  -2.472  0.00  0.00    -0.302 OA
ATOM     26  H   UNL     1       8.513   4.366  -2.507  0.00  0.00    +0.222 HD
ENDBRANCH  23  25
BRANCH  23  27
ATOM     27  O   UNL     1       8.441   4.278  -0.204  0.00  0.00    -0.302 OA
ATOM     28  H   UNL     1       7.775   4.687   0.380  0.00  0.00    +0.222 HD
ENDBRANCH  23  27
ENDBRANCH  22  23
ENDBRANCH  18  22
ENDBRANCH  17  18
ENDBRANCH  16  17
ENDBRANCH  13  16
TORSDOF 8
