REMARK  Name = 
REMARK  27 active torsions:
REMARK  status: ('A' for Active; 'I' for Inactive)
REMARK    1  A    between atoms: N_1  and  C_2
REMARK    2  A    between atoms: C_2  and  C_3
REMARK    3  A    between atoms: C_6  and  O_8
REMARK    4  A    between atoms: O_8  and  C_9
REMARK    5  A    between atoms: C_11  and  C_13
REMARK    6  A    between atoms: C_13  and  O_14
REMARK    7  A    between atoms: C_16  and  O_18
REMARK    8  A    between atoms: O_18  and  C_19
REMARK    9  A    between atoms: C_21  and  O_23
REMARK   10  A    between atoms: C_24  and  N_26
REMARK   11  A    between atoms: C_28  and  N_30
REMARK   12  A    between atoms: C_31  and  O_33
REMARK   13  A    between atoms: O_33  and  C_34
REMARK   14  A    between atoms: C_37  and  C_39
REMARK   15  A    between atoms: C_39  and  O_40
REMARK   16  A    between atoms: C_41  and  O_43
REMARK   17  A    between atoms: C_44  and  O_46
REMARK   18  A    between atoms: C_47  and  N_49
REMARK   19  A    between atoms: C_50  and  O_52
REMARK   20  A    between atoms: O_52  and  C_53
REMARK   21  A    between atoms: C_53  and  C_54
REMARK   22  A    between atoms: C_54  and  N_55
REMARK   23  A    between atoms: N_55  and  C_56
REMARK   24  A    between atoms: C_56  and  C_57
REMARK   25  A    between atoms: C_64  and  N_66
REMARK   26  A    between atoms: C_67  and  O_69
REMARK   27  A    between atoms: C_70  and  O_72
REMARK                            x       y       z     vdW  Elec       q    Type
REMARK                         _______ _______ _______ _____ _____    ______ ____
ROOT
ATOM      1  C   UNL     1      -6.419  -2.897  -0.633  0.00  0.00    +0.186 C 
ATOM      2  C   UNL     1      -7.200  -3.502   0.545  0.00  0.00    +0.205 C 
ATOM      3  C   UNL     1      -8.709  -3.399   0.132  0.00  0.00    +0.282 C 
ATOM      4  O   UNL     1      -8.769  -2.779  -1.145  0.00  0.00    -0.340 OA
ATOM      5  C   UNL     1      -7.465  -2.639  -1.707  0.00  0.00    +0.178 C 
ENDROOT
BRANCH   5   6
ATOM      6  C   UNL     1      -7.232  -3.583  -2.891  0.00  0.00    +0.190 C 
BRANCH   6   7
ATOM      7  O   UNL     1      -7.155  -4.940  -2.435  0.00  0.00    -0.392 OA
ATOM      8  H   UNL     1      -6.954  -5.487  -3.219  0.00  0.00    +0.210 HD
ENDBRANCH   6   7
ENDBRANCH   5   6
BRANCH   3   9
ATOM      9  O   UNL     1      -9.276  -4.723   0.040  0.00  0.00    -0.340 OA
BRANCH   9  10
ATOM     10  C   UNL     1     -10.616  -4.947  -0.488  0.00  0.00    +0.182 C 
ATOM     11  C   UNL     1     -11.814  -4.405   0.348  0.00  0.00    +0.169 C 
ATOM     12  C   UNL     1     -13.170  -4.772  -0.359  0.00  0.00    +0.084 C 
ATOM     13  C   UNL     1     -13.238  -4.310  -1.814  0.00  0.00    +0.042 C 
ATOM     14  C   UNL     1     -12.101  -4.926  -2.609  0.00  0.00    +0.084 C 
ATOM     15  C   UNL     1     -10.738  -4.573  -1.990  0.00  0.00    +0.163 C 
BRANCH  14  16
ATOM     16  N   UNL     1     -12.171  -4.474  -4.016  0.00  0.00    -0.325 NA
ATOM     17  H   UNL     1     -12.053  -3.462  -4.055  0.00  0.00    +0.119 HD
ATOM     18  H   UNL     1     -11.335  -4.848  -4.478  0.00  0.00    +0.119 HD
ENDBRANCH  14  16
BRANCH  12  19
ATOM     19  N   UNL     1     -14.341  -4.247   0.364  0.00  0.00    -0.325 NA
ATOM     20  H   UNL     1     -14.323  -3.229   0.380  0.00  0.00    +0.119 HD
ATOM     21  H   UNL     1     -15.195  -4.513  -0.130  0.00  0.00    +0.119 HD
ENDBRANCH  12  19
BRANCH  15  22
ATOM     22  O   UNL     1      -9.747  -5.283  -2.746  0.00  0.00    -0.388 OA
ATOM     23  H   UNL     1      -8.920  -5.214  -2.222  0.00  0.00    +0.210 HD
ENDBRANCH  15  22
BRANCH  11  24
ATOM     24  O   UNL     1     -11.933  -5.017   1.650  0.00  0.00    -0.342 OA
BRANCH  24  25
ATOM     25  C   UNL     1     -10.906  -4.743   2.592  0.00  0.00    +0.270 C 
ATOM     26  C   UNL     1     -11.168  -5.537   3.917  0.00  0.00    +0.139 C 
ATOM     27  C   UNL     1     -11.892  -4.743   5.018  0.00  0.00    +0.167 C 
ATOM     28  C   UNL     1     -11.661  -3.233   4.975  0.00  0.00    +0.176 C 
ATOM     29  C   UNL     1     -11.724  -2.709   3.541  0.00  0.00    +0.178 C 
ATOM     30  O   UNL     1     -10.703  -3.349   2.778  0.00  0.00    -0.342 OA
BRANCH  26  31
ATOM     31  N   UNL     1     -11.923  -6.800   3.694  0.00  0.00    -0.321 NA
ATOM     32  H   UNL     1     -11.335  -7.600   3.914  0.00  0.00    +0.119 HD
ATOM     33  H   UNL     1     -12.166  -6.855   2.701  0.00  0.00    +0.119 HD
ENDBRANCH  26  31
BRANCH  28  34
ATOM     34  O   UNL     1     -12.624  -2.588   5.831  0.00  0.00    -0.387 OA
ATOM     35  H   UNL     1     -13.512  -2.916   5.582  0.00  0.00    +0.210 HD
ENDBRANCH  28  34
BRANCH  27  36
ATOM     36  O   UNL     1     -11.450  -5.223   6.309  0.00  0.00    -0.387 OA
ATOM     37  H   UNL     1     -11.753  -4.573   6.970  0.00  0.00    +0.210 HD
ENDBRANCH  27  36
BRANCH  29  38
ATOM     38  C   UNL     1     -11.464  -1.194   3.499  0.00  0.00    +0.190 C 
BRANCH  38  39
ATOM     39  O   UNL     1     -12.481  -0.454   4.166  0.00  0.00    -0.392 OA
ATOM     40  H   UNL     1     -12.549  -0.825   5.071  0.00  0.00    +0.210 HD
ENDBRANCH  38  39
ENDBRANCH  29  38
ENDBRANCH  24  25
ENDBRANCH  11  24
ENDBRANCH   9  10
ENDBRANCH   3   9
BRANCH   2  41
ATOM     41  O   UNL     1      -6.831  -2.985   1.846  0.00  0.00    -0.368 OA
BRANCH  41  42
ATOM     42  C   UNL     1      -5.420  -3.155   2.101  0.00  0.00    +0.175 C 
BRANCH  42  43
ATOM     43  C   UNL     1      -5.014  -2.938   3.569  0.00  0.00    +0.109 C 
BRANCH  43  44
ATOM     44  N   UNL     1      -5.540  -3.919   4.539  0.00  0.00    -0.314 NA
ATOM     45  H   UNL     1      -6.553  -3.857   4.528  0.00  0.00    +0.122 HD
BRANCH  44  46
ATOM     46  C   UNL     1      -5.114  -5.279   4.215  0.00  0.00    +0.085 C 
BRANCH  46  47
ATOM     47  C   UNL     1      -5.604  -6.300   5.253  0.00  0.00    +0.017 C 
ATOM     48  C   UNL     1      -5.253  -7.712   4.747  0.00  0.00    +0.085 C 
ATOM     49  N   UNL     1      -5.616  -8.763   5.696  0.00  0.00    -0.316 NA
ATOM     50  H   UNL     1      -6.626  -8.742   5.845  0.00  0.00    +0.122 HD
ATOM     51  C   UNL     1      -4.948  -8.549   6.981  0.00  0.00    +0.081 C 
ATOM     52  C   UNL     1      -5.341  -7.206   7.591  0.00  0.00    +0.015 C 
ATOM     53  C   UNL     1      -5.003  -6.055   6.646  0.00  0.00    +0.007 C 
ENDBRANCH  46  47
ENDBRANCH  44  46
ENDBRANCH  43  44
ENDBRANCH  42  43
ENDBRANCH  41  42
ENDBRANCH   2  41
BRANCH   1  54
ATOM     54  O   UNL     1      -5.664  -1.696  -0.378  0.00  0.00    -0.341 OA
BRANCH  54  59
ATOM     55  C   UNL     1      -4.474  -0.979  -3.745  0.00  0.00    +0.166 C 
ATOM     56  C   UNL     1      -3.371   0.066  -3.504  0.00  0.00    +0.175 C 
ATOM     57  C   UNL     1      -2.656  -0.197  -2.150  0.00  0.00    +0.167 C 
ATOM     58  C   UNL     1      -3.657  -0.400  -0.984  0.00  0.00    +0.139 C 
ATOM     59  C   UNL     1      -4.678  -1.482  -1.408  0.00  0.00    +0.270 C 
ATOM     60  O   UNL     1      -5.333  -1.079  -2.604  0.00  0.00    -0.343 OA
BRANCH  58  61
ATOM     61  N   UNL     1      -4.332   0.870  -0.621  0.00  0.00    -0.321 NA
ATOM     62  H   UNL     1      -4.859   1.181  -1.448  0.00  0.00    +0.119 HD
ATOM     63  H   UNL     1      -5.069   0.632   0.051  0.00  0.00    +0.119 HD
ENDBRANCH  58  61
BRANCH  57  64
ATOM     64  O   UNL     1      -1.756  -1.312  -2.240  0.00  0.00    -0.387 OA
ATOM     65  H   UNL     1      -2.206  -2.091  -2.604  0.00  0.00    +0.210 HD
ENDBRANCH  57  64
BRANCH  56  66
ATOM     66  O   UNL     1      -3.943   1.381  -3.513  0.00  0.00    -0.387 OA
ATOM     67  H   UNL     1      -3.277   2.000  -3.163  0.00  0.00    +0.210 HD
ENDBRANCH  56  66
BRANCH  55  68
ATOM     68  C   UNL     1      -5.412  -0.661  -4.928  0.00  0.00    +0.112 C 
BRANCH  68  69
ATOM     69  N   UNL     1      -4.749  -0.619  -6.227  0.00  0.00    -0.328 NA
ATOM     70  H   UNL     1      -5.459  -0.715  -6.955  0.00  0.00    +0.118 HD
ATOM     71  H   UNL     1      -4.380   0.326  -6.359  0.00  0.00    +0.118 HD
ENDBRANCH  68  69
ENDBRANCH  55  68
ENDBRANCH  54  59
ENDBRANCH   1  54
TORSDOF 27
