REMARK  Name = 
REMARK  5 active torsions:
REMARK  status: ('A' for Active; 'I' for Inactive)
REMARK    1  A    between atoms: C_1  and  C_2
REMARK    2  A    between atoms: C_2  and  C_4
REMARK    3  A    between atoms: C_8  and  C_10
REMARK    4  A    between atoms: N_17  and  C_18
REMARK    5  A    between atoms: C_18  and  C_19
REMARK                            x       y       z     vdW  Elec       q    Type
REMARK                         _______ _______ _______ _____ _____    ______ ____
ROOT
ATOM      1  C   UNL     1       3.322  -4.651   1.853  0.00  0.00    +0.093 A 
ATOM      2  N   UNL     1       4.138  -5.697   2.269  0.00  0.00    -0.211 N 
ATOM      3  C   UNL     1       3.480  -6.872   1.933  0.00  0.00    +0.155 A 
ATOM      4  C   UNL     1       4.148  -8.085   2.179  0.00  0.00    +0.051 A 
ATOM      5  C   UNL     1       5.365  -8.059   2.727  0.00  0.00    +0.049 A 
ATOM      6  C   UNL     1       5.964  -6.737   3.095  0.00  0.00    +0.140 A 
ATOM      7  N   UNL     1       7.201  -6.760   3.699  0.00  0.00    -0.327 N 
ATOM      8  H   UNL     1       7.605  -7.665   3.908  0.00  0.00    +0.148 HD
ATOM      9  N   UNL     1       2.300  -6.649   1.401  0.00  0.00    -0.234 NA
ATOM     10  N   UNL     1       5.367  -5.597   2.870  0.00  0.00    -0.150 NA
ATOM     11  C   UNL     1       2.196  -5.289   1.352  0.00  0.00    +0.141 A 
ENDROOT
BRANCH   1  14
ATOM     12  C   UNL     1       3.378  -1.003   0.872  0.00  0.00    +0.018 A 
ATOM     13  C   UNL     1       3.115  -2.379   0.881  0.00  0.00    +0.021 A 
ATOM     14  C   UNL     1       3.630  -3.216   1.890  0.00  0.00    +0.003 A 
ATOM     15  C   UNL     1       4.406  -2.638   2.900  0.00  0.00    +0.010 A 
ATOM     16  C   UNL     1       4.672  -1.265   2.900  0.00  0.00    +0.001 A 
ATOM     17  C   UNL     1       4.163  -0.452   1.889  0.00  0.00    +0.011 A 
BRANCH  12  19
ATOM     18  C   UNL     1       1.973  -0.683  -1.278  0.00  0.00    +0.091 C 
ATOM     19  C   UNL     1       2.845  -0.101  -0.194  0.00  0.00    +0.160 C 
ATOM     20  O   UNL     1       3.110   1.099  -0.171  0.00  0.00    -0.292 OA
ENDBRANCH  12  19
ENDBRANCH   1  14
BRANCH   7  21
ATOM     21  C   UNL     1       7.666  -5.691   4.557  0.00  0.00    +0.106 C 
BRANCH  21  22
ATOM     22  C   UNL     1       9.034  -6.037   5.065  0.00  0.00    +0.006 C 
ATOM     23  C   UNL     1      10.126  -4.999   5.104  0.00  0.00    +0.005 C 
ATOM     24  C   UNL     1      10.207  -6.130   4.118  0.00  0.00    +0.005 C 
ENDBRANCH  21  22
ENDBRANCH   7  21
TORSDOF 4
