REMARK  Name = 
REMARK  13 active torsions:
REMARK  status: ('A' for Active; 'I' for Inactive)
REMARK    1  A    between atoms: C_1  and  O_2
REMARK    2  A    between atoms: O_2  and  C_3
REMARK    3  A    between atoms: C_5  and  O_6
REMARK    4  A    between atoms: O_6  and  C_7
REMARK    5  A    between atoms: C_9  and  O_10
REMARK    6  A    between atoms: O_10  and  C_11
REMARK    7  A    between atoms: C_11  and  C_13
REMARK    8  A    between atoms: C_11  and  C_16
REMARK    9  A    between atoms: C_13  and  O_14
REMARK   10  A    between atoms: C_16  and  O_17
REMARK   11  A    between atoms: C_16  and  C_19
REMARK   12  A    between atoms: C_16  and  C_25
REMARK   13  A    between atoms: O_17  and  C_18
REMARK                            x       y       z     vdW  Elec       q    Type
REMARK                         _______ _______ _______ _____ _____    ______ ____
ROOT
ATOM      1  C   UNL     1       4.539  -3.347   3.219  0.00  0.00    +0.325 C 
ENDROOT
BRANCH   1   2
ATOM      2  C   UNL     1       5.256  -3.377   1.856  0.00  0.00    +0.350 C 
ATOM      3  O   UNL     1       4.729  -3.004   0.810  0.00  0.00    -0.247 OA
BRANCH   2   4
ATOM      4  O   UNL     1       6.555  -3.739   1.862  0.00  0.00    -0.478 OA
ATOM      5  H   UNL     1       6.863  -4.108   2.721  0.00  0.00    +0.295 HD
ENDBRANCH   2   4
ENDBRANCH   1   2
BRANCH   1   6
ATOM      6  O   UNL     1       3.151  -3.485   2.893  0.00  0.00    -0.444 OA
BRANCH   6   9
ATOM      7  C   UNL     1       0.267  -1.595   2.568  0.00  0.00    +0.224 A 
ATOM      8  N   UNL     1       1.101  -2.639   2.593  0.00  0.00    -0.159 NA
ATOM      9  C   UNL     1       2.395  -2.359   2.747  0.00  0.00    +0.325 A 
ATOM     10  N   UNL     1       2.917  -1.149   2.962  0.00  0.00    -0.159 NA
ATOM     11  C   UNL     1       2.033  -0.137   2.907  0.00  0.00    +0.224 A 
ATOM     12  C   UNL     1       0.682  -0.298   2.707  0.00  0.00    +0.134 A 
BRANCH   7  14
ATOM     13  C   UNL     1      -1.410  -3.210   2.366  0.00  0.00    +0.279 C 
ATOM     14  O   UNL     1      -1.085  -1.819   2.408  0.00  0.00    -0.479 OA
ENDBRANCH   7  14
BRANCH  11  15
ATOM     15  O   UNL     1       2.466   1.165   3.073  0.00  0.00    -0.479 OA
ATOM     16  C   UNL     1       3.866   1.273   3.312  0.00  0.00    +0.279 C 
ENDBRANCH  11  15
ENDBRANCH   6   9
ENDBRANCH   1   6
BRANCH   1  17
ATOM     17  C   UNL     1       4.967  -4.470   4.262  0.00  0.00    +0.166 C 
BRANCH  17  18
ATOM     18  C   UNL     1       4.712  -5.881   3.659  0.00  0.00    -0.007 A 
ATOM     19  C   UNL     1       3.422  -6.287   3.266  0.00  0.00    +0.007 A 
ATOM     20  C   UNL     1       3.221  -7.443   2.503  0.00  0.00    +0.000 A 
ATOM     21  C   UNL     1       4.291  -8.251   2.166  0.00  0.00    +0.000 A 
ATOM     22  C   UNL     1       5.564  -7.943   2.626  0.00  0.00    +0.000 A 
ATOM     23  C   UNL     1       5.775  -6.769   3.373  0.00  0.00    +0.007 A 
ENDBRANCH  17  18
BRANCH  17  24
ATOM     24  C   UNL     1       4.308  -4.306   5.672  0.00  0.00    -0.007 A 
ATOM     25  C   UNL     1       4.925  -4.827   6.827  0.00  0.00    +0.007 A 
ATOM     26  C   UNL     1       4.526  -4.420   8.110  0.00  0.00    +0.000 A 
ATOM     27  C   UNL     1       3.469  -3.527   8.273  0.00  0.00    +0.000 A 
ATOM     28  C   UNL     1       2.763  -3.108   7.159  0.00  0.00    +0.000 A 
ATOM     29  C   UNL     1       3.162  -3.520   5.886  0.00  0.00    +0.007 A 
ENDBRANCH  17  24
BRANCH  17  30
ATOM     30  O   UNL     1       6.430  -4.369   4.428  0.00  0.00    -0.363 OA
ATOM     31  C   UNL     1       6.970  -3.220   5.080  0.00  0.00    +0.195 C 
ENDBRANCH  17  30
ENDBRANCH   1  17
TORSDOF 10
