REMARK  Name = 
REMARK  3 active torsions:
REMARK  status: ('A' for Active; 'I' for Inactive)
REMARK    1  A    between atoms: C_5  and  N_6
REMARK    2  A    between atoms: C_10  and  C_11
REMARK    3  A    between atoms: C_11  and  C_12
REMARK                            x       y       z     vdW  Elec       q    Type
REMARK                         _______ _______ _______ _____ _____    ______ ____
ROOT
ATOM      1  N   UNL     1       6.852   0.026  -0.381  0.00  0.00    -0.298 N 
ATOM      2  H   UNL     1       7.229   0.750  -0.983  0.00  0.00    +0.154 HD
ATOM      3  C   UNL     1       7.638  -1.158  -0.517  0.00  0.00    +0.153 A 
ATOM      4  C   UNL     1       9.028  -1.098  -0.790  0.00  0.00    +0.026 A 
ATOM      5  C   UNL     1       9.734  -2.322  -0.940  0.00  0.00    +0.009 A 
ATOM      6  C   UNL     1      11.111  -2.282  -1.258  0.00  0.00    +0.010 A 
ATOM      7  C   UNL     1      11.792  -1.078  -1.438  0.00  0.00    +0.001 A 
ATOM      8  C   UNL     1      11.114   0.121  -1.287  0.00  0.00    +0.001 A 
ATOM      9  C   UNL     1       9.013  -3.521  -0.782  0.00  0.00    +0.076 A 
ATOM     10  N   UNL     1       7.703  -3.522  -0.460  0.00  0.00    -0.152 NA
ATOM     11  C   UNL     1       9.756   0.112  -0.960  0.00  0.00    +0.012 A 
ATOM     12  N   UNL     1       7.032  -2.350  -0.314  0.00  0.00    -0.133 NA
ENDROOT
BRANCH   1  17
ATOM     13 CL   UNL     1       0.968   0.450  -1.174  0.00  0.00    -0.084 Cl
ATOM     14  C   UNL     1       2.667   0.310  -0.943  0.00  0.00    +0.041 A 
ATOM     15  C   UNL     1       3.382  -0.648  -1.649  0.00  0.00    +0.022 A 
ATOM     16  C   UNL     1       4.763  -0.761  -1.456  0.00  0.00    +0.025 A 
ATOM     17  C   UNL     1       5.437   0.059  -0.537  0.00  0.00    +0.033 A 
ATOM     18  C   UNL     1       4.704   1.049   0.130  0.00  0.00    +0.025 A 
ATOM     19  C   UNL     1       3.322   1.165  -0.058  0.00  0.00    +0.022 A 
ENDBRANCH   1  17
BRANCH   9  20
ATOM     20  C   UNL     1       9.595  -4.900  -0.998  0.00  0.00    +0.093 C 
BRANCH  20  21
ATOM     21  C   UNL     1      10.225  -5.551   0.212  0.00  0.00    -0.039 A 
ATOM     22  C   UNL     1      11.539  -6.028   0.163  0.00  0.00    +0.023 A 
ATOM     23  C   UNL     1      12.048  -6.702   1.264  0.00  0.00    +0.111 A 
ATOM     24  N   UNL     1      11.349  -6.931   2.395  0.00  0.00    -0.263 NA
ATOM     25  C   UNL     1      10.082  -6.466   2.425  0.00  0.00    +0.111 A 
ATOM     26  C   UNL     1       9.484  -5.783   1.376  0.00  0.00    +0.023 A 
ENDBRANCH  20  21
ENDBRANCH   9  20
TORSDOF 3
