REMARK  Name = 
REMARK  4 active torsions:
REMARK  status: ('A' for Active; 'I' for Inactive)
REMARK    1  A    between atoms: O_1  and  C_2
REMARK    2  A    between atoms: C_6  and  O_8
REMARK    3  A    between atoms: C_9  and  O_11
REMARK    4  A    between atoms: C_12  and  O_14
REMARK                            x       y       z     vdW  Elec       q    Type
REMARK                         _______ _______ _______ _____ _____    ______ ____
ROOT
ATOM      1  C   UNL     1       2.514   0.025   0.026  0.00  0.00    +0.171 C 
ATOM      2  C   UNL     1       2.965   1.116  -0.952  0.00  0.00    +0.178 C 
ATOM      3  C   UNL     1       2.581   0.757  -2.386  0.00  0.00    +0.201 C 
ATOM      4  C   UNL     1       3.024  -0.679  -2.715  0.00  0.00    +0.279 C 
ATOM      5  O   UNL     1       2.480  -1.613  -1.794  0.00  0.00    -0.346 OA
ATOM      6  C   UNL     1       2.951  -1.359  -0.466  0.00  0.00    +0.197 C 
ENDROOT
BRANCH   1   7
ATOM      7  O   UNL     1       3.059   0.283   1.320  0.00  0.00    -0.387 OA
ATOM      8  H   UNL     1       3.961   0.628   1.159  0.00  0.00    +0.210 HD
ENDBRANCH   1   7
BRANCH   2   9
ATOM      9  O   UNL     1       4.396   1.263  -0.851  0.00  0.00    -0.386 OA
ATOM     10  H   UNL     1       4.636   1.861  -1.591  0.00  0.00    +0.210 HD
ENDBRANCH   2   9
BRANCH   3  11
ATOM     11  O   UNL     1       3.191   1.694  -3.287  0.00  0.00    -0.384 OA
ATOM     12  H   UNL     1       3.078   1.307  -4.179  0.00  0.00    +0.210 HD
ENDBRANCH   3  11
BRANCH   4  13
ATOM     13  O   UNL     1       2.537  -1.008  -4.009  0.00  0.00    -0.365 OA
ATOM     14  H   UNL     1       1.680  -1.434  -3.831  0.00  0.00    +0.213 HD
ENDBRANCH   4  13
TORSDOF 4
