REMARK  Name = 
REMARK  4 active torsions:
REMARK  status: ('A' for Active; 'I' for Inactive)
REMARK    1  A    between atoms: C_7  and  N_8
REMARK    2  A    between atoms: C_10  and  C_11
REMARK    3  A    between atoms: C_11  and  S_12
REMARK    4  A    between atoms: S_12  and  C_13
REMARK                            x       y       z     vdW  Elec       q    Type
REMARK                         _______ _______ _______ _____ _____    ______ ____
ROOT
ATOM      1  N   UNL     1       1.229   0.011  -0.097  0.00  0.00    -0.329 N 
ATOM      2  H   UNL     1       0.712  -0.815   0.158  0.00  0.00    +0.145 HD
ATOM      3  H   UNL     1       0.773   0.899   0.082  0.00  0.00    +0.145 HD
ATOM      4  C   UNL     1       2.580   0.038  -0.013  0.00  0.00    +0.194 A 
ATOM      5  N   UNL     1       3.216  -1.163   0.020  0.00  0.00    -0.295 N 
ATOM      6  H   UNL     1       2.687  -2.023  -0.025  0.00  0.00    +0.172 HD
ATOM      7  C   UNL     1       4.575  -1.303   0.039  0.00  0.00    +0.260 A 
ATOM      8  O   UNL     1       5.119  -2.403   0.061  0.00  0.00    -0.267 OA
ATOM      9  C   UNL     1       5.343  -0.049   0.055  0.00  0.00    +0.067 A 
ATOM     10  C   UNL     1       6.740  -0.076   0.022  0.00  0.00    +0.038 A 
ATOM     11  C   UNL     1       7.458   1.115   0.046  0.00  0.00    +0.026 A 
ATOM     12  C   UNL     1       6.754   2.326   0.021  0.00  0.00    +0.029 A 
ATOM     13  C   UNL     1       5.338   2.363   0.042  0.00  0.00    -0.009 A 
ATOM     14  C   UNL     1       4.624   1.156   0.059  0.00  0.00    +0.084 A 
ATOM     15  N   UNL     1       3.213   1.165   0.032  0.00  0.00    -0.216 NA
ENDROOT
BRANCH  11  16
ATOM     16  N   UNL     1       8.844   1.100  -0.146  0.00  0.00    -0.358 N 
ATOM     17  H   UNL     1       9.325   1.932   0.179  0.00  0.00    +0.142 HD
ATOM     18  H   UNL     1       9.298   0.244   0.159  0.00  0.00    +0.142 HD
ENDBRANCH  11  16
BRANCH  13  19
ATOM     19  C   UNL     1       4.631   3.708   0.057  0.00  0.00    +0.114 C 
BRANCH  19  20
ATOM     20  S   UNL     1       4.390   4.294   1.761  0.00  0.00    -0.083 S 
BRANCH  20  21
ATOM     21  C   UNL     1       3.574   5.793   1.524  0.00  0.00    +0.167 A 
ATOM     22  N   UNL     1       3.177   6.506   2.616  0.00  0.00    -0.340 N 
ATOM     23  H   UNL     1       3.319   6.222   3.574  0.00  0.00    +0.167 HD
ATOM     24  C   UNL     1       2.568   7.646   2.168  0.00  0.00    +0.104 A 
ATOM     25  C   UNL     1       2.631   7.559   0.797  0.00  0.00    +0.131 A 
ATOM     26  N   UNL     1       3.265   6.398   0.406  0.00  0.00    -0.230 NA
ENDBRANCH  20  21
ENDBRANCH  19  20
ENDBRANCH  13  19
TORSDOF 4
