REMARK  Name = 
REMARK  11 active torsions:
REMARK  status: ('A' for Active; 'I' for Inactive)
REMARK    1  A    between atoms: C_1  and  N_2
REMARK    2  A    between atoms: C_3  and  C_5
REMARK    3  A    between atoms: C_5  and  C_7
REMARK    4  A    between atoms: C_5  and  N_18
REMARK    5  A    between atoms: C_7  and  C_8
REMARK    6  A    between atoms: N_23  and  C_24
REMARK    7  A    between atoms: C_24  and  C_25
REMARK    8  A    between atoms: C_35  and  C_37
REMARK    9  A    between atoms: C_37  and  C_38
REMARK   10  A    between atoms: C_38  and  C_39
REMARK   11  A    between atoms: C_38  and  C_40
REMARK                            x       y       z     vdW  Elec       q    Type
REMARK                         _______ _______ _______ _____ _____    ______ ____
ROOT
ATOM      1  N   UNL     1       5.228  -0.817  -2.651  0.00  0.00    -0.288 N 
ATOM      2  C   UNL     1       6.104  -0.048  -3.401  0.00  0.00    +0.237 C 
ATOM      3  O   UNL     1       5.739   0.979  -3.958  0.00  0.00    -0.274 OA
ATOM      4  C   UNL     1       7.491  -0.712  -3.523  0.00  0.00    +0.163 C 
ATOM      5  N   UNL     1       7.565  -1.528  -4.744  0.00  0.00    -0.286 N 
ATOM      6  C   UNL     1       6.748  -2.671  -4.826  0.00  0.00    +0.218 C 
ATOM      7  O   UNL     1       6.781  -3.431  -5.796  0.00  0.00    -0.276 OA
ATOM      8  C   UNL     1       5.872  -3.046  -3.620  0.00  0.00    +0.115 C 
ATOM      9  C   UNL     1       4.758  -2.065  -3.262  0.00  0.00    +0.118 C 
ENDROOT
BRANCH   1  10
ATOM     10  C   UNL     1       4.726  -0.289  -1.352  0.00  0.00    +0.166 C 
BRANCH  10  14
ATOM     11  C   UNL     1       2.527  -2.424   1.018  0.00  0.00    +0.128 C 
ATOM     12  N   UNL     1       3.058  -1.363   0.197  0.00  0.00    -0.317 N 
ATOM     13  H   UNL     1       2.442  -0.587   0.012  0.00  0.00    +0.148 HD
ATOM     14  C   UNL     1       4.308  -1.425  -0.370  0.00  0.00    +0.234 C 
ATOM     15  O   UNL     1       5.068  -2.365  -0.146  0.00  0.00    -0.274 OA
ENDBRANCH  10  14
BRANCH  10  16
ATOM     16  C   UNL     1       3.850   0.999  -1.388  0.00  0.00    +0.067 C 
BRANCH  16  17
ATOM     17  C   UNL     1       2.484   0.862  -2.022  0.00  0.00    -0.045 A 
ATOM     18  C   UNL     1       2.379   0.426  -3.336  0.00  0.00    +0.004 A 
ATOM     19  C   UNL     1       1.150   0.068  -3.869  0.00  0.00    +0.009 A 
ATOM     20  C   UNL     1      -0.020   0.209  -3.114  0.00  0.00    -0.018 A 
ATOM     21  C   UNL     1       0.041   0.816  -1.845  0.00  0.00    -0.018 A 
ATOM     22  C   UNL     1      -1.162   1.037  -1.147  0.00  0.00    +0.008 A 
ATOM     23  C   UNL     1      -2.388   0.611  -1.681  0.00  0.00    +0.001 A 
ATOM     24  C   UNL     1      -2.418  -0.052  -2.906  0.00  0.00    +0.001 A 
ATOM     25  C   UNL     1      -1.245  -0.237  -3.630  0.00  0.00    +0.008 A 
ATOM     26  C   UNL     1       1.304   1.150  -1.310  0.00  0.00    +0.012 A 
ENDBRANCH  16  17
ENDBRANCH  10  16
ENDBRANCH   1  10
BRANCH   4  27
ATOM     27  C   UNL     1       8.624   0.221  -3.064  0.00  0.00    +0.035 C 
BRANCH  27  28
ATOM     28  C   UNL     1       9.253   1.277  -3.982  0.00  0.00    -0.015 C 
ATOM     29  C   UNL     1      10.421   1.924  -3.228  0.00  0.00    +0.007 C 
ATOM     30  C   UNL     1       8.285   2.333  -4.490  0.00  0.00    +0.007 C 
ENDBRANCH  27  28
ENDBRANCH   4  27
BRANCH   5  31
ATOM     31  C   UNL     1       8.768  -1.533  -5.592  0.00  0.00    +0.141 C 
BRANCH  31  32
ATOM     32  C   UNL     1       8.723  -0.741  -6.880  0.00  0.00    -0.034 C 
ATOM     33  C   UNL     1      10.053  -0.686  -7.632  0.00  0.00    +0.070 C 
ATOM     34  C   UNL     1       9.909  -0.519  -9.131  0.00  0.00    -0.022 A 
ATOM     35  C   UNL     1       8.716   0.027  -9.637  0.00  0.00    +0.034 A 
ATOM     36  C   UNL     1       8.575   0.201 -11.019  0.00  0.00    +0.023 A 
ATOM     37  C   UNL     1       9.589  -0.212 -11.892  0.00  0.00    +0.002 A 
ATOM     38  C   UNL     1      10.771  -0.753 -11.387  0.00  0.00    +0.000 A 
ATOM     39  N   UNL     1       7.696   0.398  -8.732  0.00  0.00    -0.320 N 
ATOM     40  H   UNL     1       6.795   0.600  -9.152  0.00  0.00    +0.152 HD
ATOM     41  C   UNL     1      10.940  -0.888 -10.008  0.00  0.00    +0.006 A 
ATOM     42  C   UNL     1       7.663  -0.152  -7.462  0.00  0.00    +0.073 C 
ENDBRANCH  31  32
ENDBRANCH   5  31
TORSDOF 8
