REMARK  Name = 
REMARK  9 active torsions:
REMARK  status: ('A' for Active; 'I' for Inactive)
REMARK    1  A    between atoms: C_2  and  C_4
REMARK    2  A    between atoms: C_8  and  C_9
REMARK    3  A    between atoms: C_9  and  C_10
REMARK    4  A    between atoms: C_10  and  N_12
REMARK    5  A    between atoms: C_10  and  C_26
REMARK    6  A    between atoms: N_12  and  S_13
REMARK    7  A    between atoms: S_13  and  C_16
REMARK    8  A    between atoms: C_33  and  C_35
REMARK    9  A    between atoms: C_35  and  O_36
REMARK                            x       y       z     vdW  Elec       q    Type
REMARK                         _______ _______ _______ _____ _____    ______ ____
ROOT
ATOM      1  C   UNL     1       0.832  -4.642   0.339  0.00  0.00    +0.166 C 
ENDROOT
BRANCH   1   2
ATOM      2  C   UNL     1      -0.034  -5.912   0.505  0.00  0.00    +0.235 C 
ATOM      3  N   UNL     1      -0.250  -6.437   1.783  0.00  0.00    -0.287 N 
ATOM      4  C   UNL     1      -1.152  -7.617   1.924  0.00  0.00    +0.184 C 
ATOM      5  C   UNL     1      -2.442  -7.241   2.668  0.00  0.00    +0.034 C 
ATOM      6  C   UNL     1      -2.183  -6.465   3.960  0.00  0.00    +0.004 C 
ATOM      7  C   UNL     1      -1.251  -5.280   3.712  0.00  0.00    +0.019 C 
ATOM      8  C   UNL     1       0.042  -5.747   3.051  0.00  0.00    +0.109 C 
ATOM      9  O   UNL     1      -0.519  -6.464  -0.487  0.00  0.00    -0.274 OA
BRANCH   4  10
ATOM     10  C   UNL     1      -0.422  -8.808   2.572  0.00  0.00    +0.325 C 
ATOM     11  O   UNL     1      -0.969  -9.746   3.130  0.00  0.00    -0.249 OA
BRANCH  10  12
ATOM     12  O   UNL     1       0.923  -8.762   2.393  0.00  0.00    -0.479 OA
ATOM     13  H   UNL     1       1.164  -7.995   1.836  0.00  0.00    +0.295 HD
ENDBRANCH  10  12
ENDBRANCH   4  10
ENDBRANCH   1   2
BRANCH   1  14
ATOM     14  N   UNL     1       0.342  -3.855  -0.810  0.00  0.00    -0.178 NA
ATOM     15  H   UNL     1      -0.614  -4.027  -1.126  0.00  0.00    +0.149 HD
BRANCH  14  16
ATOM     16  S   UNL     1       0.979  -2.381  -1.260  0.00  0.00    +0.059 S 
ATOM     17  O   UNL     1       0.053  -1.796  -2.204  0.00  0.00    -0.153 OA
ATOM     18  O   UNL     1       2.383  -2.532  -1.570  0.00  0.00    -0.153 OA
BRANCH  16  19
ATOM     19  C   UNL     1       0.857  -1.451   0.243  0.00  0.00    +0.106 A 
ATOM     20  C   UNL     1       2.009  -1.192   0.994  0.00  0.00    +0.037 A 
ATOM     21  C   UNL     1       1.896  -0.592   2.253  0.00  0.00    -0.016 A 
ATOM     22  C   UNL     1       0.620  -0.197   2.724  0.00  0.00    -0.018 A 
ATOM     23  C   UNL     1       0.511   0.384   3.997  0.00  0.00    +0.008 A 
ATOM     24  C   UNL     1       1.637   0.534   4.807  0.00  0.00    +0.001 A 
ATOM     25  C   UNL     1       2.889   0.139   4.344  0.00  0.00    +0.001 A 
ATOM     26  C   UNL     1      -0.514  -0.408   1.922  0.00  0.00    +0.010 A 
ATOM     27  C   UNL     1       3.022  -0.405   3.068  0.00  0.00    +0.008 A 
ATOM     28  C   UNL     1      -0.401  -1.045   0.689  0.00  0.00    +0.029 A 
ENDBRANCH  16  19
ENDBRANCH  14  16
ENDBRANCH   1  14
BRANCH   1  29
ATOM     29  C   UNL     1       2.325  -5.020   0.312  0.00  0.00    +0.065 C 
BRANCH  29  32
ATOM     30  C   UNL     1       5.103  -6.253  -1.970  0.00  0.00    +0.065 A 
ATOM     31  C   UNL     1       4.350  -5.955  -0.823  0.00  0.00    +0.019 A 
ATOM     32  C   UNL     1       2.977  -5.646  -0.909  0.00  0.00    -0.045 A 
ATOM     33  C   UNL     1       2.356  -5.770  -2.156  0.00  0.00    +0.004 A 
ATOM     34  C   UNL     1       3.095  -6.088  -3.298  0.00  0.00    +0.001 A 
ATOM     35  C   UNL     1       4.468  -6.307  -3.212  0.00  0.00    +0.016 A 
BRANCH  30  39
ATOM     36  N   UNL     1       7.332  -6.833  -2.921  0.00  0.00    -0.247 N 
ATOM     37  H   UNL     1       6.876  -7.498  -3.536  0.00  0.00    +0.288 HD
ATOM     38  H   UNL     1       8.288  -7.094  -2.721  0.00  0.00    +0.288 HD
ATOM     39  C   UNL     1       6.592  -6.369  -1.871  0.00  0.00    +0.308 C 
ATOM     40  N   UNL     1       7.188  -6.002  -0.782  0.00  0.00    -0.099 NA
ATOM     41  H   UNL     1       8.199  -6.084  -0.902  0.00  0.00    +0.363 HD
ENDBRANCH  30  39
ENDBRANCH  29  32
ENDBRANCH   1  29
TORSDOF 9
