REMARK  Name = 
REMARK  10 active torsions:
REMARK  status: ('A' for Active; 'I' for Inactive)
REMARK    1  A    between atoms: C_1  and  O_2
REMARK    2  A    between atoms: O_2  and  C_3
REMARK    3  A    between atoms: N_7  and  C_12
REMARK    4  A    between atoms: C_15  and  C_17
REMARK    5  A    between atoms: C_17  and  O_18
REMARK    6  A    between atoms: O_18  and  P_19
REMARK    7  A    between atoms: P_19  and  O_20
REMARK    8  A    between atoms: P_19  and  O_21
REMARK    9  A    between atoms: C_23  and  O_25
REMARK   10  A    between atoms: C_26  and  O_28
REMARK                            x       y       z     vdW  Elec       q    Type
REMARK                         _______ _______ _______ _____ _____    ______ ____
ROOT
ATOM      1  C   UNL     1       5.621  -2.378  -5.305  0.00  0.00    +0.252 C 
ATOM      2  C   UNL     1       6.862  -3.293  -5.309  0.00  0.00    +0.195 C 
ATOM      3  C   UNL     1       7.986  -2.430  -5.884  0.00  0.00    +0.178 C 
ATOM      4  C   UNL     1       7.321  -1.080  -6.132  0.00  0.00    +0.178 C 
ATOM      5  O   UNL     1       6.183  -1.043  -5.261  0.00  0.00    -0.346 OA
ENDROOT
BRANCH   1  10
ATOM      6  C   UNL     1       2.295  -0.059  -8.717  0.00  0.00    +0.122 A 
ATOM      7  C   UNL     1       2.482  -1.424  -8.947  0.00  0.00    +0.075 A 
ATOM      8  C   UNL     1       3.318  -2.148  -8.088  0.00  0.00    +0.092 A 
ATOM      9  C   UNL     1       3.955  -1.507  -7.026  0.00  0.00    +0.071 A 
ATOM     10  N   UNL     1       4.720  -2.500  -6.446  0.00  0.00    -0.301 N 
ATOM     11  C   UNL     1       4.430  -3.671  -7.097  0.00  0.00    +0.202 A 
ATOM     12  C   UNL     1       3.749  -0.150  -6.755  0.00  0.00    +0.031 A 
ATOM     13  N   UNL     1       3.623  -3.484  -8.113  0.00  0.00    -0.236 NA
ATOM     14  C   UNL     1       2.902   0.558  -7.619  0.00  0.00    +0.048 A 
BRANCH   6  16
ATOM     15  C   UNL     1       1.408   0.394 -10.855  0.00  0.00    +0.277 C 
ATOM     16  O   UNL     1       1.494   0.753  -9.478  0.00  0.00    -0.495 OA
ENDBRANCH   6  16
ENDBRANCH   1  10
BRANCH   2  17
ATOM     17  O   UNL     1       7.192  -3.674  -3.958  0.00  0.00    -0.385 OA
ATOM     18  H   UNL     1       7.286  -2.867  -3.423  0.00  0.00    +0.210 HD
ENDBRANCH   2  17
BRANCH   3  19
ATOM     19  O   UNL     1       8.495  -2.983  -7.093  0.00  0.00    -0.386 OA
ATOM     20  H   UNL     1       9.193  -2.380  -7.416  0.00  0.00    +0.210 HD
ENDBRANCH   3  19
BRANCH   4  21
ATOM     21  C   UNL     1       8.248   0.093  -5.866  0.00  0.00    +0.206 C 
BRANCH  21  22
ATOM     22  O   UNL     1       9.392  -0.033  -6.696  0.00  0.00    -0.284 OA
BRANCH  22  23
ATOM     23  P   UNL     1      10.470   1.146  -6.664  0.00  0.00    +0.472 P 
ATOM     24  O   UNL     1      11.657   0.949  -7.540  0.00  0.00    -0.228 OA
BRANCH  23  25
ATOM     25  O   UNL     1      10.832   1.297  -5.121  0.00  0.00    -0.303 OA
ATOM     26  H   UNL     1      11.582   0.732  -4.878  0.00  0.00    +0.222 HD
ENDBRANCH  23  25
BRANCH  23  27
ATOM     27  O   UNL     1       9.630   2.463  -6.995  0.00  0.00    -0.303 OA
ATOM     28  H   UNL     1       9.544   2.597  -7.959  0.00  0.00    +0.222 HD
ENDBRANCH  23  27
ENDBRANCH  22  23
ENDBRANCH  21  22
ENDBRANCH   4  21
TORSDOF 9
