REMARK  Name = 
REMARK  7 active torsions:
REMARK  status: ('A' for Active; 'I' for Inactive)
REMARK    1  A    between atoms: C_1  and  C_2
REMARK    2  A    between atoms: C_2  and  N_3
REMARK    3  A    between atoms: C_2  and  C_4
REMARK    4  A    between atoms: C_2  and  C_7
REMARK    5  A    between atoms: C_4  and  O_5
REMARK    6  A    between atoms: C_10  and  C_13
REMARK    7  A    between atoms: C_13  and  O_14
REMARK                            x       y       z     vdW  Elec       q    Type
REMARK                         _______ _______ _______ _____ _____    ______ ____
ROOT
ATOM      1  C   UNL     1       3.190  -1.433  -0.047  0.00  0.00    -0.017 A 
ATOM      2  C   UNL     1       2.388  -2.543   0.283  0.00  0.00    +0.007 A 
ATOM      3  C   UNL     1       2.847  -3.854   0.119  0.00  0.00    +0.015 A 
ATOM      4  C   UNL     1       4.118  -4.094  -0.400  0.00  0.00    +0.059 A 
ATOM      5  C   UNL     1       4.941  -3.013  -0.727  0.00  0.00    +0.015 A 
ATOM      6  C   UNL     1       4.474  -1.700  -0.567  0.00  0.00    +0.007 A 
ENDROOT
BRANCH   1   8
ATOM      7  C   UNL     1       1.631   0.155   1.247  0.00  0.00    +0.045 C 
ATOM      8  C   UNL     1       2.648  -0.003   0.100  0.00  0.00    +0.137 C 
BRANCH   8   9
ATOM      9  N   UNL     1       3.726   0.997   0.405  0.00  0.00    -0.312 NA
ATOM     10  H   UNL     1       4.208   0.678   1.250  0.00  0.00    +0.120 HD
ATOM     11  H   UNL     1       4.429   0.965  -0.335  0.00  0.00    +0.120 HD
ENDBRANCH   8   9
BRANCH   8  12
ATOM     12  C   UNL     1       1.932   0.471  -1.202  0.00  0.00    +0.329 C 
ATOM     13  O   UNL     1       1.277  -0.224  -1.962  0.00  0.00    -0.249 OA
BRANCH  12  14
ATOM     14  O   UNL     1       2.089   1.815  -1.385  0.00  0.00    -0.479 OA
ATOM     15  H   UNL     1       2.652   2.141  -0.641  0.00  0.00    +0.295 HD
ENDBRANCH  12  14
ENDBRANCH   8  12
ENDBRANCH   1   8
BRANCH   4  16
ATOM     16  C   UNL     1       4.557  -5.502  -0.557  0.00  0.00    +0.337 C 
ATOM     17  O   UNL     1       4.185  -6.398   0.181  0.00  0.00    -0.245 OA
BRANCH  16  18
ATOM     18  O   UNL     1       5.368  -5.704  -1.617  0.00  0.00    -0.477 OA
ATOM     19  H   UNL     1       5.417  -4.961  -2.245  0.00  0.00    +0.295 HD
ENDBRANCH  16  18
ENDBRANCH   4  16
TORSDOF 6
