REMARK  Name = 
REMARK  14 active torsions:
REMARK  status: ('A' for Active; 'I' for Inactive)
REMARK    1  A    between atoms: C_1  and  C_2
REMARK    2  A    between atoms: C_2  and  C_3
REMARK    3  A    between atoms: C_3  and  C_4
REMARK    4  A    between atoms: C_5  and  O_6
REMARK    5  A    between atoms: O_6  and  C_7
REMARK    6  A    between atoms: C_7  and  C_8
REMARK    7  A    between atoms: C_8  and  C_9
REMARK    8  A    between atoms: C_9  and  O_10
REMARK    9  A    between atoms: O_10  and  C_11
REMARK   10  A    between atoms: N_17  and  C_18
REMARK   11  A    between atoms: C_18  and  C_19
REMARK   12  A    between atoms: C_19  and  O_20
REMARK   13  A    between atoms: C_30  and  C_32
REMARK   14  A    between atoms: C_32  and  C_34
REMARK                            x       y       z     vdW  Elec       q    Type
REMARK                         _______ _______ _______ _____ _____    ______ ____
ROOT
ATOM      1  C   UNL     1       4.429  -0.001   1.456  0.00  0.00    +0.002 A 
ATOM      2  C   UNL     1       5.113   1.250   1.377  0.00  0.00    -0.011 A 
ATOM      3  C   UNL     1       4.471   2.505   1.448  0.00  0.00    +0.009 A 
ATOM      4  C   UNL     1       5.182   3.702   1.356  0.00  0.00    +0.012 A 
ATOM      5  C   UNL     1       6.553   3.688   1.109  0.00  0.00    +0.023 A 
ATOM      6  C   UNL     1       7.226   2.464   1.089  0.00  0.00    +0.020 A 
ATOM      7  C   UNL     1       6.525   1.258   1.232  0.00  0.00    -0.017 A 
ATOM      8  C   UNL     1       7.228   0.053   1.208  0.00  0.00    +0.012 A 
ATOM      9  C   UNL     1       6.559  -1.162   1.300  0.00  0.00    +0.046 A 
ATOM     10  C   UNL     1       5.174  -1.202   1.451  0.00  0.00    +0.124 A 
ENDROOT
BRANCH   5  11
ATOM     11  C   UNL     1       7.325   4.934   0.870  0.00  0.00    +0.193 C 
ATOM     12  O   UNL     1       8.531   4.958   1.115  0.00  0.00    -0.287 OA
BRANCH  11  13
ATOM     13  C   UNL     1       6.668   6.165   0.347  0.00  0.00    +0.022 A 
ATOM     14  C   UNL     1       7.149   7.406   0.779  0.00  0.00    +0.012 A 
ATOM     15  C   UNL     1       6.517   8.581   0.370  0.00  0.00    +0.001 A 
ATOM     16  C   UNL     1       5.407   8.521  -0.472  0.00  0.00    +0.000 A 
ATOM     17  C   UNL     1       4.946   7.290  -0.937  0.00  0.00    +0.001 A 
ATOM     18  C   UNL     1       5.590   6.114  -0.548  0.00  0.00    +0.012 A 
ENDBRANCH  11  13
ENDBRANCH   5  11
BRANCH   1  19
ATOM     19  C   UNL     1       2.905  -0.078   1.465  0.00  0.00    +0.039 C 
BRANCH  19  21
ATOM     20  C   UNL     1       0.839  -0.228   0.013  0.00  0.00    +0.004 C 
ATOM     21  C   UNL     1       2.359  -0.216   0.039  0.00  0.00    +0.001 C 
ENDBRANCH  19  21
ENDBRANCH   1  19
BRANCH  10  22
ATOM     22  O   UNL     1       4.458  -2.360   1.617  0.00  0.00    -0.492 OA
BRANCH  22  23
ATOM     23  C   UNL     1       5.154  -3.576   1.901  0.00  0.00    +0.232 C 
BRANCH  23  24
ATOM     24  C   UNL     1       5.883  -3.577   3.247  0.00  0.00    +0.082 C 
BRANCH  24  25
ATOM     25  C   UNL     1       4.950  -3.215   4.394  0.00  0.00    +0.232 C 
BRANCH  25  26
ATOM     26  O   UNL     1       5.725  -3.120   5.589  0.00  0.00    -0.492 OA
BRANCH  26  27
ATOM     27  C   UNL     1       5.043  -2.762   6.723  0.00  0.00    +0.121 A 
ATOM     28  C   UNL     1       3.660  -2.622   6.833  0.00  0.00    +0.048 A 
ATOM     29  C   UNL     1       3.054  -2.286   8.051  0.00  0.00    +0.030 A 
ATOM     30  C   UNL     1       3.876  -2.090   9.172  0.00  0.00    +0.050 A 
ATOM     31  N   UNL     1       3.586  -1.790  10.490  0.00  0.00    -0.336 N 
ATOM     32  C   UNL     1       4.747  -1.711  11.218  0.00  0.00    +0.087 A 
ATOM     33  C   UNL     1       5.799  -1.976  10.375  0.00  0.00    +0.028 A 
ATOM     34  C   UNL     1       5.267  -2.217   9.082  0.00  0.00    +0.003 A 
ATOM     35  C   UNL     1       5.851  -2.555   7.846  0.00  0.00    +0.055 A 
BRANCH  31  36
ATOM     36  C   UNL     1       2.257  -1.669  11.080  0.00  0.00    +0.242 C 
BRANCH  36  37
ATOM     37  C   UNL     1       1.751  -0.265  11.296  0.00  0.00    +0.325 C 
ATOM     38  O   UNL     1       0.713  -0.047  11.916  0.00  0.00    -0.249 OA
BRANCH  37  39
ATOM     39  O   UNL     1       2.453   0.751  10.760  0.00  0.00    -0.479 OA
ATOM     40  H   UNL     1       3.269   0.506  10.276  0.00  0.00    +0.295 HD
ENDBRANCH  37  39
ENDBRANCH  36  37
ENDBRANCH  31  36
ENDBRANCH  26  27
ENDBRANCH  25  26
ENDBRANCH  24  25
ENDBRANCH  23  24
ENDBRANCH  22  23
ENDBRANCH  10  22
TORSDOF 13
