REMARK  Name = 
REMARK  7 active torsions:
REMARK  status: ('A' for Active; 'I' for Inactive)
REMARK    1  A    between atoms: C_1  and  C_2
REMARK    2  A    between atoms: C_2  and  C_3
REMARK    3  A    between atoms: C_2  and  C_4
REMARK    4  A    between atoms: C_4  and  O_5
REMARK    5  A    between atoms: O_5  and  C_6
REMARK    6  A    between atoms: C_9  and  C_13
REMARK    7  A    between atoms: C_17  and  C_22
REMARK                            x       y       z     vdW  Elec       q    Type
REMARK                         _______ _______ _______ _____ _____    ______ ____
ROOT
ATOM      1  C   UNL     1       7.502   3.090   4.049  0.00  0.00    +0.139 A 
ATOM      2  N   UNL     1       7.962   1.866   4.493  0.00  0.00    -0.338 N 
ATOM      3  H   UNL     1       7.605   1.004   4.085  0.00  0.00    +0.167 HD
ATOM      4  C   UNL     1       8.910   2.080   5.462  0.00  0.00    +0.067 A 
ATOM      5  C   UNL     1       8.962   3.460   5.569  0.00  0.00    +0.090 A 
ATOM      6  C   UNL     1       9.837   4.059   6.483  0.00  0.00    +0.045 A 
ATOM      7  C   UNL     1      10.673   3.257   7.276  0.00  0.00    +0.063 A 
ATOM      8  C   UNL     1      10.595   1.855   7.136  0.00  0.00    +0.018 A 
ATOM      9  C   UNL     1       9.708   1.235   6.233  0.00  0.00    +0.028 A 
ATOM     10  N   UNL     1       8.103   4.071   4.711  0.00  0.00    -0.228 NA
ENDROOT
BRANCH   1  15
ATOM     11  C   UNL     1       4.993   2.471   1.241  0.00  0.00    +0.114 A 
ATOM     12  C   UNL     1       4.696   3.821   0.942  0.00  0.00    +0.045 A 
ATOM     13  C   UNL     1       5.276   4.864   1.636  0.00  0.00    +0.004 A 
ATOM     14  C   UNL     1       6.171   4.569   2.644  0.00  0.00    +0.011 A 
ATOM     15  C   UNL     1       6.500   3.235   2.971  0.00  0.00    +0.013 A 
ATOM     16  C   UNL     1       5.915   2.109   2.285  0.00  0.00    -0.054 A 
ATOM     17  O   UNL     1       6.204   0.889   2.588  0.00  0.00    -0.871 OA
BRANCH  11  18
ATOM     18  O   UNL     1       4.394   1.433   0.523  0.00  0.00    -0.492 OA
BRANCH  18  19
ATOM     19  C   UNL     1       3.538   1.832  -0.547  0.00  0.00    +0.232 C 
BRANCH  19  21
ATOM     20  C   UNL     1       2.030   1.167  -2.420  0.00  0.00    +0.010 C 
ATOM     21  C   UNL     1       2.970   0.641  -1.329  0.00  0.00    +0.020 C 
ATOM     22  C   UNL     1       4.081  -0.202  -1.950  0.00  0.00    +0.010 C 
ENDBRANCH  19  21
ENDBRANCH  18  19
ENDBRANCH  11  18
ENDBRANCH   1  15
BRANCH   7  23
ATOM     23  C   UNL     1      11.602   3.898   8.227  0.00  0.00    +0.266 C 
ATOM     24  N   UNL     1      11.897   3.307   9.364  0.00  0.00    -0.288 N 
ATOM     25  H   UNL     1      12.523   3.716  10.043  0.00  0.00    +0.301 HD
ATOM     26  H   UNL     1      11.465   2.420   9.601  0.00  0.00    +0.301 HD
ATOM     27  N   UNL     1      12.123   5.075   7.946  0.00  0.00    -0.250 N 
ATOM     28  H   UNL     1      12.733   5.570   8.581  0.00  0.00    +0.288 HD
ATOM     29  H   UNL     1      11.920   5.523   7.058  0.00  0.00    +0.288 HD
ENDBRANCH   7  23
TORSDOF 5
