REMARK  Name = 
REMARK  10 active torsions:
REMARK  status: ('A' for Active; 'I' for Inactive)
REMARK    1  A    between atoms: N_1  and  CA_2
REMARK    2  A    between atoms: CA_2  and  C_4
REMARK    3  A    between atoms: CA_2  and  C_12
REMARK    4  A    between atoms: C_4  and  C_5
REMARK    5  A    between atoms: C_5  and  C_6
REMARK    6  A    between atoms: C_7  and  B_8
REMARK    7  A    between atoms: B_8  and  O_9
REMARK    8  A    between atoms: B_8  and  O_10
REMARK    9  A    between atoms: B_8  and  O_11
REMARK   10  A    between atoms: C_12  and  O_13
REMARK                            x       y       z     vdW  Elec       q    Type
REMARK                         _______ _______ _______ _____ _____    ______ ____
ROOT
ATOM      1  C   UNL     1       2.409   0.077  -2.539  0.00  0.00    +0.000 C 
ENDROOT
BRANCH   1   2
ATOM      2  C   UNL     1       2.938   0.767  -3.768  0.00  0.00    +0.000 C 
ATOM      3  C   UNL     1       2.649   0.295  -4.989  0.00  0.00    +0.000 C 
BRANCH   3   4
ATOM      4  B   UNL     1       3.183   1.006  -6.311  0.00  0.00    +0.000 B 
BRANCH   4   5
ATOM      5  O   UNL     1       4.659   1.021  -6.298  0.00  0.00    +0.000 OA
ATOM      6  H   UNL     1       4.949   0.075  -6.375  0.00  0.00    +0.000 HD
ENDBRANCH   4   5
BRANCH   4   7
ATOM      7  O   UNL     1       2.699   2.403  -6.365  0.00  0.00    +0.000 OA
ATOM      8  H   UNL     1       1.708   2.366  -6.369  0.00  0.00    +0.000 HD
ENDBRANCH   4   7
BRANCH   4   9
ATOM      9  O   UNL     1       2.717   0.271  -7.510  0.00  0.00    +0.000 OA
ATOM     10  H   UNL     1       1.726   0.291  -7.494  0.00  0.00    +0.000 HD
ENDBRANCH   4   9
ENDBRANCH   3   4
ENDBRANCH   1   2
BRANCH   1  11
ATOM     11  C   UNL     1       2.857   0.797  -1.260  0.00  0.00    +0.000 C 
BRANCH  11  12
ATOM     12  CA  UNL     1       2.360   0.102   0.028  0.00  0.00    +0.000 C 
BRANCH  12  13
ATOM     13  N   UNL     1       0.897   0.063   0.111  0.00  0.00    +0.000 NA
ATOM     14  H1  UNL     1       0.493   1.016  -0.038  0.00  0.00    +0.000 HD
ATOM     15  H2  UNL     1       0.507  -0.591  -0.603  0.00  0.00    +0.000 HD
ENDBRANCH  12  13
BRANCH  12  16
ATOM     16  C   UNL     1       2.904   0.808   1.249  0.00  0.00    +0.000 C 
ATOM     17  OXT UNL     1       3.637   0.205   2.018  0.00  0.00    +0.000 OA
BRANCH  16  18
ATOM     18  O   UNL     1       2.597   2.097   1.512  0.00  0.00    +0.000 OA
ATOM     19  H   UNL     1       2.018   2.617   0.938  0.00  0.00    +0.000 HD
ENDBRANCH  16  18
ENDBRANCH  12  16
ENDBRANCH  11  12
ENDBRANCH   1  11
TORSDOF 10
