REMARK  Name = 
REMARK  24 active torsions:
REMARK  status: ('A' for Active; 'I' for Inactive)
REMARK    1  A    between atoms: C_1  and  C_2
REMARK    2  A    between atoms: C_2  and  O_3
REMARK    3  A    between atoms: O_3  and  C_4
REMARK    4  A    between atoms: C_4  and  C_6
REMARK    5  A    between atoms: C_7  and  C_8
REMARK    6  A    between atoms: C_8  and  C_10
REMARK    7  A    between atoms: C_8  and  N_18
REMARK    8  A    between atoms: C_10  and  C_11
REMARK    9  A    between atoms: C_19  and  C_21
REMARK   10  A    between atoms: C_21  and  C_23
REMARK   11  A    between atoms: C_21  and  N_27
REMARK   12  A    between atoms: C_23  and  C_24
REMARK   13  A    between atoms: C_24  and  C_25
REMARK   14  A    between atoms: C_24  and  C_26
REMARK   15  A    between atoms: C_28  and  C_30
REMARK   16  A    between atoms: C_30  and  C_32
REMARK   17  A    between atoms: C_30  and  N_35
REMARK   18  A    between atoms: C_32  and  C_33
REMARK   19  A    between atoms: C_32  and  C_34
REMARK   20  A    between atoms: C_36  and  C_38
REMARK   21  A    between atoms: C_38  and  C_40
REMARK   22  A    between atoms: C_38  and  N_41
REMARK   23  A    between atoms: C_42  and  C_44
REMARK   24  A    between atoms: C_47  and  C_48
REMARK                            x       y       z     vdW  Elec       q    Type
REMARK                         _______ _______ _______ _____ _____    ______ ____
ROOT
ATOM      1  C   UNL     1       7.336  -8.966   8.070  0.00  0.00    +0.159 C 
ENDROOT
BRANCH   1   2
ATOM      2  N   UNL     1       6.427  -8.395   7.066  0.00  0.00    -0.302 N 
ATOM      3  H   UNL     1       6.609  -8.687   6.118  0.00  0.00    +0.150 HD
ATOM      4  C   UNL     1       5.428  -7.500   7.376  0.00  0.00    +0.234 C 
ATOM      5  O   UNL     1       5.188  -7.206   8.547  0.00  0.00    -0.274 OA
BRANCH   4   6
ATOM      6  C   UNL     1       4.583  -6.925   6.197  0.00  0.00    +0.161 C 
BRANCH   6   7
ATOM      7  N   UNL     1       5.250  -7.043   4.894  0.00  0.00    -0.302 N 
ATOM      8  H   UNL     1       5.933  -7.767   4.725  0.00  0.00    +0.150 HD
ATOM      9  C   UNL     1       4.893  -6.295   3.794  0.00  0.00    +0.234 C 
ATOM     10  O   UNL     1       4.038  -5.411   3.842  0.00  0.00    -0.274 OA
BRANCH   9  11
ATOM     11  C   UNL     1       5.768  -6.533   2.538  0.00  0.00    +0.156 C 
ATOM     12  C   UNL     1       4.948  -6.386   1.259  0.00  0.00    +0.038 C 
BRANCH  11  13
ATOM     13  N   UNL     1       6.554  -7.766   2.585  0.00  0.00    -0.299 N 
ATOM     14  H   UNL     1       7.571  -7.709   2.553  0.00  0.00    +0.150 HD
ATOM     15  C   UNL     1       6.011  -9.031   2.506  0.00  0.00    +0.266 C 
ATOM     16  O   UNL     1       4.801  -9.231   2.445  0.00  0.00    -0.268 OA
BRANCH  15  17
ATOM     17  C   UNL     1       6.973 -10.122   2.593  0.00  0.00    +0.168 A 
ATOM     18  C   UNL     1       6.681 -11.504   2.645  0.00  0.00    +0.080 A 
ATOM     19  C   UNL     1       7.898 -12.114   2.800  0.00  0.00    +0.135 A 
ATOM     20  C   UNL     1       8.319 -13.519   2.941  0.00  0.00    +0.089 C 
ATOM     21  O   UNL     1       8.872 -11.165   2.826  0.00  0.00    -0.359 OA
ATOM     22  N   UNL     1       8.299  -9.909   2.687  0.00  0.00    -0.073 NA
ENDBRANCH  15  17
ENDBRANCH  11  13
ENDBRANCH   9  11
ENDBRANCH   6   7
BRANCH   6  23
ATOM     23  C   UNL     1       3.111  -7.428   6.155  0.00  0.00    +0.012 C 
ATOM     24  C   UNL     1       2.362  -7.191   7.471  0.00  0.00    +0.009 C 
ATOM     25  C   UNL     1       2.954  -8.885   5.722  0.00  0.00    +0.009 C 
ENDBRANCH   6  23
ENDBRANCH   4   6
ENDBRANCH   1   2
BRANCH   1  28
ATOM     26  N   UNL     1       9.588 -10.059   8.104  0.00  0.00    -0.307 N 
ATOM     27  H   UNL     1       9.497 -10.089   9.113  0.00  0.00    +0.149 HD
ATOM     28  C   UNL     1       8.627  -9.424   7.340  0.00  0.00    +0.234 C 
ATOM     29  O   UNL     1       8.777  -9.206   6.134  0.00  0.00    -0.274 OA
BRANCH  26  30
ATOM     30  C   UNL     1      10.853 -10.486   7.527  0.00  0.00    +0.097 C 
BRANCH  30  32
ATOM     31  C   UNL     1      10.583 -12.805   8.545  0.00  0.00    +0.089 C 
ATOM     32  C   UNL     1      11.329 -11.762   8.153  0.00  0.00    +0.002 C 
BRANCH  31  33
ATOM     33  C   UNL     1      11.253 -14.022   9.046  0.00  0.00    +0.332 C 
ATOM     34  O   UNL     1      12.457 -14.217   9.039  0.00  0.00    -0.246 OA
BRANCH  33  35
ATOM     35  O   UNL     1      10.284 -14.918   9.354  0.00  0.00    -0.462 OA
BRANCH  35  37
ATOM     36  C   UNL     1      10.549 -16.808   7.937  0.00  0.00    +0.048 C 
ATOM     37  C   UNL     1      10.719 -16.283   9.351  0.00  0.00    +0.229 C 
ENDBRANCH  35  37
ENDBRANCH  33  35
ENDBRANCH  31  33
ENDBRANCH  30  32
BRANCH  30  38
ATOM     38  C   UNL     1      11.925  -9.375   7.575  0.00  0.00    +0.039 C 
BRANCH  38  39
ATOM     39  C   UNL     1      12.247  -8.780   8.958  0.00  0.00    +0.078 C 
ATOM     40  C   UNL     1      12.918  -9.751   9.910  0.00  0.00    +0.216 C 
ATOM     41  O   UNL     1      12.356 -10.537  10.651  0.00  0.00    -0.276 OA
ATOM     42  N   UNL     1      14.283  -9.613   9.781  0.00  0.00    -0.315 N 
ATOM     43  H   UNL     1      14.923 -10.191  10.315  0.00  0.00    +0.149 HD
ATOM     44  C   UNL     1      14.646  -8.510   8.945  0.00  0.00    +0.105 C 
ATOM     45  C   UNL     1      13.354  -7.714   8.849  0.00  0.00    +0.031 C 
ENDBRANCH  38  39
ENDBRANCH  30  38
ENDBRANCH  26  30
ENDBRANCH   1  28
BRANCH   1  46
ATOM     46  C   UNL     1       6.639 -10.051   8.907  0.00  0.00    +0.034 C 
BRANCH  46  47
ATOM     47  C   UNL     1       5.865 -11.132   8.120  0.00  0.00    -0.015 C 
ATOM     48  C   UNL     1       5.031 -11.972   9.091  0.00  0.00    +0.007 C 
ATOM     49  C   UNL     1       6.765 -12.056   7.306  0.00  0.00    +0.007 C 
ENDBRANCH  46  47
ENDBRANCH   1  46
TORSDOF 17
