REMARK  Name = 
REMARK  5 active torsions:
REMARK  status: ('A' for Active; 'I' for Inactive)
REMARK    1  A    between atoms: O_1  and  C_2
REMARK    2  A    between atoms: C_8  and  C_9
REMARK    3  A    between atoms: C_9  and  C_10
REMARK    4  A    between atoms: C_10  and  C_12
REMARK    5  A    between atoms: C_12  and  N_13
REMARK                            x       y       z     vdW  Elec       q    Type
REMARK                         _______ _______ _______ _____ _____    ______ ____
ROOT
ATOM      1  C   UNL     1       6.481   1.813   0.686  0.00  0.00    +0.200 C 
ENDROOT
BRANCH   1   2
ATOM      2  N   UNL     1       6.980   3.164   0.888  0.00  0.00    -0.291 N 
ATOM      3  C   UNL     1       7.489   3.853  -0.202  0.00  0.00    +0.262 A 
ATOM      4  O   UNL     1       7.461   3.428  -1.352  0.00  0.00    -0.267 OA
ATOM      5  C   UNL     1       8.092   5.169   0.095  0.00  0.00    +0.066 A 
ATOM      6  C   UNL     1       8.024   5.627   1.407  0.00  0.00    +0.079 A 
ATOM      7  C   UNL     1       8.620   6.851   1.729  0.00  0.00    +0.045 A 
ATOM      8  C   UNL     1       9.281   7.599   0.746  0.00  0.00    +0.038 A 
ATOM      9  C   UNL     1       9.339   7.129  -0.571  0.00  0.00    +0.056 A 
ATOM     10 CL   UNL     1      10.143   7.988  -1.835  0.00  0.00    -0.082 Cl
ATOM     11 BR   UNL     1      10.089   9.232   1.287  0.00  0.00    -0.049 Br
ATOM     12  N   UNL     1       7.393   4.906   2.427  0.00  0.00    -0.237 NA
ATOM     13  C   UNL     1       8.737   5.911  -0.900  0.00  0.00    +0.036 A 
ATOM     14  C   UNL     1       6.917   3.742   2.134  0.00  0.00    +0.203 A 
ENDBRANCH   1   2
BRANCH   1  15
ATOM     15  C   UNL     1       4.996   1.859   0.356  0.00  0.00    +0.155 C 
ATOM     16  O   UNL     1       4.200   2.461   1.083  0.00  0.00    -0.295 OA
BRANCH  15  17
ATOM     17  C   UNL     1       4.543   1.223  -0.943  0.00  0.00    +0.097 C 
BRANCH  17  19
ATOM     18  C   UNL     1       4.536  -0.910  -2.412  0.00  0.00    +0.132 C 
ATOM     19  C   UNL     1       4.867  -0.282  -1.032  0.00  0.00    +0.089 C 
ATOM     20  N   UNL     1       4.223  -1.050   0.052  0.00  0.00    -0.310 NA
ATOM     21  H   UNL     1       4.604  -1.999   0.049  0.00  0.00    +0.122 HD
ATOM     22  C   UNL     1       2.765  -1.156  -0.126  0.00  0.00    +0.081 C 
ATOM     23  C   UNL     1       2.367  -1.727  -1.490  0.00  0.00    +0.018 C 
ATOM     24  C   UNL     1       3.029  -0.977  -2.645  0.00  0.00    +0.034 C 
BRANCH  18  25
ATOM     25  O   UNL     1       5.200  -0.256  -3.484  0.00  0.00    -0.390 OA
ATOM     26  H   UNL     1       4.942   0.681  -3.513  0.00  0.00    +0.210 HD
ENDBRANCH  18  25
ENDBRANCH  17  19
ENDBRANCH  15  17
ENDBRANCH   1  15
TORSDOF 5
