REMARK  Name = 
REMARK  2 active torsions:
REMARK  status: ('A' for Active; 'I' for Inactive)
REMARK    1  A    between atoms: C_1  and  C_2
REMARK    2  A    between atoms: C_2  and  C_3
REMARK                            x       y       z     vdW  Elec       q    Type
REMARK                         _______ _______ _______ _____ _____    ______ ____
ROOT
ATOM      1  C   UNL     1       3.041  -1.206   1.011  0.00  0.00    +0.210 C 
ATOM      2  O   UNL     1       2.309  -1.974   1.621  0.00  0.00    -0.276 OA
ATOM      3  N   UNL     1       4.399  -1.315   1.096  0.00  0.00    -0.329 N 
ATOM      4  H   UNL     1       4.774  -2.052   1.680  0.00  0.00    +0.145 HD
ATOM      5  H   UNL     1       5.036  -0.702   0.609  0.00  0.00    +0.145 HD
ENDROOT
BRANCH   1   7
ATOM      6  C   UNL     1       1.054   0.004   0.053  0.00  0.00    +0.013 C 
ATOM      7  C   UNL     1       2.568  -0.080   0.119  0.00  0.00    +0.092 C 
ENDBRANCH   1   7
TORSDOF 1
