REMARK  Name = 
REMARK  3 active torsions:
REMARK  status: ('A' for Active; 'I' for Inactive)
REMARK    1  A    between atoms: C_1  and  C_2
REMARK    2  A    between atoms: C_5  and  S_6
REMARK    3  A    between atoms: S_6  and  C_7
REMARK                            x       y       z     vdW  Elec       q    Type
REMARK                         _______ _______ _______ _____ _____    ______ ____
ROOT
ATOM      1  C   UNL     1       7.669  -1.429  -0.679  0.00  0.00    +0.025 A 
ATOM      2  C   UNL     1       6.892  -2.487  -1.256  0.00  0.00    +0.054 A 
ATOM      3  C   UNL     1       5.713  -2.396  -2.022  0.00  0.00    +0.130 A 
ATOM      4  N   UNL     1       4.961  -3.455  -2.362  0.00  0.00    -0.199 NA
ATOM      5  C   UNL     1       5.406  -4.647  -1.979  0.00  0.00    +0.215 A 
ATOM      6  N   UNL     1       6.586  -4.870  -1.409  0.00  0.00    -0.215 NA
ATOM      7  N   UNL     1       4.601  -5.738  -2.225  0.00  0.00    -0.327 N 
ATOM      8  H   UNL     1       5.158  -6.579  -2.282  0.00  0.00    +0.145 HD
ATOM      9  H   UNL     1       3.968  -5.540  -2.986  0.00  0.00    +0.145 HD
ATOM     10  N   UNL     1       5.305  -1.204  -2.618  0.00  0.00    -0.342 N 
ATOM     11  H   UNL     1       4.407  -1.341  -3.069  0.00  0.00    +0.144 HD
ATOM     12  H   UNL     1       5.346  -0.401  -2.001  0.00  0.00    +0.144 HD
ATOM     13  C   UNL     1       7.318  -3.807  -1.068  0.00  0.00    +0.079 A 
ATOM     14  C   UNL     1       8.566  -4.044  -0.506  0.00  0.00    +0.028 A 
ATOM     15  C   UNL     1       9.391  -3.009  -0.074  0.00  0.00    +0.003 A 
ATOM     16  C   UNL     1       8.927  -1.703  -0.130  0.00  0.00    +0.016 A 
ENDROOT
BRANCH   1  17
ATOM     17  S   UNL     1       7.116   0.272  -0.559  0.00  0.00    -0.089 S 
BRANCH  17  22
ATOM     18  C   UNL     1       3.461   1.042   4.267  0.00  0.00    +0.044 C 
ATOM     19  C   UNL     1       4.476   0.766   3.195  0.00  0.00    -0.050 A 
ATOM     20  C   UNL     1       4.474  -0.458   2.517  0.00  0.00    +0.004 A 
ATOM     21  C   UNL     1       5.321  -0.669   1.417  0.00  0.00    +0.015 A 
ATOM     22  C   UNL     1       6.183   0.341   0.975  0.00  0.00    +0.013 A 
ATOM     23  C   UNL     1       6.221   1.542   1.695  0.00  0.00    +0.015 A 
ATOM     24  C   UNL     1       5.376   1.756   2.792  0.00  0.00    +0.004 A 
ENDBRANCH  17  22
ENDBRANCH   1  17
TORSDOF 2
