REMARK  Name = 
REMARK  14 active torsions:
REMARK  status: ('A' for Active; 'I' for Inactive)
REMARK    1  A    between atoms: C_1  and  C_2
REMARK    2  A    between atoms: C_4  and  C_5
REMARK    3  A    between atoms: C_13  and  C_14
REMARK    4  A    between atoms: C_14  and  C_15
REMARK    5  A    between atoms: C_15  and  C_16
REMARK    6  A    between atoms: C_16  and  O_17
REMARK    7  A    between atoms: C_19  and  C_20
REMARK    8  A    between atoms: C_31  and  C_32
REMARK    9  A    between atoms: C_34  and  C_35
REMARK   10  A    between atoms: C_36  and  C_37
REMARK   11  A    between atoms: C_37  and  C_38
REMARK   12  A    between atoms: C_38  and  C_39
REMARK   13  A    between atoms: C_39  and  O_40
REMARK   14  A    between atoms: C_42  and  C_43
REMARK                            x       y       z     vdW  Elec       q    Type
REMARK                         _______ _______ _______ _____ _____    ______ ____
ROOT
ATOM      1  C   UNL     1      12.683   6.724  -4.255  0.00  0.00    +0.000 C 
ATOM      2  C   UNL     1      11.159   6.244  -4.370  0.00  0.00    +0.000 C 
ATOM      3  C   UNL     1       9.575   6.062  -4.890  0.00  0.00    +0.000 A 
ATOM      4  C   UNL     1       8.007   6.311  -5.873  0.00  0.00    +0.000 A 
ATOM      5  N   UNL     1       7.189   5.681  -5.084  0.00  0.00    +0.000 N 
ATOM      6 ZN   UNL     1       5.195   6.308  -5.163  0.00  0.00    +0.000 Zn
ATOM      7  N   UNL     1       3.359   7.307  -4.674  0.00  0.00    +0.000 N 
ATOM      8  C   UNL     1       2.067   7.298  -4.978  0.00  0.00    +0.000 A 
ATOM      9  C   UNL     1       1.677   6.826  -6.150  0.00  0.00    +0.000 C 
ATOM     10  C   UNL     1       2.635   6.636  -7.034  0.00  0.00    +0.000 A 
ATOM     11  C   UNL     1       2.187   6.861  -8.284  0.00  0.00    +0.000 A 
ATOM     12  C   UNL     1       0.686   7.015  -8.701  0.00  0.00    +0.000 C 
ATOM     13  C   UNL     1      -0.856   6.952  -8.040  0.00  0.00    +0.000 C 
ATOM     14  C   UNL     1       3.498   7.041  -9.003  0.00  0.00    +0.000 A 
ATOM     15  C   UNL     1       2.881   7.448 -10.514  0.00  0.00    +0.000 C 
ATOM     16  C   UNL     1       4.834   6.789  -7.827  0.00  0.00    +0.000 A 
ATOM     17  C   UNL     1       1.244   7.759  -3.968  0.00  0.00    +0.000 A 
ATOM     18  C   UNL     1      -0.275   7.624  -3.884  0.00  0.00    +0.000 C 
ATOM     19  C   UNL     1       2.150   8.039  -2.992  0.00  0.00    +0.000 A 
ATOM     20  C   UNL     1       3.374   7.868  -3.549  0.00  0.00    +0.000 A 
ATOM     21  C   UNL     1       4.602   7.763  -3.126  0.00  0.00    +0.000 C 
ATOM     22  C   UNL     1       4.833   6.559  -2.685  0.00  0.00    +0.000 A 
ATOM     23  C   UNL     1       4.149   5.399  -2.317  0.00  0.00    +0.000 A 
ATOM     24  C   UNL     1       5.114   4.466  -2.036  0.00  0.00    +0.000 A 
ATOM     25  C   UNL     1       5.156   3.033  -1.588  0.00  0.00    +0.000 C 
ATOM     26  C   UNL     1       6.119   4.952  -2.723  0.00  0.00    +0.000 A 
ATOM     27  C   UNL     1       7.205   4.346  -2.969  0.00  0.00    +0.000 C 
ATOM     28  N   UNL     1       4.063   6.496  -6.773  0.00  0.00    +0.000 N 
ATOM     29  N   UNL     1       5.841   6.146  -3.253  0.00  0.00    +0.000 N 
ATOM     30  C   UNL     1       7.869   4.968  -4.047  0.00  0.00    +0.000 A 
ATOM     31  C   UNL     1       6.806   6.784  -7.123  0.00  0.00    +0.000 C 
ATOM     32  C   UNL     1       9.128   5.041  -3.876  0.00  0.00    +0.000 A 
ATOM     33  C   UNL     1       9.949   4.137  -2.564  0.00  0.00    +0.000 C 
ENDROOT
BRANCH  19  34
ATOM     34  C   UNL     1       2.003   8.191  -1.554  0.00  0.00    +0.000 C 
BRANCH  34  35
ATOM     35  C   UNL     1       2.926   9.304  -1.117  0.00  0.00    +0.000 C 
BRANCH  35  36
ATOM     36  C   UNL     1       3.049   9.414   0.343  0.00  0.00    +0.000 C 
ATOM     37  O   UNL     1       2.459   8.654   1.096  0.00  0.00    +0.000 OA
BRANCH  36  38
ATOM     38  O   UNL     1       3.908  10.327   0.823  0.00  0.00    +0.000 OA
ATOM     39  H   UNL     1       4.404  10.882   0.199  0.00  0.00    +0.000 HD
ENDBRANCH  36  38
ENDBRANCH  35  36
ENDBRANCH  34  35
ENDBRANCH  19  34
BRANCH  23  40
ATOM     40  C   UNL     1       2.856   5.031  -2.972  0.00  0.00    +0.000 C 
BRANCH  40  41
ATOM     41  C   UNL     1       2.437   3.631  -2.766  0.00  0.00    +0.000 C 
BRANCH  41  42
ATOM     42  C   UNL     1       1.062   3.440  -3.282  0.00  0.00    +0.000 C 
ATOM     43  O   UNL     1       0.830   2.551  -4.082  0.00  0.00    +0.000 OA
BRANCH  42  44
ATOM     44  O   UNL     1       0.066   4.244  -2.851  0.00  0.00    +0.000 OA
ATOM     45  H   UNL     1       0.222   4.966  -2.222  0.00  0.00    +0.000 HD
ENDBRANCH  42  44
ENDBRANCH  41  42
ENDBRANCH  40  41
ENDBRANCH  23  40
TORSDOF 8
