REMARK  Name = 
REMARK  8 active torsions:
REMARK  status: ('A' for Active; 'I' for Inactive)
REMARK    1  A    between atoms: C_1  and  C_2
REMARK    2  A    between atoms: C_2  and  C_3
REMARK    3  A    between atoms: C_2  and  C_4
REMARK    4  A    between atoms: C_4  and  C_5
REMARK    5  A    between atoms: C_5  and  C_6
REMARK    6  A    between atoms: C_5  and  N_7
REMARK    7  A    between atoms: C_5  and  C_8
REMARK    8  A    between atoms: C_8  and  O_9
REMARK                            x       y       z     vdW  Elec       q    Type
REMARK                         _______ _______ _______ _____ _____    ______ ____
ROOT
ATOM      1  C   UNL     1       4.455   0.966  -1.210  0.00  0.00    +0.112 C 
ATOM      2  C   UNL     1       5.454   1.626  -2.171  0.00  0.00    +0.039 C 
ENDROOT
BRANCH   1   3
ATOM      3  N   UNL     1       3.093   1.476  -1.559  0.00  0.00    -0.316 NA
ATOM      4  H   UNL     1       3.016   2.435  -1.207  0.00  0.00    +0.119 HD
ATOM      5  H   UNL     1       3.030   1.580  -2.577  0.00  0.00    +0.119 HD
ENDBRANCH   1   3
BRANCH   1   6
ATOM      6  C   UNL     1       4.482  -0.564  -1.445  0.00  0.00    +0.325 C 
ATOM      7  O   UNL     1       5.478  -1.267  -1.446  0.00  0.00    -0.249 OA
BRANCH   6   8
ATOM      8  O   UNL     1       3.226  -1.048  -1.640  0.00  0.00    -0.479 OA
ATOM      9  H   UNL     1       2.624  -0.266  -1.561  0.00  0.00    +0.295 HD
ENDBRANCH   6   8
ENDBRANCH   1   6
BRANCH   1  10
ATOM     10  C   UNL     1       4.839   1.277   0.258  0.00  0.00    +0.036 C 
BRANCH  10  12
ATOM     11  C   UNL     1       4.653   0.938   2.744  0.00  0.00    +0.007 C 
ATOM     12  C   UNL     1       4.009   0.617   1.388  0.00  0.00    -0.015 C 
ATOM     13  C   UNL     1       2.546   1.058   1.427  0.00  0.00    +0.007 C 
ENDBRANCH  10  12
ENDBRANCH   1  10
TORSDOF 5
