REMARK  Name = 
REMARK  28 active torsions:
REMARK  status: ('A' for Active; 'I' for Inactive)
REMARK    1  A    between atoms: C_1  and  C_2
REMARK    2  A    between atoms: C_5  and  O_7
REMARK    3  A    between atoms: O_7  and  C_8
REMARK    4  A    between atoms: C_10  and  O_12
REMARK    5  A    between atoms: C_13  and  O_15
REMARK    6  A    between atoms: C_16  and  N_18
REMARK    7  A    between atoms: N_18  and  C_19
REMARK    8  A    between atoms: C_21  and  C_23
REMARK    9  A    between atoms: C_25  and  O_27
REMARK   10  A    between atoms: O_27  and  C_28
REMARK   11  A    between atoms: C_30  and  C_32
REMARK   12  A    between atoms: C_32  and  O_33
REMARK   13  A    between atoms: C_35  and  O_37
REMARK   14  A    between atoms: O_37  and  C_38
REMARK   15  A    between atoms: C_40  and  C_42
REMARK   16  A    between atoms: C_42  and  O_43
REMARK   17  A    between atoms: C_45  and  O_47
REMARK   18  A    between atoms: C_48  and  O_50
REMARK   19  A    between atoms: C_51  and  O_53
REMARK   20  A    between atoms: C_54  and  O_56
REMARK   21  A    between atoms: C_57  and  O_59
REMARK   22  A    between atoms: C_60  and  O_62
REMARK   23  A    between atoms: C_63  and  O_65
REMARK   24  A    between atoms: C_67  and  C_68
REMARK   25  A    between atoms: C_68  and  O_69
REMARK   26  A    between atoms: C_70  and  O_72
REMARK   27  A    between atoms: C_73  and  O_75
REMARK   28  A    between atoms: C_76  and  O_78
REMARK                            x       y       z     vdW  Elec       q    Type
REMARK                         _______ _______ _______ _____ _____    ______ ____
ROOT
ATOM      1  C   UNL     1       3.508  -7.504  -0.318  0.00  0.00    +0.114 C 
ATOM      2  C   UNL     1       4.323  -8.590  -1.124  0.00  0.00    +0.167 C 
ATOM      3  C   UNL     1       5.819  -8.255  -1.354  0.00  0.00    +0.200 C 
ATOM      4  C   UNL     1       5.865  -6.741  -1.447  0.00  0.00    +0.282 C 
ATOM      5  O   UNL     1       5.669  -6.291  -0.101  0.00  0.00    -0.344 OA
ATOM      6  C   UNL     1       4.271  -6.231   0.162  0.00  0.00    +0.138 C 
ATOM      7  C   UNL     1       3.973  -5.874   1.623  0.00  0.00    +0.039 C 
ENDROOT
BRANCH   3   8
ATOM      8  O   UNL     1       6.296  -8.893  -2.539  0.00  0.00    -0.384 OA
ATOM      9  H   UNL     1       7.108  -8.412  -2.796  0.00  0.00    +0.210 HD
ENDBRANCH   3   8
BRANCH   2  10
ATOM     10  O   UNL     1       4.179  -9.871  -0.473  0.00  0.00    -0.387 OA
ATOM     11  H   UNL     1       4.999 -10.073   0.008  0.00  0.00    +0.210 HD
ENDBRANCH   2  10
BRANCH   1  12
ATOM     12  N   UNL     1       2.184  -7.203  -0.925  0.00  0.00    -0.300 NA
ATOM     13  H   UNL     1       1.558  -7.062  -0.129  0.00  0.00    +0.123 HD
BRANCH  12  17
ATOM     14  C   UNL     1      -0.034  -7.156  -3.705  0.00  0.00    +0.180 C 
ATOM     15  C   UNL     1      -0.398  -6.433  -2.412  0.00  0.00    -0.016 C 
ATOM     16  C   UNL     1       0.529  -5.780  -1.687  0.00  0.00    -0.002 C 
ATOM     17  C   UNL     1       1.990  -6.034  -1.833  0.00  0.00    +0.109 C 
ATOM     18  C   UNL     1       2.388  -6.195  -3.323  0.00  0.00    +0.166 C 
ATOM     19  C   UNL     1       1.286  -6.619  -4.312  0.00  0.00    +0.178 C 
BRANCH  19  20
ATOM     20  O   UNL     1       1.869  -7.573  -5.223  0.00  0.00    -0.386 OA
ATOM     21  H   UNL     1       1.694  -8.444  -4.807  0.00  0.00    +0.210 HD
ENDBRANCH  19  20
BRANCH  18  22
ATOM     22  O   UNL     1       2.888  -4.918  -3.795  0.00  0.00    -0.387 OA
ATOM     23  H   UNL     1       2.862  -4.924  -4.771  0.00  0.00    +0.210 HD
ENDBRANCH  18  22
BRANCH  15  24
ATOM     24  C   UNL     1      -1.796  -6.506  -1.913  0.00  0.00    +0.189 C 
BRANCH  24  25
ATOM     25  O   UNL     1      -1.769  -6.682  -0.486  0.00  0.00    -0.391 OA
ATOM     26  H   UNL     1      -1.128  -7.395  -0.309  0.00  0.00    +0.210 HD
ENDBRANCH  24  25
ENDBRANCH  15  24
BRANCH  14  27
ATOM     27  O   UNL     1       0.153  -8.553  -3.553  0.00  0.00    -0.338 OA
BRANCH  27  33
ATOM     28  C   UNL     1      -4.503  -8.988  -4.614  0.00  0.00    +0.041 C 
ATOM     29  C   UNL     1      -3.291  -9.676  -3.992  0.00  0.00    +0.149 C 
ATOM     30  C   UNL     1      -3.057 -11.062  -4.596  0.00  0.00    +0.174 C 
ATOM     31  C   UNL     1      -1.839 -11.711  -3.931  0.00  0.00    +0.179 C 
ATOM     32  C   UNL     1      -0.633 -10.784  -3.792  0.00  0.00    +0.201 C 
ATOM     33  C   UNL     1      -1.029  -9.346  -3.397  0.00  0.00    +0.282 C 
ATOM     34  O   UNL     1      -2.120  -8.875  -4.193  0.00  0.00    -0.343 OA
BRANCH  32  35
ATOM     35  O   UNL     1       0.216 -11.348  -2.775  0.00  0.00    -0.384 OA
ATOM     36  H   UNL     1       0.930 -11.841  -3.212  0.00  0.00    +0.210 HD
ENDBRANCH  32  35
BRANCH  31  37
ATOM     37  O   UNL     1      -1.473 -12.884  -4.684  0.00  0.00    -0.386 OA
ATOM     38  H   UNL     1      -0.600 -13.177  -4.369  0.00  0.00    +0.210 HD
ENDBRANCH  31  37
BRANCH  30  39
ATOM     39  O   UNL     1      -4.232 -11.862  -4.415  0.00  0.00    -0.387 OA
ATOM     40  H   UNL     1      -3.995 -12.642  -3.884  0.00  0.00    +0.210 HD
ENDBRANCH  30  39
ENDBRANCH  27  33
ENDBRANCH  14  27
ENDBRANCH  12  17
ENDBRANCH   1  12
BRANCH   4  41
ATOM     41  O   UNL     1       7.041  -6.190  -2.029  0.00  0.00    -0.340 OA
BRANCH  41  42
ATOM     42  C   UNL     1       6.922  -4.755  -2.072  0.00  0.00    +0.183 C 
ATOM     43  C   UNL     1       8.189  -4.083  -2.610  0.00  0.00    +0.179 C 
ATOM     44  C   UNL     1       8.053  -2.570  -2.369  0.00  0.00    +0.201 C 
ATOM     45  C   UNL     1       6.694  -1.989  -2.873  0.00  0.00    +0.282 C 
ATOM     46  O   UNL     1       5.591  -2.783  -2.454  0.00  0.00    -0.341 OA
ATOM     47  C   UNL     1       5.713  -4.155  -2.842  0.00  0.00    +0.178 C 
BRANCH  44  48
ATOM     48  O   UNL     1       9.183  -1.899  -2.962  0.00  0.00    -0.384 OA
ATOM     49  H   UNL     1       9.842  -1.814  -2.248  0.00  0.00    +0.210 HD
ENDBRANCH  44  48
BRANCH  43  50
ATOM     50  O   UNL     1       9.375  -4.542  -1.938  0.00  0.00    -0.386 OA
ATOM     51  H   UNL     1       9.125  -4.817  -1.041  0.00  0.00    +0.210 HD
ENDBRANCH  43  50
BRANCH  45  52
ATOM     52  O   UNL     1       6.447  -0.671  -2.367  0.00  0.00    -0.340 OA
BRANCH  52  53
ATOM     53  C   UNL     1       7.416   0.317  -2.722  0.00  0.00    +0.183 C 
ATOM     54  C   UNL     1       7.618   0.505  -4.246  0.00  0.00    +0.179 C 
ATOM     55  C   UNL     1       8.665   1.582  -4.475  0.00  0.00    +0.201 C 
ATOM     56  C   UNL     1       8.268   2.865  -3.732  0.00  0.00    +0.279 C 
ATOM     57  O   UNL     1       8.025   2.662  -2.351  0.00  0.00    -0.341 OA
ATOM     58  C   UNL     1       7.036   1.657  -2.058  0.00  0.00    +0.178 C 
BRANCH  56  59
ATOM     59  O   UNL     1       9.333   3.800  -3.846  0.00  0.00    -0.365 OA
ATOM     60  H   UNL     1      10.065   3.424  -3.328  0.00  0.00    +0.213 HD
ENDBRANCH  56  59
BRANCH  55  61
ATOM     61  O   UNL     1       8.804   1.845  -5.878  0.00  0.00    -0.384 OA
ATOM     62  H   UNL     1       9.372   2.634  -5.964  0.00  0.00    +0.210 HD
ENDBRANCH  55  61
BRANCH  54  63
ATOM     63  O   UNL     1       8.051  -0.682  -4.930  0.00  0.00    -0.386 OA
ATOM     64  H   UNL     1       8.843  -1.036  -4.473  0.00  0.00    +0.210 HD
ENDBRANCH  54  63
BRANCH  58  65
ATOM     65  C   UNL     1       5.611   2.139  -2.379  0.00  0.00    +0.190 C 
BRANCH  65  66
ATOM     66  O   UNL     1       5.367   3.405  -1.768  0.00  0.00    -0.392 OA
ATOM     67  H   UNL     1       6.113   3.986  -2.007  0.00  0.00    +0.210 HD
ENDBRANCH  65  66
ENDBRANCH  58  65
ENDBRANCH  52  53
ENDBRANCH  45  52
BRANCH  47  68
ATOM     68  C   UNL     1       5.712  -4.350  -4.378  0.00  0.00    +0.190 C 
BRANCH  68  69
ATOM     69  O   UNL     1       5.709  -5.721  -4.746  0.00  0.00    -0.392 OA
ATOM     70  H   UNL     1       4.784  -6.018  -4.795  0.00  0.00    +0.210 HD
ENDBRANCH  68  69
ENDBRANCH  47  68
ENDBRANCH  41  42
ENDBRANCH   4  41
TORSDOF 26
