REMARK  Name = 
REMARK  8 active torsions:
REMARK  status: ('A' for Active; 'I' for Inactive)
REMARK    1  A    between atoms: C_1  and  O_2
REMARK    2  A    between atoms: O_2  and  C_3
REMARK    3  A    between atoms: C_6  and  C_8
REMARK    4  A    between atoms: C_8  and  O_9
REMARK    5  A    between atoms: C_10  and  O_12
REMARK    6  A    between atoms: C_13  and  O_15
REMARK    7  A    between atoms: C_16  and  N_18
REMARK    8  A    between atoms: C_19  and  C_20
REMARK                            x       y       z     vdW  Elec       q    Type
REMARK                         _______ _______ _______ _____ _____    ______ ____
ROOT
ATOM      1  C   UNL     1       2.652   1.145  -0.662  0.00  0.00    +0.273 C 
ATOM      2  C   UNL     1       3.613   2.047   0.159  0.00  0.00    +0.160 C 
ATOM      3  C   UNL     1       2.769   2.940   1.095  0.00  0.00    +0.171 C 
ATOM      4  C   UNL     1       1.755   3.751   0.276  0.00  0.00    +0.176 C 
ATOM      5  C   UNL     1       0.930   2.873  -0.689  0.00  0.00    +0.178 C 
ATOM      6  O   UNL     1       1.720   1.924  -1.422  0.00  0.00    -0.341 OA
ENDROOT
BRANCH   2   7
ATOM      7  N   UNL     1       4.484   2.881  -0.669  0.00  0.00    -0.305 N 
ATOM      8  H   UNL     1       4.095   3.781  -0.954  0.00  0.00    +0.149 HD
ATOM      9  C   UNL     1       5.675   2.470  -1.188  0.00  0.00    +0.210 C 
ATOM     10  O   UNL     1       6.123   1.339  -1.036  0.00  0.00    -0.276 OA
ATOM     11  C   UNL     1       6.425   3.543  -1.939  0.00  0.00    +0.109 C 
ENDBRANCH   2   7
BRANCH   1  13
ATOM     12  C   UNL     1       1.255  -0.777  -0.412  0.00  0.00    +0.197 C 
ATOM     13  O   UNL     1       1.965   0.268   0.245  0.00  0.00    -0.353 OA
ENDBRANCH   1  13
BRANCH   3  14
ATOM     14  O   UNL     1       2.121   2.191   2.130  0.00  0.00    -0.387 OA
ATOM     15  H   UNL     1       1.995   1.272   1.809  0.00  0.00    +0.210 HD
ENDBRANCH   3  14
BRANCH   4  16
ATOM     16  O   UNL     1       2.489   4.724  -0.509  0.00  0.00    -0.387 OA
ATOM     17  H   UNL     1       1.821   5.308  -0.913  0.00  0.00    +0.210 HD
ENDBRANCH   4  16
BRANCH   5  18
ATOM     18  C   UNL     1      -0.304   2.235  -0.035  0.00  0.00    +0.190 C 
BRANCH  18  19
ATOM     19  O   UNL     1      -1.186   3.249   0.440  0.00  0.00    -0.392 OA
ATOM     20  H   UNL     1      -1.954   2.794   0.835  0.00  0.00    +0.210 HD
ENDBRANCH  18  19
ENDBRANCH   5  18
TORSDOF 6
