REMARK  Name = 
REMARK  8 active torsions:
REMARK  status: ('A' for Active; 'I' for Inactive)
REMARK    1  A    between atoms: N_1  and  CA_2
REMARK    2  A    between atoms: CA_2  and  C_4
REMARK    3  A    between atoms: CA_2  and  C_13
REMARK    4  A    between atoms: C_4  and  C_5
REMARK    5  A    between atoms: C_5  and  O_7
REMARK    6  A    between atoms: C_5  and  O_8
REMARK    7  A    between atoms: O_8  and  BE_9
REMARK    8  A    between atoms: C_13  and  O_14
REMARK                            x       y       z     vdW  Elec       q    Type
REMARK                         _______ _______ _______ _____ _____    ______ ____
ROOT
ATOM      1  C   UNL     1       3.048  -1.819  -2.127  0.00  0.00    +0.000 C 
ENDROOT
BRANCH   1   2
ATOM      2  CA  UNL     1       3.989  -1.435  -0.996  0.00  0.00    +0.000 C 
BRANCH   2   3
ATOM      3  N   UNL     1       3.218  -0.823   0.096  0.00  0.00    +0.000 NA
ATOM      4  H1  UNL     1       2.743   0.011  -0.249  0.00  0.00    +0.000 HD
ATOM      5  H2  UNL     1       2.528  -1.490   0.440  0.00  0.00    +0.000 HD
ENDBRANCH   2   3
BRANCH   2   6
ATOM      6  C   UNL     1       5.018  -0.441  -1.510  0.00  0.00    +0.000 C 
ATOM      7  OXT UNL     1       5.796  -0.765  -2.460  0.00  0.00    +0.000 OA
BRANCH   6   8
ATOM      8  O   UNL     1       5.109   0.851  -0.927  0.00  0.00    +0.000 OA
ATOM      9  H   UNL     1       4.535   1.091  -0.226  0.00  0.00    +0.000 HD
ENDBRANCH   6   8
ENDBRANCH   2   6
ENDBRANCH   1   2
BRANCH   1  10
ATOM     10  C   UNL     1       2.541  -0.408  -2.379  0.00  0.00    +0.000 C 
BRANCH  10  11
ATOM     11  O   UNL     1       1.592  -0.428  -3.436  0.00  0.00    +0.000 OA
ATOM     12  H   UNL     1       1.269   0.472  -3.597  0.00  0.00    +0.000 HD
ENDBRANCH  10  11
BRANCH  10  13
ATOM     13  O   UNL     1       3.631   0.429  -2.738  0.00  0.00    +0.000 OA
BRANCH  13  14
ATOM     14 BE   UNL     1       4.331  -0.142  -4.082  0.00  0.00    +0.000 Be
ATOM     15  F   UNL     1       4.992  -0.682  -5.352  0.00  0.00    +0.000 F 
ATOM     16  F   UNL     1        -nan    -nan    -nan  0.00  0.00    +0.000 F 
ATOM     17  F   UNL     1       4.599  -1.646  -4.164  0.00  0.00    +0.000 F 
ENDBRANCH  13  14
ENDBRANCH  10  13
ENDBRANCH   1  10
TORSDOF 8
