REMARK  Name = 
REMARK  9 active torsions:
REMARK  status: ('A' for Active; 'I' for Inactive)
REMARK    1  A    between atoms: N_1  and  C_2
REMARK    2  A    between atoms: C_2  and  C_3
REMARK    3  A    between atoms: C_3  and  C_4
REMARK    4  A    between atoms: C_4  and  C_5
REMARK    5  A    between atoms: C_5  and  C_6
REMARK    6  A    between atoms: C_6  and  C_7
REMARK    7  A    between atoms: C_7  and  N_8
REMARK    8  A    between atoms: N_8  and  S_9
REMARK    9  A    between atoms: S_9  and  C_12
REMARK                            x       y       z     vdW  Elec       q    Type
REMARK                         _______ _______ _______ _____ _____    ______ ____
ROOT
ATOM      1  S   UNL     1       9.015   3.403   5.004  0.00  0.00    +0.059 S 
ATOM      2  O   UNL     1       8.022   4.368   5.429  0.00  0.00    -0.153 OA
ATOM      3  O   UNL     1      10.347   3.826   4.633  0.00  0.00    -0.153 OA
ENDROOT
BRANCH   1   4
ATOM      4  C   UNL     1       9.152   2.126   6.245  0.00  0.00    +0.113 A 
ATOM      5  C   UNL     1      10.024   1.008   6.091  0.00  0.00    +0.010 A 
ATOM      6  C   UNL     1      10.894   0.808   4.987  0.00  0.00    +0.010 A 
ATOM      7  C   UNL     1      11.735  -0.300   4.885  0.00  0.00    +0.002 A 
ATOM      8  C   UNL     1      11.719  -1.267   5.876  0.00  0.00    +0.020 A 
ATOM      9  C   UNL     1      10.875  -1.115   6.976  0.00  0.00    +0.049 A 
ATOM     10 CL   UNL     1      10.914  -2.392   8.152  0.00  0.00    -0.083 Cl
ATOM     11  C   UNL     1      10.032   0.020   7.118  0.00  0.00    +0.002 A 
ATOM     12  C   UNL     1       9.202   0.209   8.250  0.00  0.00    +0.010 A 
ATOM     13  C   UNL     1       8.386   1.328   8.392  0.00  0.00    +0.003 A 
ATOM     14  C   UNL     1       8.356   2.284   7.390  0.00  0.00    +0.029 A 
ENDBRANCH   1   4
BRANCH   1  15
ATOM     15  N   UNL     1       8.374   2.578   3.672  0.00  0.00    -0.190 NA
ATOM     16  H   UNL     1       8.845   2.858   2.812  0.00  0.00    +0.148 HD
BRANCH  15  17
ATOM     17  C   UNL     1       6.915   2.424   3.632  0.00  0.00    +0.106 C 
BRANCH  17  18
ATOM     18  C   UNL     1       6.493   1.606   2.410  0.00  0.00    +0.017 C 
BRANCH  18  19
ATOM     19  C   UNL     1       4.966   1.506   2.362  0.00  0.00    +0.001 C 
BRANCH  19  20
ATOM     20  C   UNL     1       4.455   0.723   1.153  0.00  0.00    +0.001 C 
BRANCH  20  21
ATOM     21  C   UNL     1       2.923   0.665   1.164  0.00  0.00    +0.015 C 
BRANCH  21  22
ATOM     22  C   UNL     1       2.379  -0.112  -0.032  0.00  0.00    +0.077 C 
BRANCH  22  23
ATOM     23  N   UNL     1       0.922  -0.152   0.017  0.00  0.00    -0.330 NA
ATOM     24  H   UNL     1       0.548   0.796  -0.026  0.00  0.00    +0.118 HD
ATOM     25  H   UNL     1       0.567  -0.635  -0.808  0.00  0.00    +0.118 HD
ENDBRANCH  22  23
ENDBRANCH  21  22
ENDBRANCH  20  21
ENDBRANCH  19  20
ENDBRANCH  18  19
ENDBRANCH  17  18
ENDBRANCH  15  17
ENDBRANCH   1  15
TORSDOF 9
