REMARK  Name = 
REMARK  14 active torsions:
REMARK  status: ('A' for Active; 'I' for Inactive)
REMARK    1  A    between atoms: O_1  and  C_2
REMARK    2  A    between atoms: C_4  and  O_6
REMARK    3  A    between atoms: C_7  and  O_9
REMARK    4  A    between atoms: O_9  and  P_10
REMARK    5  A    between atoms: P_10  and  O_11
REMARK    6  A    between atoms: P_10  and  C_13
REMARK    7  A    between atoms: C_13  and  P_14
REMARK    8  A    between atoms: P_14  and  O_15
REMARK    9  A    between atoms: P_14  and  O_16
REMARK   10  A    between atoms: C_19  and  C_21
REMARK   11  A    between atoms: C_21  and  O_22
REMARK   12  A    between atoms: O_22  and  P_23
REMARK   13  A    between atoms: P_23  and  O_24
REMARK   14  A    between atoms: P_23  and  O_25
REMARK                            x       y       z     vdW  Elec       q    Type
REMARK                         _______ _______ _______ _____ _____    ______ ____
ROOT
ATOM      1  C   UNL     1       7.733  -0.951  -3.132  0.00  0.00    +0.179 C 
ATOM      2  C   UNL     1       8.406   0.233  -3.821  0.00  0.00    +0.179 C 
ATOM      3  O   UNL     1       8.480   1.277  -2.821  0.00  0.00    -0.340 OA
ATOM      4  C   UNL     1       8.436   0.677  -1.508  0.00  0.00    +0.291 C 
ATOM      5  C   UNL     1       8.261  -0.845  -1.708  0.00  0.00    +0.202 C 
ENDROOT
BRANCH   1   6
ATOM      6  O   UNL     1       6.309  -0.802  -3.160  0.00  0.00    -0.386 OA
ATOM      7  H   UNL     1       6.089   0.100  -2.866  0.00  0.00    +0.210 HD
ENDBRANCH   1   6
BRANCH   5   8
ATOM      8  O   UNL     1       9.522  -1.513  -1.612  0.00  0.00    -0.384 OA
ATOM      9  H   UNL     1       9.354  -2.468  -1.705  0.00  0.00    +0.210 HD
ENDBRANCH   5   8
BRANCH   2  10
ATOM     10  C   UNL     1       9.799  -0.102  -4.378  0.00  0.00    +0.206 C 
BRANCH  10  11
ATOM     11  O   UNL     1       9.680  -1.194  -5.275  0.00  0.00    -0.284 OA
BRANCH  11  12
ATOM     12  P   UNL     1      10.921  -1.542  -6.220  0.00  0.00    +0.472 P 
ATOM     13  O   UNL     1      12.185  -1.912  -5.531  0.00  0.00    -0.228 OA
BRANCH  12  14
ATOM     14  O   UNL     1      11.042  -0.276  -7.181  0.00  0.00    -0.303 OA
ATOM     15  H   UNL     1      11.954  -0.202  -7.522  0.00  0.00    +0.222 HD
ENDBRANCH  12  14
BRANCH  12  16
ATOM     16  O   UNL     1      10.300  -2.657  -7.174  0.00  0.00    -0.303 OA
ATOM     17  H   UNL     1       9.337  -2.540  -7.261  0.00  0.00    +0.222 HD
ENDBRANCH  12  16
ENDBRANCH  11  12
ENDBRANCH  10  11
ENDBRANCH   2  10
BRANCH   4  18
ATOM     18  O   UNL     1       7.340   1.162  -0.735  0.00  0.00    -0.275 OA
BRANCH  18  19
ATOM     19  P   UNL     1       7.330   2.748  -0.267  0.00  0.00    +0.344 P 
ATOM     20  O   UNL     1       6.163   2.905   0.714  0.00  0.00    -0.258 OA
BRANCH  19  21
ATOM     21  O   UNL     1       8.346   2.359   1.078  0.00  0.00    -0.323 OA
ATOM     22  H   UNL     1       7.716   2.052   1.766  0.00  0.00    +0.220 HD
ENDBRANCH  19  21
BRANCH  19  23
ATOM     23  C   UNL     1       6.255   3.159  -1.690  0.00  0.00    +0.253 C 
BRANCH  23  24
ATOM     24  P   UNL     1       6.316   4.740  -2.451  0.00  0.00    +0.339 P 
ATOM     25  O   UNL     1       6.342   5.969  -1.604  0.00  0.00    -0.258 OA
BRANCH  24  26
ATOM     26  O   UNL     1       5.039   4.719  -3.418  0.00  0.00    -0.324 OA
ATOM     27  H   UNL     1       4.579   5.581  -3.448  0.00  0.00    +0.220 HD
ENDBRANCH  24  26
BRANCH  24  28
ATOM     28  O   UNL     1       7.515   4.698  -3.511  0.00  0.00    -0.324 OA
ATOM     29  H   UNL     1       7.659   5.549  -3.960  0.00  0.00    +0.220 HD
ENDBRANCH  24  28
ENDBRANCH  23  24
ENDBRANCH  19  23
ENDBRANCH  18  19
ENDBRANCH   4  18
TORSDOF 14
