REMARK  Name = 
REMARK  14 active torsions:
REMARK  status: ('A' for Active; 'I' for Inactive)
REMARK    1  A    between atoms: C_1  and  C_2
REMARK    2  A    between atoms: C_2  and  C_3
REMARK    3  A    between atoms: C_3  and  C_4
REMARK    4  A    between atoms: C_4  and  C_5
REMARK    5  A    between atoms: C_5  and  C_6
REMARK    6  A    between atoms: C_6  and  C_7
REMARK    7  A    between atoms: C_6  and  S_12
REMARK    8  A    between atoms: C_7  and  C_8
REMARK    9  A    between atoms: C_8  and  C_9
REMARK   10  A    between atoms: C_9  and  C_10
REMARK   11  A    between atoms: C_10  and  C_11
REMARK   12  A    between atoms: S_12  and  C_13
REMARK   13  A    between atoms: C_14  and  C_18
REMARK   14  A    between atoms: C_18  and  O_19
REMARK                            x       y       z     vdW  Elec       q    Type
REMARK                         _______ _______ _______ _____ _____    ______ ____
ROOT
ATOM      1  C   UNL     1       6.375   0.909  -2.898  0.00  0.00    +0.053 C 
ENDROOT
BRANCH   1   2
ATOM      2  C   UNL     1       4.835   0.935  -2.879  0.00  0.00    +0.014 C 
BRANCH   2   3
ATOM      3  C   UNL     1       4.129   0.373  -1.645  0.00  0.00    +0.001 C 
BRANCH   3   4
ATOM      4  C   UNL     1       4.446   1.073  -0.327  0.00  0.00    -0.000 C 
BRANCH   4   6
ATOM      5  C   UNL     1       3.914   1.044   2.152  0.00  0.00    +0.004 C 
ATOM      6  C   UNL     1       3.650   0.407   0.800  0.00  0.00    -0.003 C 
ENDBRANCH   4   6
ENDBRANCH   3   4
ENDBRANCH   2   3
ENDBRANCH   1   2
BRANCH   1   7
ATOM      7  S   UNL     1       6.997   1.780  -4.417  0.00  0.00    -0.101 S 
BRANCH   7   8
ATOM      8  C   UNL     1       6.383   0.864  -5.748  0.00  0.00    +0.126 A 
ATOM      9  N   UNL     1       5.056   0.913  -6.060  0.00  0.00    -0.251 N 
ATOM     10  H   UNL     1       4.314   1.425  -5.600  0.00  0.00    +0.191 HD
ATOM     11  N   UNL     1       4.759   0.137  -7.112  0.00  0.00    -0.067 NA
ATOM     12  N   UNL     1       5.900  -0.347  -7.574  0.00  0.00    -0.122 NA
ATOM     13  C   UNL     1       6.927   0.114  -6.770  0.00  0.00    +0.202 A 
BRANCH  13  14
ATOM     14  C   UNL     1       8.305  -0.200  -7.093  0.00  0.00    +0.360 C 
ATOM     15  O   UNL     1       9.280   0.158  -6.451  0.00  0.00    -0.243 OA
BRANCH  14  16
ATOM     16  O   UNL     1       8.422  -0.951  -8.225  0.00  0.00    -0.476 OA
ATOM     17  H   UNL     1       7.533  -1.127  -8.603  0.00  0.00    +0.295 HD
ENDBRANCH  14  16
ENDBRANCH  13  14
ENDBRANCH   7   8
ENDBRANCH   1   7
BRANCH   1  18
ATOM     18  C   UNL     1       6.994  -0.494  -2.712  0.00  0.00    +0.014 C 
BRANCH  18  19
ATOM     19  C   UNL     1       8.521  -0.447  -2.550  0.00  0.00    +0.001 C 
BRANCH  19  20
ATOM     20  C   UNL     1       9.159  -1.825  -2.351  0.00  0.00    -0.000 C 
BRANCH  20  21
ATOM     21  C   UNL     1      10.682  -1.682  -2.281  0.00  0.00    -0.003 C 
ATOM     22  C   UNL     1      11.390  -3.012  -2.090  0.00  0.00    +0.004 C 
ENDBRANCH  20  21
ENDBRANCH  19  20
ENDBRANCH  18  19
ENDBRANCH   1  18
TORSDOF 12
