REMARK  Name = 
REMARK  16 active torsions:
REMARK  status: ('A' for Active; 'I' for Inactive)
REMARK    1  A    between atoms: C_2  and  O_3
REMARK    2  A    between atoms: C_2  and  C_4
REMARK    3  A    between atoms: C_2  and  C_8
REMARK    4  A    between atoms: C_4  and  C_5
REMARK    5  A    between atoms: C_5  and  O_6
REMARK    6  A    between atoms: N_10  and  C_11
REMARK    7  A    between atoms: C_11  and  C_13
REMARK    8  A    between atoms: C_11  and  C_17
REMARK    9  A    between atoms: C_13  and  C_14
REMARK   10  A    between atoms: C_14  and  C_15
REMARK   11  A    between atoms: C_14  and  C_16
REMARK   12  A    between atoms: N_19  and  C_20
REMARK   13  A    between atoms: C_20  and  C_21
REMARK   14  A    between atoms: C_21  and  C_22
REMARK   15  A    between atoms: C_22  and  C_23
REMARK   16  A    between atoms: C_22  and  C_24
REMARK                            x       y       z     vdW  Elec       q    Type
REMARK                         _______ _______ _______ _____ _____    ______ ____
ROOT
ATOM      1  C   UNL     1       4.545   2.444   2.031  0.00  0.00    +0.159 C 
ENDROOT
BRANCH   1   3
ATOM      2  C   UNL     1       2.848   1.561   0.421  0.00  0.00    +0.243 C 
ATOM      3  N   UNL     1       4.069   1.470   1.049  0.00  0.00    -0.302 N 
ATOM      4  H   UNL     1       4.679   0.669   0.902  0.00  0.00    +0.150 HD
ATOM      5  O   UNL     1       2.078   2.499   0.589  0.00  0.00    -0.273 OA
BRANCH   2   6
ATOM      6  C   UNL     1       2.556   0.397  -0.543  0.00  0.00    +0.210 C 
BRANCH   6   7
ATOM      7  O   UNL     1       3.551   0.276  -1.571  0.00  0.00    -0.382 OA
ATOM      8  H   UNL     1       4.267   0.910  -1.367  0.00  0.00    +0.210 HD
ENDBRANCH   6   7
BRANCH   6   9
ATOM      9  C   UNL     1       2.517  -0.922   0.215  0.00  0.00    +0.161 C 
BRANCH   9  10
ATOM     10  C   UNL     1       2.064  -2.082  -0.632  0.00  0.00    +0.308 C 
ATOM     11  O   UNL     1       1.447  -3.032  -0.170  0.00  0.00    -0.251 OA
BRANCH  10  12
ATOM     12  O   UNL     1       2.482  -2.055  -1.915  0.00  0.00    -0.481 OA
ATOM     13  H   UNL     1       3.014  -1.251  -2.134  0.00  0.00    +0.295 HD
ENDBRANCH  10  12
ENDBRANCH   9  10
ENDBRANCH   6   9
ENDBRANCH   2   6
ENDBRANCH   1   3
BRANCH   1  14
ATOM     14  C   UNL     1       6.083   2.345   1.967  0.00  0.00    +0.233 C 
ATOM     15  N   UNL     1       6.762   3.465   2.389  0.00  0.00    -0.314 N 
ATOM     16  H   UNL     1       6.250   4.320   2.563  0.00  0.00    +0.149 HD
ATOM     17  O   UNL     1       6.643   1.317   1.584  0.00  0.00    -0.274 OA
BRANCH  15  18
ATOM     18  C   UNL     1       8.209   3.518   2.425  0.00  0.00    +0.104 C 
BRANCH  18  19
ATOM     19  C   UNL     1       8.815   3.982   1.100  0.00  0.00    +0.022 C 
BRANCH  19  20
ATOM     20  C   UNL     1       8.398   5.397   0.653  0.00  0.00    -0.016 C 
ATOM     21  C   UNL     1       9.029   5.716  -0.705  0.00  0.00    +0.007 C 
ATOM     22  C   UNL     1       8.791   6.472   1.668  0.00  0.00    +0.007 C 
ENDBRANCH  19  20
ENDBRANCH  18  19
ENDBRANCH  15  18
ENDBRANCH   1  14
BRANCH   1  23
ATOM     23  C   UNL     1       3.999   2.102   3.432  0.00  0.00    +0.034 C 
BRANCH  23  24
ATOM     24  C   UNL     1       4.437   3.032   4.583  0.00  0.00    -0.015 C 
ATOM     25  C   UNL     1       3.910   2.504   5.922  0.00  0.00    +0.007 C 
ATOM     26  C   UNL     1       3.984   4.482   4.398  0.00  0.00    +0.007 C 
ENDBRANCH  23  24
ENDBRANCH   1  23
TORSDOF 12
