REMARK  Name = 
REMARK  6 active torsions:
REMARK  status: ('A' for Active; 'I' for Inactive)
REMARK    1  A    between atoms: N_1  and  CA_2
REMARK    2  A    between atoms: CA_2  and  C_4
REMARK    3  A    between atoms: CA_2  and  C_8
REMARK    4  A    between atoms: C_4  and  C_5
REMARK    5  A    between atoms: C_5  and  C_6
REMARK    6  A    between atoms: C_8  and  O_9
REMARK                            x       y       z     vdW  Elec       q    Type
REMARK                         _______ _______ _______ _____ _____    ______ ____
ROOT
ATOM      1  CA  UNL     1       2.414   0.184   0.124  0.00  0.00    +0.161 C 
ENDROOT
BRANCH   1   2
ATOM      2  N   UNL     1       0.918   0.279   0.156  0.00  0.00    -0.318 NA
ATOM      3  H1  UNL     1       0.631   1.086  -0.410  0.00  0.00    +0.119 HD
ATOM      4  H2  UNL     1       0.548  -0.521  -0.368  0.00  0.00    +0.119 HD
ENDBRANCH   1   2
BRANCH   1   5
ATOM      5  C   UNL     1       2.966   0.991   1.321  0.00  0.00    +0.322 C 
ATOM      6  OXT UNL     1       4.146   1.169   1.571  0.00  0.00    -0.249 OA
BRANCH   5   7
ATOM      7  O   UNL     1       1.961   1.468   2.100  0.00  0.00    -0.480 OA
ATOM      8  H   UNL     1       1.127   1.124   1.691  0.00  0.00    +0.295 HD
ENDBRANCH   5   7
ENDBRANCH   1   5
BRANCH   1   9
ATOM      9  C   UNL     1       2.924   0.696  -1.225  0.00  0.00    +0.037 C 
BRANCH   9  10
ATOM     10  C   UNL     1       4.435   0.559  -1.411  0.00  0.00    +0.073 C 
BRANCH  10  11
ATOM     11  C   UNL     1       4.882   1.025  -2.775  0.00  0.00    +0.223 C 
ATOM     12  O   UNL     1       4.121   1.398  -3.662  0.00  0.00    -0.301 OA
ENDBRANCH  10  11
ENDBRANCH   9  10
ENDBRANCH   1   9
TORSDOF 6
