REMARK  Name = 
REMARK  4 active torsions:
REMARK  status: ('A' for Active; 'I' for Inactive)
REMARK    1  A    between atoms: N_1  and  CA_2
REMARK    2  A    between atoms: CA_2  and  C_4
REMARK    3  A    between atoms: CA_2  and  C_13
REMARK    4  A    between atoms: C_13  and  O_14
REMARK                            x       y       z     vdW  Elec       q    Type
REMARK                         _______ _______ _______ _____ _____    ______ ____
ROOT
ATOM      1  C   UNL     1       3.057   0.009  -1.350  0.00  0.00    +0.025 C 
ATOM      2  C   UNL     1       3.519  -1.432  -1.692  0.00  0.00    +0.041 C 
ATOM      3  C   UNL     1       4.971  -1.268  -1.996  0.00  0.00    -0.044 A 
ATOM      4  C   UNL     1       5.348   0.071  -2.028  0.00  0.00    -0.044 A 
ATOM      5  C   UNL     1       6.643   0.441  -2.358  0.00  0.00    +0.004 A 
ATOM      6  C   UNL     1       7.569  -0.564  -2.649  0.00  0.00    +0.000 A 
ATOM      7  C   UNL     1       7.192  -1.913  -2.606  0.00  0.00    +0.000 A 
ATOM      8  C   UNL     1       5.884  -2.271  -2.280  0.00  0.00    +0.004 A 
ATOM      9  C   UNL     1       4.199   0.980  -1.737  0.00  0.00    +0.041 C 
ENDROOT
BRANCH   1  10
ATOM     10  CA  UNL     1       2.593   0.178   0.111  0.00  0.00    +0.164 C 
BRANCH  10  11
ATOM     11  N   UNL     1       3.637  -0.121   1.139  0.00  0.00    -0.318 NA
ATOM     12  H1  UNL     1       4.260  -0.851   0.775  0.00  0.00    +0.119 HD
ATOM     13  H2  UNL     1       4.253   0.693   1.205  0.00  0.00    +0.119 HD
ENDBRANCH  10  11
BRANCH  10  14
ATOM     14  C   UNL     1       1.363  -0.711   0.385  0.00  0.00    +0.322 C 
ATOM     15  OXT UNL     1       0.383  -0.806  -0.337  0.00  0.00    -0.249 OA
BRANCH  14  16
ATOM     16  O   UNL     1       1.499  -1.391   1.553  0.00  0.00    -0.480 OA
ATOM     17  H   UNL     1       2.374  -1.106   1.921  0.00  0.00    +0.295 HD
ENDBRANCH  14  16
ENDBRANCH  10  14
ENDBRANCH   1  10
TORSDOF 4
