REMARK  Name = 
REMARK  6 active torsions:
REMARK  status: ('A' for Active; 'I' for Inactive)
REMARK    1  A    between atoms: C_2  and  N_3
REMARK    2  A    between atoms: C_6  and  N_10
REMARK    3  A    between atoms: C_13  and  N_14
REMARK    4  A    between atoms: N_14  and  C_15
REMARK    5  A    between atoms: C_15  and  C_16
REMARK    6  A    between atoms: N_25  and  C_26
REMARK                            x       y       z     vdW  Elec       q    Type
REMARK                         _______ _______ _______ _____ _____    ______ ____
ROOT
ATOM      1  N   UNL     1       4.158  -0.612  -2.716  0.00  0.00    -0.311 N 
ATOM      2  H   UNL     1       3.941  -1.491  -3.171  0.00  0.00    +0.149 HD
ATOM      3  C   UNL     1       4.818   0.194  -3.631  0.00  0.00    +0.219 A 
ATOM      4  N   UNL     1       4.592   1.516  -3.595  0.00  0.00    -0.195 NA
ATOM      5  C   UNL     1       5.216   2.177  -4.573  0.00  0.00    +0.167 A 
ATOM      6  C   UNL     1       6.072   1.651  -5.516  0.00  0.00    +0.148 A 
ATOM      7  N   UNL     1       6.525   2.636  -6.370  0.00  0.00    -0.231 NA
ATOM      8  C   UNL     1       5.938   3.737  -5.950  0.00  0.00    +0.202 A 
ATOM      9  C   UNL     1       6.323   0.270  -5.442  0.00  0.00    +0.152 A 
ATOM     10  N   UNL     1       5.152   3.514  -4.851  0.00  0.00    -0.312 N 
ATOM     11  N   UNL     1       5.626  -0.446  -4.510  0.00  0.00    -0.197 NA
ENDROOT
BRANCH   1  15
ATOM     12  C   UNL     1       3.403  -1.652   0.668  0.00  0.00    +0.051 C 
ATOM     13  C   UNL     1       4.423  -0.569   0.295  0.00  0.00    +0.020 C 
ATOM     14  C   UNL     1       3.828   0.545  -0.574  0.00  0.00    +0.024 C 
ATOM     15  C   UNL     1       3.152  -0.012  -1.841  0.00  0.00    +0.073 C 
ATOM     16  C   UNL     1       2.093  -1.053  -1.452  0.00  0.00    +0.024 C 
ATOM     17  C   UNL     1       2.656  -2.169  -0.569  0.00  0.00    +0.020 C 
BRANCH  12  18
ATOM     18  N   UNL     1       2.450  -1.157   1.666  0.00  0.00    -0.327 NA
ATOM     19  H   UNL     1       2.963  -0.812   2.478  0.00  0.00    +0.118 HD
ATOM     20  H   UNL     1       1.927  -0.362   1.306  0.00  0.00    +0.118 HD
ENDBRANCH  12  18
ENDBRANCH   1  15
BRANCH  10  21
ATOM     21  C   UNL     1       4.404   4.517  -4.129  0.00  0.00    +0.090 C 
ATOM     22  C   UNL     1       4.830   4.695  -2.664  0.00  0.00    +0.025 C 
ATOM     23  C   UNL     1       3.559   5.050  -1.892  0.00  0.00    +0.002 C 
ATOM     24  C   UNL     1       2.448   5.173  -2.927  0.00  0.00    +0.002 C 
ATOM     25  C   UNL     1       2.894   4.275  -4.069  0.00  0.00    +0.025 C 
ENDBRANCH  10  21
BRANCH   9  26
ATOM     26  N   UNL     1       7.275  -0.306  -6.278  0.00  0.00    -0.323 N 
ATOM     27  H   UNL     1       7.509   0.318  -7.048  0.00  0.00    +0.148 HD
BRANCH  26  28
ATOM     28  C   UNL     1       7.155  -1.703  -6.626  0.00  0.00    +0.138 C 
BRANCH  28  29
ATOM     29  C   UNL     1       8.249  -2.053  -7.621  0.00  0.00    -0.030 A 
ATOM     30  C   UNL     1       7.931  -2.480  -8.919  0.00  0.00    +0.005 A 
ATOM     31  C   UNL     1       8.943  -2.773  -9.839  0.00  0.00    +0.000 A 
ATOM     32  C   UNL     1      10.281  -2.642  -9.476  0.00  0.00    +0.000 A 
ATOM     33  C   UNL     1      10.612  -2.223  -8.188  0.00  0.00    +0.000 A 
ATOM     34  C   UNL     1       9.602  -1.933  -7.266  0.00  0.00    +0.005 A 
ENDBRANCH  28  29
ENDBRANCH  26  28
ENDBRANCH   9  26
TORSDOF 6
