REMARK  Name = 
REMARK  6 active torsions:
REMARK  status: ('A' for Active; 'I' for Inactive)
REMARK    1  A    between atoms: CG1_1  and  CB_2
REMARK    2  A    between atoms: CB_2  and  CG2_3
REMARK    3  A    between atoms: CB_2  and  CA_4
REMARK    4  A    between atoms: CA_4  and  N_6
REMARK    5  A    between atoms: CA_4  and  C_7
REMARK    6  A    between atoms: C_7  and  O_8
REMARK                            x       y       z     vdW  Elec       q    Type
REMARK                         _______ _______ _______ _____ _____    ______ ____
ROOT
ATOM      1  CA  VAL A   1       2.936   0.899   1.193  0.00  0.00    +0.079 C 
ENDROOT
BRANCH   1   3
ATOM      2  CG1 VAL A   1       0.845   2.361   0.968  0.00  0.00    +0.009 C 
ATOM      3  CB  VAL A   1       2.381   2.336   0.990  0.00  0.00    +0.002 C 
ATOM      4  CG2 VAL A   1       2.887   2.974  -0.311  0.00  0.00    +0.009 C 
ENDBRANCH   1   3
BRANCH   1   5
ATOM      5  N   VAL A   1       2.475   0.331   2.480  0.00  0.00    -0.325 NA
ATOM      6  H1  VAL A   1       1.455   0.321   2.499  0.00  0.00    +0.119 HD
ATOM      7  H2  VAL A   1       2.739  -0.652   2.521  0.00  0.00    +0.119 HD
ENDBRANCH   1   5
BRANCH   1   8
ATOM      8  C   VAL A   1       4.479   0.833   1.149  0.00  0.00    +0.174 C 
BRANCH   8   9
ATOM      9  O   VAL A   1       4.918  -0.527   1.191  0.00  0.00    -0.393 OA
ATOM     10  H   VAL A   1       4.715  -0.844   2.085  0.00  0.00    +0.209 HD
ENDBRANCH   8   9
ENDBRANCH   1   8
TORSDOF 4
