REMARK  Name = 
REMARK  4 active torsions:
REMARK  status: ('A' for Active; 'I' for Inactive)
REMARK    1  A    between atoms: C_1  and  C_2
REMARK    2  A    between atoms: C_2  and  O_4
REMARK    3  A    between atoms: C_2  and  C_5
REMARK    4  A    between atoms: C_5  and  O_6
REMARK                            x       y       z     vdW  Elec       q    Type
REMARK                         _______ _______ _______ _____ _____    ______ ____
ROOT
ATOM      1  C   UNL     1       2.918   1.468   0.096  0.00  0.00    +0.040 C 
ATOM      2  C   UNL     1       2.474   0.013   0.075  0.00  0.00    +0.137 C 
ENDROOT
BRANCH   2   3
ATOM      3  O   UNL     1       2.932  -0.597   1.283  0.00  0.00    -0.390 OA
ATOM      4  H   UNL     1       3.071  -1.544   1.108  0.00  0.00    +0.210 HD
ENDBRANCH   2   3
BRANCH   2   5
ATOM      5  C   UNL     1       2.990  -0.750  -1.154  0.00  0.00    +0.186 C 
BRANCH   5   6
ATOM      6  O   UNL     1       4.408  -0.882  -1.160  0.00  0.00    -0.392 OA
ATOM      7  H   UNL     1       4.795   0.004  -1.060  0.00  0.00    +0.210 HD
ENDBRANCH   5   6
ENDBRANCH   2   5
TORSDOF 3
