REMARK  Name = 
REMARK  60 active torsions:
REMARK  status: ('A' for Active; 'I' for Inactive)
REMARK    1  A    between atoms: N_1  and  C_2
REMARK    2  A    between atoms: C_2  and  C_3
REMARK    3  A    between atoms: C_3  and  C_4
REMARK    4  A    between atoms: C_4  and  C_5
REMARK    5  A    between atoms: C_10  and  C_12
REMARK    6  A    between atoms: C_12  and  C_13
REMARK    7  A    between atoms: C_22  and  C_24
REMARK    8  A    between atoms: C_24  and  O_26
REMARK    9  A    between atoms: C_24  and  C_27
REMARK   10  A    between atoms: C_31  and  C_205
REMARK   11  A    between atoms: C_36  and  C_198
REMARK   12  A    between atoms: C_41  and  C_43
REMARK   13  A    between atoms: C_43  and  C_45
REMARK   14  A    between atoms: C_43  and  O_46
REMARK   15  A    between atoms: C_50  and  C_52
REMARK   16  A    between atoms: C_52  and  C_53
REMARK   17  A    between atoms: C_53  and  C_54
REMARK   18  A    between atoms: C_54  and  N_55
REMARK   19  A    between atoms: C_59  and  C_191
REMARK   20  A    between atoms: C_64  and  N_66
REMARK   21  A    between atoms: C_67  and  C_69
REMARK   22  A    between atoms: C_69  and  C_71
REMARK   23  A    between atoms: C_69  and  N_75
REMARK   24  A    between atoms: C_71  and  C_72
REMARK   25  A    between atoms: C_76  and  C_78
REMARK   26  A    between atoms: C_79  and  C_80
REMARK   27  A    between atoms: C_81  and  C_82
REMARK   28  A    between atoms: C_82  and  C_83
REMARK   29  A    between atoms: C_83  and  C_84
REMARK   30  A    between atoms: C_83  and  C_85
REMARK   31  A    between atoms: C_86  and  C_188
REMARK   32  A    between atoms: C_91  and  C_180
REMARK   33  A    between atoms: C_96  and  C_98
REMARK   34  A    between atoms: C_102  and  C_104
REMARK   35  A    between atoms: C_104  and  C_105
REMARK   36  A    between atoms: C_105  and  C_106
REMARK   37  A    between atoms: C_105  and  C_107
REMARK   38  A    between atoms: C_115  and  C_173
REMARK   39  A    between atoms: C_120  and  C_122
REMARK   40  A    between atoms: C_122  and  C_124
REMARK   41  A    between atoms: C_122  and  O_125
REMARK   42  A    between atoms: C_129  and  C_134
REMARK   43  A    between atoms: C_137  and  O_140
REMARK   44  A    between atoms: O_140  and  C_141
REMARK   45  A    between atoms: C_144  and  C_146
REMARK   46  A    between atoms: C_146  and  O_147
REMARK   47  A    between atoms: C_148  and  O_150
REMARK   48  A    between atoms: C_151  and  O_153
REMARK   49  A    between atoms: C_154  and  O_156
REMARK   50  A    between atoms: O_156  and  C_157
REMARK   51  A    between atoms: C_160  and  C_162
REMARK   52  A    between atoms: C_162  and  O_163
REMARK   53  A    between atoms: C_164  and  O_166
REMARK   54  A    between atoms: C_167  and  O_169
REMARK   55  A    between atoms: C_170  and  O_172
REMARK   56  A    between atoms: C_176  and  O_177
REMARK   57  A    between atoms: C_184  and  O_185
REMARK   58  A    between atoms: C_194  and  O_195
REMARK   59  A    between atoms: C_201  and  O_202
REMARK   60  A    between atoms: C_208  and  O_209
REMARK                            x       y       z     vdW  Elec       q    Type
REMARK                         _______ _______ _______ _____ _____    ______ ____
ROOT
ATOM      1  C   UNL     1     -54.183  76.016 150.968  0.00  0.00    +0.159 C 
ATOM      2  C   UNL     1     -54.905  78.642 151.262  0.00  0.00    +0.234 C 
ATOM      3  O   UNL     1     -54.796  78.131 152.488  0.00  0.00    -0.274 OA
ATOM      4  N   UNL     1     -55.491  81.117 151.393  0.00  0.00    -0.299 N 
ATOM      5  H   UNL     1     -55.333  81.173 152.376  0.00  0.00    +0.150 HD
ATOM      6  C   UNL     1     -56.151  83.699 151.605  0.00  0.00    +0.190 C 
ATOM      7  C   UNL     1     -57.351  85.488 152.581  0.00  0.00    +0.239 C 
ATOM      8  O   UNL     1     -57.288  86.898 152.700  0.00  0.00    -0.273 OA
ATOM      9  N   UNL     1     -57.890  86.965 153.912  0.00  0.00    -0.300 N 
ATOM     10  H   UNL     1     -57.145  87.749 154.303  0.00  0.00    +0.150 HD
ATOM     11  C   UNL     1     -58.932  88.617 154.739  0.00  0.00    +0.187 C 
ATOM     12  C   UNL     1     -58.984  87.969 156.066  0.00  0.00    +0.237 C 
ATOM     13  O   UNL     1     -57.906  87.567 156.485  0.00  0.00    -0.274 OA
ATOM     14  N   UNL     1     -60.212  87.672 156.633  0.00  0.00    -0.299 N 
ATOM     15  H   UNL     1     -60.845  88.249 156.064  0.00  0.00    +0.150 HD
ATOM     16  C   UNL     1     -60.269  86.273 157.128  0.00  0.00    +0.190 C 
ATOM     17  C   UNL     1     -60.076  85.275 155.916  0.00  0.00    +0.238 C 
ATOM     18  O   UNL     1     -60.738  84.258 155.723  0.00  0.00    -0.273 OA
ATOM     19  N   UNL     1     -59.020  85.454 155.095  0.00  0.00    -0.305 N 
ATOM     20  H   UNL     1     -58.399  86.274 155.194  0.00  0.00    +0.149 HD
ATOM     21  C   UNL     1     -58.345  84.356 154.406  0.00  0.00    +0.200 C 
ATOM     22  C   UNL     1     -56.804  84.336 154.136  0.00  0.00    +0.231 C 
ATOM     23  O   UNL     1     -56.214  85.323 154.582  0.00  0.00    -0.274 OA
ATOM     24  N   UNL     1     -56.013  83.342 153.545  0.00  0.00    -0.303 N 
ATOM     25  H   UNL     1     -55.862  83.232 154.526  0.00  0.00    +0.149 HD
ATOM     26  C   UNL     1     -54.389  83.301 152.479  0.00  0.00    +0.159 C 
ATOM     27  C   UNL     1     -54.452  83.610 150.684  0.00  0.00    +0.234 C 
ATOM     28  O   UNL     1     -55.340  83.187 149.891  0.00  0.00    -0.274 OA
ATOM     29  N   UNL     1     -53.374  84.258 150.287  0.00  0.00    -0.303 N 
ATOM     30  H   UNL     1     -52.707  84.590 150.940  0.00  0.00    +0.149 HD
ATOM     31  C   UNL     1     -53.027  83.602 149.122  0.00  0.00    +0.156 C 
ATOM     32  C   UNL     1     -53.090  82.164 149.444  0.00  0.00    +0.038 C 
ATOM     33  C   UNL     1     -51.718  84.027 148.603  0.00  0.00    +0.234 C 
ATOM     34  O   UNL     1     -51.359  85.118 149.013  0.00  0.00    -0.274 OA
ATOM     35  N   UNL     1     -51.016  83.229 147.741  0.00  0.00    -0.297 N 
ATOM     36  H   UNL     1     -51.602  82.753 147.090  0.00  0.00    +0.150 HD
ATOM     37  C   UNL     1     -49.807  83.688 147.191  0.00  0.00    +0.213 C 
ATOM     38  C   UNL     1     -49.968  84.877 146.472  0.00  0.00    +0.333 C 
ATOM     39  O   UNL     1     -50.448  84.711 145.348  0.00  0.00    -0.248 OA
ATOM     40  O   UNL     1     -49.666  86.060 147.245  0.00  0.00    -0.448 OA
ATOM     41  C   UNL     1     -49.958  87.446 146.758  0.00  0.00    +0.290 C 
ATOM     42  C   UNL     1     -49.099  87.939 145.772  0.00  0.00    +0.209 C 
ATOM     43  C   UNL     1     -48.164  87.001 145.059  0.00  0.00    +0.238 C 
ATOM     44  O   UNL     1     -48.350  85.801 145.098  0.00  0.00    -0.274 OA
ATOM     45  N   UNL     1     -47.462  87.383 143.965  0.00  0.00    -0.299 N 
ATOM     46  H   UNL     1     -48.203  87.951 143.603  0.00  0.00    +0.150 HD
ATOM     47  C   UNL     1     -47.390  86.306 142.912  0.00  0.00    +0.190 C 
ATOM     48  C   UNL     1     -46.921  84.837 143.321  0.00  0.00    +0.238 C 
ATOM     49  O   UNL     1     -45.751  84.474 143.347  0.00  0.00    -0.273 OA
ATOM     50  N   UNL     1     -47.920  83.929 143.505  0.00  0.00    -0.302 N 
ATOM     51  H   UNL     1     -48.697  84.179 142.931  0.00  0.00    +0.150 HD
ATOM     52  C   UNL     1     -47.966  82.824 144.425  0.00  0.00    +0.159 C 
ATOM     53  C   UNL     1     -49.311  82.162 144.632  0.00  0.00    +0.234 C 
ATOM     54  O   UNL     1     -50.358  82.762 144.430  0.00  0.00    -0.274 OA
ATOM     55  N   UNL     1     -49.318  80.930 145.286  0.00  0.00    -0.300 N 
ATOM     56  H   UNL     1     -48.871  80.095 144.963  0.00  0.00    +0.150 HD
ATOM     57  C   UNL     1     -50.442  80.362 145.906  0.00  0.00    +0.187 C 
ATOM     58  C   UNL     1     -50.021  79.034 146.633  0.00  0.00    +0.237 C 
ATOM     59  O   UNL     1     -48.968  78.501 146.323  0.00  0.00    -0.274 OA
ATOM     60  N   UNL     1     -50.584  78.507 147.729  0.00  0.00    -0.299 N 
ATOM     61  H   UNL     1     -51.034  79.270 148.194  0.00  0.00    +0.150 HD
ATOM     62  C   UNL     1     -51.440  77.249 147.822  0.00  0.00    +0.190 C 
ATOM     63  C   UNL     1     -51.237  76.066 146.817  0.00  0.00    +0.239 C 
ATOM     64  O   UNL     1     -52.093  75.282 146.414  0.00  0.00    -0.273 OA
ATOM     65  N   UNL     1     -50.126  76.361 146.061  0.00  0.00    -0.299 N 
ATOM     66  H   UNL     1     -50.716  77.024 145.554  0.00  0.00    +0.150 HD
ATOM     67  C   UNL     1     -49.534  75.506 145.027  0.00  0.00    +0.190 C 
ATOM     68  C   UNL     1     -49.370  74.002 145.201  0.00  0.00    +0.239 C 
ATOM     69  O   UNL     1     -48.409  73.267 145.027  0.00  0.00    -0.273 OA
ATOM     70  N   UNL     1     -50.504  73.368 145.526  0.00  0.00    -0.300 N 
ATOM     71  H   UNL     1     -51.382  73.798 145.241  0.00  0.00    +0.150 HD
ATOM     72  C   UNL     1     -50.369  72.114 146.203  0.00  0.00    +0.187 C 
ATOM     73  C   UNL     1     -51.760  71.731 146.490  0.00  0.00    +0.236 C 
ATOM     74  O   UNL     1     -52.689  72.532 146.593  0.00  0.00    -0.274 OA
ATOM     75  N   UNL     1     -51.874  70.671 147.295  0.00  0.00    -0.302 N 
ATOM     76  H   UNL     1     -51.619  71.285 148.015  0.00  0.00    +0.150 HD
ATOM     77  C   UNL     1     -53.084  70.765 148.004  0.00  0.00    +0.163 C 
ATOM     78  C   UNL     1     -53.002  72.434 149.168  0.00  0.00    +0.234 C 
ATOM     79  O   UNL     1     -52.563  71.039 149.499  0.00  0.00    -0.274 OA
ATOM     80  N   UNL     1     -53.860  74.094 149.861  0.00  0.00    -0.302 N 
ATOM     81  H   UNL     1     -54.498  72.965 150.063  0.00  0.00    +0.150 HD
ENDROOT
BRANCH  37  82
ATOM     82  C   UNL     1     -48.717  83.601 148.080  0.00  0.00    -0.015 A 
ATOM     83  C   UNL     1     -47.645  82.862 147.687  0.00  0.00    +0.009 A 
ATOM     84  C   UNL     1     -46.616  82.798 148.536  0.00  0.00    +0.047 A 
ATOM     85  C   UNL     1     -46.623  83.644 149.633  0.00  0.00    +0.135 A 
ATOM     86  C   UNL     1     -47.729  84.359 150.024  0.00  0.00    +0.083 A 
ATOM     87 CL   UNL     1     -47.839  85.410 151.356  0.00  0.00    -0.080 Cl
ATOM     88  C   UNL     1     -48.821  84.206 149.290  0.00  0.00    +0.029 A 
BRANCH  85  89
ATOM     89  O   UNL     1     -45.480  83.749 150.338  0.00  0.00    -0.505 OA
ATOM     90  H   UNL     1     -45.667  84.409 151.029  0.00  0.00    +0.292 HD
ENDBRANCH  85  89
ENDBRANCH  37  82
BRANCH  16  91
ATOM     91  C   UNL     1     -60.210  85.485 158.489  0.00  0.00    -0.018 A 
ATOM     92  C   UNL     1     -60.399  86.054 159.746  0.00  0.00    +0.009 A 
ATOM     93  C   UNL     1     -60.174  85.306 160.927  0.00  0.00    +0.046 A 
ATOM     94  C   UNL     1     -59.978  83.929 160.886  0.00  0.00    +0.117 A 
ATOM     95  C   UNL     1     -59.766  83.330 159.666  0.00  0.00    +0.046 A 
ATOM     96  C   UNL     1     -59.759  84.128 158.509  0.00  0.00    +0.009 A 
BRANCH  94  97
ATOM     97  O   UNL     1     -60.003  83.216 162.050  0.00  0.00    -0.507 OA
ATOM     98  H   UNL     1     -59.925  82.261 161.876  0.00  0.00    +0.292 HD
ENDBRANCH  94  97
ENDBRANCH  16  91
BRANCH   6  99
ATOM     99  C   UNL     1     -56.103  86.189 151.358  0.00  0.00    -0.018 A 
ATOM    100  C   UNL     1     -56.745  88.278 151.049  0.00  0.00    +0.009 A 
ATOM    101  C   UNL     1     -56.909  90.413 150.971  0.00  0.00    +0.046 A 
ATOM    102  C   UNL     1     -56.417  92.320 151.204  0.00  0.00    +0.124 A 
ATOM    103  C   UNL     1     -55.914  90.515 151.866  0.00  0.00    +0.046 A 
ATOM    104  C   UNL     1     -55.864  88.357 151.857  0.00  0.00    +0.009 A 
BRANCH 102 105
ATOM    105  O   UNL     1     -56.759  94.387 151.398  0.00  0.00    -0.461 OA
BRANCH 105 106
ATOM    106  C   UNL     1     -56.820  96.540 151.069  0.00  0.00    +0.340 C 
ATOM    107  C   UNL     1     -57.984  97.836 150.042  0.00  0.00    +0.221 C 
ATOM    108  C   UNL     1     -57.470  99.037 148.945  0.00  0.00    +0.180 C 
ATOM    109  C   UNL     1     -57.227 100.437 149.473  0.00  0.00    +0.177 C 
ATOM    110  C   UNL     1     -56.257 100.092 150.620  0.00  0.00    +0.179 C 
ATOM    111  O   UNL     1     -56.712  98.511 151.558  0.00  0.00    -0.331 OA
BRANCH 109 112
ATOM    112  O   UNL     1     -56.673 101.304 148.417  0.00  0.00    -0.386 OA
ATOM    113  H   UNL     1     -55.795 100.974 148.154  0.00  0.00    +0.210 HD
ENDBRANCH 109 112
BRANCH 108 114
ATOM    114  O   UNL     1     -58.427  99.196 147.857  0.00  0.00    -0.386 OA
ATOM    115  H   UNL     1     -58.076  99.850 147.214  0.00  0.00    +0.210 HD
ENDBRANCH 108 114
BRANCH 107 116
ATOM    116  O   UNL     1     -59.140  98.685 150.629  0.00  0.00    -0.337 OA
BRANCH 116 117
ATOM    117  C   UNL     1     -59.757  97.905 151.616  0.00  0.00    +0.282 C 
ATOM    118  C   UNL     1     -61.266  98.245 151.828  0.00  0.00    +0.201 C 
ATOM    119  C   UNL     1     -61.388  99.642 152.411  0.00  0.00    +0.179 C 
ATOM    120  C   UNL     1     -60.454  99.732 153.632  0.00  0.00    +0.177 C 
ATOM    121  C   UNL     1     -58.907  99.331 153.370  0.00  0.00    +0.178 C 
ATOM    122  O   UNL     1     -58.932  97.985 152.815  0.00  0.00    -0.341 OA
BRANCH 120 123
ATOM    123  O   UNL     1     -60.625 101.050 154.180  0.00  0.00    -0.386 OA
ATOM    124  H   UNL     1     -60.066 101.701 153.714  0.00  0.00    +0.210 HD
ENDBRANCH 120 123
BRANCH 119 125
ATOM    125  O   UNL     1     -62.750  99.996 152.764  0.00  0.00    -0.386 OA
ATOM    126  H   UNL     1     -62.684 100.904 153.138  0.00  0.00    +0.210 HD
ENDBRANCH 119 125
BRANCH 118 127
ATOM    127  O   UNL     1     -61.856  97.285 152.723  0.00  0.00    -0.384 OA
ATOM    128  H   UNL     1     -62.725  97.657 152.972  0.00  0.00    +0.210 HD
ENDBRANCH 118 127
BRANCH 121 129
ATOM    129  C   UNL     1     -58.061  99.571 154.708  0.00  0.00    +0.190 C 
BRANCH 129 130
ATOM    130  O   UNL     1     -56.652  99.326 154.848  0.00  0.00    -0.392 OA
ATOM    131  H   UNL     1     -56.451  98.377 154.868  0.00  0.00    +0.210 HD
ENDBRANCH 129 130
ENDBRANCH 121 129
ENDBRANCH 116 117
ENDBRANCH 107 116
BRANCH 110 132
ATOM    132  C   UNL     1     -55.961 101.718 151.155  0.00  0.00    +0.190 C 
BRANCH 132 133
ATOM    133  O   UNL     1     -54.953 101.717 152.138  0.00  0.00    -0.392 OA
ATOM    134  H   UNL     1     -55.271 101.075 152.792  0.00  0.00    +0.210 HD
ENDBRANCH 132 133
ENDBRANCH 110 132
ENDBRANCH 105 106
ENDBRANCH 102 105
ENDBRANCH   6  99
BRANCH  67 135
ATOM    135  C   UNL     1     -48.348  76.114 144.304  0.00  0.00    -0.018 A 
ATOM    136  C   UNL     1     -48.311  77.374 143.736  0.00  0.00    +0.009 A 
ATOM    137  C   UNL     1     -47.089  77.907 143.306  0.00  0.00    +0.046 A 
ATOM    138  C   UNL     1     -45.883  77.274 143.611  0.00  0.00    +0.117 A 
ATOM    139  C   UNL     1     -45.888  76.017 144.126  0.00  0.00    +0.046 A 
ATOM    140  C   UNL     1     -47.111  75.428 144.325  0.00  0.00    +0.009 A 
BRANCH 138 141
ATOM    141  O   UNL     1     -44.699  77.888 143.363  0.00  0.00    -0.507 OA
ATOM    142  H   UNL     1     -43.956  77.374 143.721  0.00  0.00    +0.292 HD
ENDBRANCH 138 141
ENDBRANCH  67 135
BRANCH  47 143
ATOM    143  C   UNL     1     -48.835  86.426 142.350  0.00  0.00    -0.018 A 
ATOM    144  C   UNL     1     -49.135  87.038 141.194  0.00  0.00    +0.009 A 
ATOM    145  C   UNL     1     -50.497  87.342 140.987  0.00  0.00    +0.046 A 
ATOM    146  C   UNL     1     -51.554  86.970 141.844  0.00  0.00    +0.117 A 
ATOM    147  C   UNL     1     -51.294  86.470 143.036  0.00  0.00    +0.046 A 
ATOM    148  C   UNL     1     -49.975  86.265 143.151  0.00  0.00    +0.009 A 
BRANCH 146 149
ATOM    149  O   UNL     1     -52.852  86.962 141.482  0.00  0.00    -0.507 OA
ATOM    150  H   UNL     1     -53.335  86.751 142.328  0.00  0.00    +0.292 HD
ENDBRANCH 146 149
ENDBRANCH  47 143
BRANCH  62 151
ATOM    151  C   UNL     1     -52.701  78.049 147.651  0.00  0.00    -0.018 A 
ATOM    152  C   UNL     1     -53.014  79.093 148.435  0.00  0.00    +0.009 A 
ATOM    153  C   UNL     1     -53.156  80.448 147.837  0.00  0.00    +0.046 A 
ATOM    154  C   UNL     1     -52.908  81.224 146.773  0.00  0.00    +0.117 A 
ATOM    155  C   UNL     1     -52.787  80.189 146.074  0.00  0.00    +0.046 A 
ATOM    156  C   UNL     1     -52.757  78.569 146.417  0.00  0.00    +0.009 A 
BRANCH 154 157
ATOM    157  O   UNL     1     -52.922  82.471 146.295  0.00  0.00    -0.507 OA
ATOM    158  H   UNL     1     -52.592  82.580 145.347  0.00  0.00    +0.292 HD
ENDBRANCH 154 157
ENDBRANCH  62 151
BRANCH  41 159
ATOM    159  C   UNL     1     -51.105  89.156 146.576  0.00  0.00    +0.254 C 
ATOM    160  O   UNL     1     -51.378  89.720 145.444  0.00  0.00    -0.272 OA
ATOM    161  N   UNL     1     -52.145  89.365 147.496  0.00  0.00    -0.326 N 
ATOM    162  H   UNL     1     -53.138  89.435 147.178  0.00  0.00    +0.145 HD
ATOM    163  H   UNL     1     -52.132  88.511 148.053  0.00  0.00    +0.145 HD
ENDBRANCH  41 159
BRANCH  42 164
ATOM    164  N   UNL     1     -50.713  87.742 145.266  0.00  0.00    -0.299 N 
ATOM    165  H   UNL     1     -50.895  88.276 144.469  0.00  0.00    +0.150 HD
ATOM    166  C   UNL     1     -51.969  87.175 146.493  0.00  0.00    +0.235 C 
ATOM    167  O   UNL     1     -51.701  87.012 147.744  0.00  0.00    -0.274 OA
BRANCH 166 168
ATOM    168  C   UNL     1     -53.406  87.421 146.259  0.00  0.00    +0.168 C 
BRANCH 168 169
ATOM    169  N   UNL     1     -53.720  88.682 145.501  0.00  0.00    -0.300 N 
ATOM    170  H   UNL     1     -53.589  89.656 145.762  0.00  0.00    +0.150 HD
ATOM    171  C   UNL     1     -53.570  88.652 144.173  0.00  0.00    +0.237 C 
ATOM    172  O   UNL     1     -53.443  87.566 143.652  0.00  0.00    -0.271 OA
BRANCH 171 173
ATOM    173  C   UNL     1     -53.736  89.911 143.432  0.00  0.00    +0.067 C 
ATOM    174  C   UNL     1     -54.792  89.949 142.616  0.00  0.00    +0.005 C 
BRANCH 174 175
ATOM    175  C   UNL     1     -55.735  88.860 142.462  0.00  0.00    -0.004 C 
ATOM    176  C   UNL     1     -56.411  88.627 141.335  0.00  0.00    -0.027 C 
BRANCH 176 177
ATOM    177  C   UNL     1     -56.257  89.467 140.111  0.00  0.00    +0.030 C 
BRANCH 177 178
ATOM    178  C   UNL     1     -55.123  88.972 139.214  0.00  0.00    -0.013 C 
ATOM    179  C   UNL     1     -54.990  89.903 138.017  0.00  0.00    +0.007 C 
ATOM    180  C   UNL     1     -55.415  87.558 138.737  0.00  0.00    +0.007 C 
ENDBRANCH 177 178
ENDBRANCH 176 177
ENDBRANCH 174 175
ENDBRANCH 171 173
ENDBRANCH 168 169
BRANCH 168 181
ATOM    181  C   UNL     1     -54.003  87.470 147.795  0.00  0.00    +0.127 C 
BRANCH 181 182
ATOM    182  C   UNL     1     -55.428  87.675 147.634  0.00  0.00    +0.213 C 
ATOM    183  O   UNL     1     -56.029  87.245 146.666  0.00  0.00    -0.276 OA
ATOM    184  N   UNL     1     -55.965  88.496 148.563  0.00  0.00    -0.329 N 
ATOM    185  H   UNL     1     -56.953  88.677 148.525  0.00  0.00    +0.145 HD
ATOM    186  H   UNL     1     -55.477  88.813 149.402  0.00  0.00    +0.145 HD
ENDBRANCH 181 182
ENDBRANCH 168 181
ENDBRANCH 166 168
ENDBRANCH  42 164
BRANCH  57 187
ATOM    187  C   UNL     1     -51.259  80.077 144.326  0.00  0.00    +0.141 C 
ATOM    188  C   UNL     1     -52.743  79.117 144.147  0.00  0.00    +0.040 C 
BRANCH 187 189
ATOM    189  O   UNL     1     -51.681  81.204 143.573  0.00  0.00    -0.390 OA
ATOM    190  H   UNL     1     -51.107  81.964 143.749  0.00  0.00    +0.210 HD
ENDBRANCH 187 189
ENDBRANCH  57 187
BRANCH  72 191
ATOM    191  C   UNL     1     -49.521  72.349 147.482  0.00  0.00    +0.141 C 
ATOM    192  C   UNL     1     -49.280  71.129 148.335  0.00  0.00    +0.040 C 
BRANCH 191 193
ATOM    193  O   UNL     1     -50.103  73.382 148.296  0.00  0.00    -0.390 OA
ATOM    194  H   UNL     1     -49.459  73.619 148.985  0.00  0.00    +0.210 HD
ENDBRANCH 191 193
ENDBRANCH  72 191
BRANCH  11 195
ATOM    195  C   UNL     1     -59.534  90.043 156.191  0.00  0.00    +0.141 C 
ATOM    196  C   UNL     1     -59.911  91.817 156.089  0.00  0.00    +0.040 C 
BRANCH 195 197
ATOM    197  O   UNL     1     -61.132  89.939 156.712  0.00  0.00    -0.390 OA
ATOM    198  H   UNL     1     -61.261  89.242 157.396  0.00  0.00    +0.210 HD
ENDBRANCH 195 197
ENDBRANCH  11 195
BRANCH   1 199
ATOM    199  C   UNL     1     -53.389  73.595 151.285  0.00  0.00    +0.033 C 
BRANCH 199 200
ATOM    200  C   UNL     1     -52.775  71.216 151.265  0.00  0.00    +0.017 C 
BRANCH 200 201
ATOM    201  C   UNL     1     -51.697  69.148 150.898  0.00  0.00    +0.078 C 
BRANCH 201 202
ATOM    202  N   UNL     1     -50.937  67.418 149.980  0.00  0.00    -0.330 NA
ATOM    203  H   UNL     1     -50.752  67.006 148.958  0.00  0.00    +0.118 HD
ATOM    204  H   UNL     1     -50.042  66.471 150.219  0.00  0.00    +0.118 HD
ENDBRANCH 201 202
ENDBRANCH 200 201
ENDBRANCH 199 200
ENDBRANCH   1 199
BRANCH  77 205
ATOM    205  C   UNL     1     -54.440  70.502 148.241  0.00  0.00    +0.067 C 
BRANCH 205 206
ATOM    206  C   UNL     1     -55.034  69.664 149.405  0.00  0.00    -0.045 A 
ATOM    207  C   UNL     1     -56.093  70.513 149.572  0.00  0.00    +0.004 A 
ATOM    208  C   UNL     1     -57.312  70.038 149.212  0.00  0.00    +0.000 A 
ATOM    209  C   UNL     1     -57.526  68.691 148.925  0.00  0.00    +0.000 A 
ATOM    210  C   UNL     1     -56.501  67.759 148.980  0.00  0.00    +0.000 A 
ATOM    211  C   UNL     1     -55.240  68.227 149.326  0.00  0.00    +0.004 A 
ENDBRANCH 205 206
ENDBRANCH  77 205
BRANCH  26 212
ATOM    212  C   UNL     1     -53.662  82.558 153.405  0.00  0.00    +0.034 C 
BRANCH 212 213
ATOM    213  C   UNL     1     -52.535  81.612 153.228  0.00  0.00    -0.015 C 
ATOM    214  C   UNL     1     -52.618  80.947 154.560  0.00  0.00    +0.007 C 
ATOM    215  C   UNL     1     -51.267  82.421 153.215  0.00  0.00    +0.007 C 
ENDBRANCH 212 213
ENDBRANCH  26 212
BRANCH  52 216
ATOM    216  C   UNL     1     -47.115  81.585 144.417  0.00  0.00    +0.033 C 
BRANCH 216 217
ATOM    217  C   UNL     1     -45.693  81.877 144.229  0.00  0.00    +0.017 C 
BRANCH 217 218
ATOM    218  C   UNL     1     -44.907  80.615 144.330  0.00  0.00    +0.078 C 
BRANCH 218 219
ATOM    219  N   UNL     1     -43.522  80.931 144.062  0.00  0.00    -0.330 NA
ATOM    220  H   UNL     1     -42.990  80.069 144.067  0.00  0.00    +0.118 HD
ATOM    221  H   UNL     1     -43.455  81.321 143.121  0.00  0.00    +0.118 HD
ENDBRANCH 218 219
ENDBRANCH 217 218
ENDBRANCH 216 217
ENDBRANCH  52 216
TORSDOF 52
