REMARK  Name = 
REMARK  12 active torsions:
REMARK  status: ('A' for Active; 'I' for Inactive)
REMARK    1  A    between atoms: C_1  and  C_2
REMARK    2  A    between atoms: C_2  and  O_3
REMARK    3  A    between atoms: O_3  and  P_4
REMARK    4  A    between atoms: P_4  and  O_6
REMARK    5  A    between atoms: P_4  and  C_9
REMARK    6  A    between atoms: O_6  and  C_7
REMARK    7  A    between atoms: C_7  and  C_8
REMARK    8  A    between atoms: C_9  and  C_11
REMARK    9  A    between atoms: C_9  and  N_12
REMARK   10  A    between atoms: N_15  and  C_16
REMARK   11  A    between atoms: N_15  and  N_19
REMARK   12  A    between atoms: C_16  and  C_17
REMARK                            x       y       z     vdW  Elec       q    Type
REMARK                         _______ _______ _______ _____ _____    ______ ____
ROOT
ATOM      1  C   UNL     1       6.578  -0.027   1.432  0.00  0.00    +0.186 C 
ATOM      2  C   UNL     1       7.108  -1.437   1.191  0.00  0.00    +0.041 C 
ENDROOT
BRANCH   1   3
ATOM      3  N   UNL     1       7.064   0.892   0.376  0.00  0.00    -0.284 N 
ATOM      4  H   UNL     1       6.348   1.590   0.165  0.00  0.00    +0.151 HD
ATOM      5  C   UNL     1       8.327   1.460   0.416  0.00  0.00    +0.325 C 
ATOM      6  N   UNL     1       8.589   2.390  -0.603  0.00  0.00    -0.140 N 
ATOM      7  O   UNL     1       9.140   1.170   1.292  0.00  0.00    -0.251 OA
BRANCH   6   8
ATOM      8  N   UNL     1       7.589   2.632  -1.564  0.00  0.00    +0.053 NA
ATOM      9  O   UNL     1       7.772   3.629  -2.266  0.00  0.00    -0.126 OA
ENDBRANCH   6   8
BRANCH   6  10
ATOM     10  C   UNL     1       9.816   3.197  -0.592  0.00  0.00    +0.155 C 
BRANCH  10  11
ATOM     11  C   UNL     1      11.131   2.417  -0.596  0.00  0.00    +0.130 C 
ATOM     12 CL   UNL     1      11.268   1.339  -2.006  0.00  0.00    -0.124 Cl
ENDBRANCH  10  11
ENDBRANCH   6  10
ENDBRANCH   1   3
BRANCH   1  13
ATOM     13  P   UNL     1       4.748  -0.027   1.432  0.00  0.00    +0.352 P 
ATOM     14  O   UNL     1       4.788   1.517   1.356  0.00  0.00    -0.257 OA
BRANCH  13  15
ATOM     15  O   UNL     1       3.018  -0.027   1.432  0.00  0.00    -0.307 OA
BRANCH  15  17
ATOM     16  C   UNL     1       0.939   0.494   0.333  0.00  0.00    +0.034 C 
ATOM     17  C   UNL     1       2.449   0.527   0.248  0.00  0.00    +0.167 C 
ENDBRANCH  15  17
ENDBRANCH  13  15
BRANCH  13  18
ATOM     18  O   UNL     1       4.735  -0.483   3.024  0.00  0.00    -0.307 OA
BRANCH  18  19
ATOM     19  C   UNL     1       4.680   0.546   4.008  0.00  0.00    +0.167 C 
ATOM     20  C   UNL     1       4.694  -0.082   5.385  0.00  0.00    +0.034 C 
ENDBRANCH  18  19
ENDBRANCH  13  18
ENDBRANCH   1  13
TORSDOF 9
