REMARK  Name = 
REMARK  9 active torsions:
REMARK  status: ('A' for Active; 'I' for Inactive)
REMARK    1  A    between atoms: C_1  and  O_2
REMARK    2  A    between atoms: O_2  and  C_3
REMARK    3  A    between atoms: C_4  and  C_30
REMARK    4  A    between atoms: C_7  and  N_8
REMARK    5  A    between atoms: N_11  and  C_12
REMARK    6  A    between atoms: C_16  and  C_17
REMARK    7  A    between atoms: C_17  and  N_18
REMARK    8  A    between atoms: C_19  and  O_21
REMARK    9  A    between atoms: O_21  and  C_22
REMARK                            x       y       z     vdW  Elec       q    Type
REMARK                         _______ _______ _______ _____ _____    ______ ____
ROOT
ATOM      1  N   UNL     1       8.520   3.545  -1.797  0.00  0.00    -0.269 N 
ATOM      2  H   UNL     1       7.650   3.398  -1.309  0.00  0.00    +0.156 HD
ATOM      3  C   UNL     1       9.344   2.443  -2.001  0.00  0.00    +0.308 C 
ATOM      4  N   UNL     1       8.670   1.228  -1.902  0.00  0.00    -0.269 N 
ATOM      5  H   UNL     1       7.789   1.215  -1.412  0.00  0.00    +0.156 HD
ATOM      6  O   UNL     1      10.537   2.532  -2.256  0.00  0.00    -0.252 OA
ENDROOT
BRANCH   1   9
ATOM      7  C   UNL     1       8.569   7.303  -1.624  0.00  0.00    +0.133 A 
ATOM      8  C   UNL     1       8.203   5.944  -1.431  0.00  0.00    +0.069 A 
ATOM      9  C   UNL     1       8.917   4.894  -2.023  0.00  0.00    +0.038 A 
ATOM     10  C   UNL     1      10.001   5.228  -2.829  0.00  0.00    +0.024 A 
ATOM     11  C   UNL     1      10.359   6.562  -3.037  0.00  0.00    +0.017 A 
ATOM     12  C   UNL     1       9.652   7.633  -2.458  0.00  0.00    +0.061 A 
BRANCH  12  13
ATOM     13  C   UNL     1      10.145   8.970  -2.782  0.00  0.00    +0.158 A 
ATOM     14  O   UNL     1      10.667   9.109  -4.053  0.00  0.00    -0.442 OA
ATOM     15  C   UNL     1      11.084  10.399  -4.120  0.00  0.00    +0.308 A 
ATOM     16  N   UNL     1      10.870  11.103  -3.035  0.00  0.00    -0.224 NA
ATOM     17  C   UNL     1      10.291  10.199  -2.173  0.00  0.00    +0.161 A 
ENDBRANCH  12  13
BRANCH   7  19
ATOM     18  C   UNL     1       7.262   9.293  -1.466  0.00  0.00    +0.277 C 
ATOM     19  O   UNL     1       7.857   8.168  -0.831  0.00  0.00    -0.494 OA
ENDBRANCH   7  19
ENDBRANCH   1   9
BRANCH   4  20
ATOM     20  C   UNL     1       9.217  -0.036  -2.270  0.00  0.00    +0.035 A 
ATOM     21  C   UNL     1       8.559  -1.211  -1.875  0.00  0.00    +0.028 A 
ATOM     22  C   UNL     1       9.040  -2.482  -2.264  0.00  0.00    -0.028 A 
ATOM     23  C   UNL     1      10.223  -2.567  -3.010  0.00  0.00    +0.005 A 
ATOM     24  C   UNL     1      10.879  -1.409  -3.410  0.00  0.00    +0.002 A 
ATOM     25  C   UNL     1      10.366  -0.159  -3.060  0.00  0.00    +0.023 A 
BRANCH  22  26
ATOM     26  C   UNL     1       8.276  -3.737  -1.937  0.00  0.00    +0.143 C 
BRANCH  26  27
ATOM     27  N   UNL     1       8.728  -4.391  -0.738  0.00  0.00    -0.277 N 
ATOM     28  H   UNL     1       9.480  -5.062  -0.773  0.00  0.00    +0.152 HD
ATOM     29  C   UNL     1       8.117  -4.218   0.468  0.00  0.00    +0.401 C 
ATOM     30  O   UNL     1       7.226  -3.415   0.703  0.00  0.00    -0.226 OA
BRANCH  29  31
ATOM     31  O   UNL     1       8.634  -5.101   1.354  0.00  0.00    -0.445 OA
BRANCH  31  32
ATOM     32  C   UNL     1       8.137  -5.014   2.694  0.00  0.00    +0.206 C 
ATOM     33  C   UNL     1       8.839  -6.043   3.571  0.00  0.00    +0.204 C 
ATOM     34  O   UNL     1       7.929  -6.421   4.615  0.00  0.00    -0.376 OA
ATOM     35  C   UNL     1       6.657  -5.824   4.330  0.00  0.00    +0.163 C 
ATOM     36  C   UNL     1       6.687  -5.420   2.873  0.00  0.00    +0.075 C 
ENDBRANCH  31  32
ENDBRANCH  29  31
ENDBRANCH  26  27
ENDBRANCH  22  26
ENDBRANCH   4  20
TORSDOF 8
