REMARK  Name = 
REMARK  6 active torsions:
REMARK  status: ('A' for Active; 'I' for Inactive)
REMARK    1  A    between atoms: C_15  and  C_20
REMARK    2  A    between atoms: N_18  and  C_19
REMARK    3  A    between atoms: N_22  and  C_23
REMARK    4  A    between atoms: N_22  and  C_25
REMARK    5  A    between atoms: C_23  and  C_24
REMARK    6  A    between atoms: C_25  and  C_26
REMARK                            x       y       z     vdW  Elec       q    Type
REMARK                         _______ _______ _______ _____ _____    ______ ____
ROOT
ATOM      1  C   UNL     1       2.801  -1.411  -0.151  0.00  0.00    +0.091 C 
ATOM      2  N   UNL     1       3.310  -1.604   1.240  0.00  0.00    -0.297 NA
ATOM      3  C   UNL     1       4.498  -0.783   1.541  0.00  0.00    +0.105 C 
ATOM      4  C   UNL     1       2.163  -1.264   2.139  0.00  0.00    +0.101 C 
ATOM      5  C   UNL     1       1.306  -0.021   1.716  0.00  0.00    +0.112 C 
ATOM      6  C   UNL     1       2.020   0.799   0.644  0.00  0.00    -0.007 C 
ATOM      7  C   UNL     1       2.531   0.098  -0.393  0.00  0.00    -0.025 C 
ATOM      8  C   UNL     1       2.501   0.615  -1.781  0.00  0.00    -0.011 A 
ATOM      9  C   UNL     1       2.512  -0.419  -2.728  0.00  0.00    +0.010 A 
ATOM     10  C   UNL     1       2.017  -0.238  -4.005  0.00  0.00    +0.047 A 
ATOM     11  C   UNL     1       1.667   1.031  -4.472  0.00  0.00    +0.026 A 
ATOM     12  C   UNL     1       1.815   2.103  -3.572  0.00  0.00    +0.003 A 
ATOM     13  N   UNL     1       1.923  -1.502  -4.550  0.00  0.00    -0.360 N 
ATOM     14  H   UNL     1       1.481  -1.713  -5.433  0.00  0.00    +0.165 HD
ATOM     15  C   UNL     1       2.442  -2.443  -3.681  0.00  0.00    +0.087 A 
ATOM     16  C   UNL     1       2.897  -1.772  -2.571  0.00  0.00    -0.020 A 
ATOM     17  C   UNL     1       2.193   1.900  -2.235  0.00  0.00    +0.009 A 
ATOM     18  C   UNL     1       3.546  -2.172  -1.283  0.00  0.00    +0.061 C 
ENDROOT
BRANCH   5  19
ATOM     19  C   UNL     1      -0.101  -0.419   1.078  0.00  0.00    +0.224 C 
ATOM     20  N   UNL     1      -0.884   0.635   0.527  0.00  0.00    -0.301 N 
ATOM     21  O   UNL     1      -0.451  -1.600   0.989  0.00  0.00    -0.275 OA
BRANCH  20  22
ATOM     22  C   UNL     1      -1.481   0.351  -0.788  0.00  0.00    +0.104 C 
ATOM     23  C   UNL     1      -2.893  -0.201  -0.743  0.00  0.00    +0.024 C 
ENDBRANCH  20  22
BRANCH  20  24
ATOM     24  C   UNL     1      -0.631   2.041   0.844  0.00  0.00    +0.104 C 
ATOM     25  C   UNL     1      -1.819   2.978   0.871  0.00  0.00    +0.024 C 
ENDBRANCH  20  24
ENDBRANCH   5  19
TORSDOF 3
