REMARK  Name = 
REMARK  18 active torsions:
REMARK  status: ('A' for Active; 'I' for Inactive)
REMARK    1  A    between atoms: O_1  and  C_2
REMARK    2  A    between atoms: C_2  and  C_3
REMARK    3  A    between atoms: C_3  and  C_4
REMARK    4  A    between atoms: C_4  and  O_5
REMARK    5  A    between atoms: O_5  and  C_6
REMARK    6  A    between atoms: C_8  and  O_10
REMARK    7  A    between atoms: C_13  and  C_14
REMARK    8  A    between atoms: C_19  and  C_20
REMARK    9  A    between atoms: C_21  and  C_27
REMARK   10  A    between atoms: C_27  and  C_29
REMARK   11  A    between atoms: C_27  and  C_30
REMARK   12  A    between atoms: C_30  and  C_31
REMARK   13  A    between atoms: C_31  and  C_32
REMARK   14  A    between atoms: C_32  and  C_33
REMARK   15  A    between atoms: C_33  and  O_34
REMARK   16  A    between atoms: C_33  and  C_35
REMARK   17  A    between atoms: C_33  and  C_36
REMARK   18  A    between atoms: C_39  and  O_41
REMARK                            x       y       z     vdW  Elec       q    Type
REMARK                         _______ _______ _______ _____ _____    ______ ____
ROOT
ATOM      1  C   UNL     1      -0.000  -0.000   0.000  0.00  0.00    -0.000 C 
ATOM      2  C   UNL     1      -0.000  -0.000   0.000  0.00  0.00    -0.066 C 
ATOM      3  C   UNL     1      -0.000  -0.000  -0.000  0.00  0.00    +0.021 C 
ATOM      4  C   UNL     1      -0.000  -0.000   0.000  0.00  0.00    -0.022 C 
ATOM      5  C   UNL     1      -0.000  -0.000   0.000  0.00  0.00    -0.002 C 
ATOM      6  C   UNL     1       0.000  -0.000   0.000  0.00  0.00    +0.005 C 
ATOM      7  C   UNL     1      -0.000  -0.000   0.000  0.00  0.00    +0.012 C 
ATOM      8  C   UNL     1      -0.000  -0.000   0.000  0.00  0.00    +0.008 C 
ATOM      9  C   UNL     1      -0.000  -0.000   0.000  0.00  0.00    +0.005 C 
ATOM     10  C   UNL     1      -0.000  -0.000   0.000  0.00  0.00    +0.009 C 
ATOM     11  C   UNL     1      -0.000  -0.000   0.000  0.00  0.00    +0.031 C 
ENDROOT
BRANCH   1  17
ATOM     12  C   UNL     1      -0.000  -0.000   0.000  0.00  0.00    +0.180 C 
ATOM     13  C   UNL     1      -0.000  -0.000   0.000  0.00  0.00    +0.175 C 
ATOM     14  C   UNL     1      -0.000  -0.000   0.000  0.00  0.00    -0.020 C 
ATOM     15  C   UNL     1      -0.000  -0.000   0.000  0.00  0.00    +0.015 C 
ATOM     16  C   UNL     1      -0.000  -0.000   0.000  0.00  0.00    -0.040 C 
ATOM     17  C   UNL     1      -0.000  -0.000   0.000  0.00  0.00    +0.004 C 
ATOM     18  C   UNL     1      -0.000  -0.000   0.000  0.00  0.00    +0.069 C 
ATOM     19  C   UNL     1      -0.000  -0.000   0.000  0.00  0.00    +0.150 C 
BRANCH  13  20
ATOM     20  O   UNL     1      -0.000  -0.000   0.000  0.00  0.00    -0.385 OA
ATOM     21  H   UNL     1      -0.000  -0.000   0.000  0.00  0.00    +0.210 HD
ENDBRANCH  13  20
BRANCH  19  22
ATOM     22  O   UNL     1      -0.000  -0.000   0.000  0.00  0.00    -0.389 OA
ATOM     23  H   UNL     1      -0.000  -0.000   0.000  0.00  0.00    +0.210 HD
ENDBRANCH  19  22
BRANCH  12  24
ATOM     24  O   UNL     1      -0.000  -0.000   0.000  0.00  0.00    -0.371 OA
BRANCH  24  25
ATOM     25  C   UNL     1      -0.000  -0.000   0.000  0.00  0.00    +0.162 C 
BRANCH  25  26
ATOM     26  C   UNL     1      -0.000  -0.000   0.000  0.00  0.00    +0.056 C 
BRANCH  26  27
ATOM     27  C   UNL     1      -0.000  -0.000   0.000  0.00  0.00    +0.158 C 
BRANCH  27  28
ATOM     28  O   UNL     1      -0.000  -0.000   0.000  0.00  0.00    -0.395 OA
ATOM     29  H   UNL     1      -0.000  -0.000   0.000  0.00  0.00    +0.209 HD
ENDBRANCH  27  28
ENDBRANCH  26  27
ENDBRANCH  25  26
ENDBRANCH  24  25
ENDBRANCH  12  24
ENDBRANCH   1  17
BRANCH   5  30
ATOM     30  C   UNL     1      -0.000  -0.000   0.000  0.00  0.00    -0.010 C 
ATOM     31  C   UNL     1      -0.000  -0.000   0.000  0.00  0.00    +0.008 C 
BRANCH  30  32
ATOM     32  C   UNL     1      -0.000  -0.000   0.000  0.00  0.00    +0.003 C 
BRANCH  32  33
ATOM     33  C   UNL     1      -0.000  -0.000   0.000  0.00  0.00    +0.003 C 
BRANCH  33  34
ATOM     34  C   UNL     1      -0.000  -0.000   0.000  0.00  0.00    +0.034 C 
BRANCH  34  35
ATOM     35  C   UNL     1      -0.000  -0.000   0.000  0.00  0.00    +0.061 C 
ATOM     36  C   UNL     1      -0.000  -0.000   0.000  0.00  0.00    +0.041 C 
ATOM     37  C   UNL     1      -0.000  -0.000   0.000  0.00  0.00    +0.041 C 
BRANCH  35  38
ATOM     38  O   UNL     1      -0.000  -0.000   0.000  0.00  0.00    -0.389 OA
ATOM     39  H   UNL     1      -0.000  -0.000   0.000  0.00  0.00    +0.210 HD
ENDBRANCH  35  38
ENDBRANCH  34  35
ENDBRANCH  33  34
ENDBRANCH  32  33
ENDBRANCH  30  32
ENDBRANCH   5  30
TORSDOF 14
