REMARK  Name = 
REMARK  11 active torsions:
REMARK  status: ('A' for Active; 'I' for Inactive)
REMARK    1  A    between atoms: C_1  and  C_2
REMARK    2  A    between atoms: C_3  and  C_4
REMARK    3  A    between atoms: C_4  and  S_5
REMARK    4  A    between atoms: S_5  and  C_6
REMARK    5  A    between atoms: C_8  and  C_9
REMARK    6  A    between atoms: C_10  and  O_11
REMARK    7  A    between atoms: O_11  and  C_12
REMARK    8  A    between atoms: C_12  and  C_13
REMARK    9  A    between atoms: C_13  and  O_14
REMARK   10  A    between atoms: C_19  and  C_21
REMARK   11  A    between atoms: C_24  and  C_27
REMARK                            x       y       z     vdW  Elec       q    Type
REMARK                         _______ _______ _______ _____ _____    ______ ____
ROOT
ATOM      1  C   UNL     1       1.340   0.053  -0.979  0.00  0.00    +0.066 C 
ATOM      2  C   UNL     1       2.686   0.225  -0.367  0.00  0.00    +0.050 A 
ATOM      3  N   UNL     1       3.414  -0.947  -0.191  0.00  0.00    -0.244 NA
ATOM      4  C   UNL     1       4.609  -0.713   0.311  0.00  0.00    +0.109 A 
ATOM      5  S   UNL     1       4.898   0.946   0.649  0.00  0.00    -0.071 S 
ATOM      6  C   UNL     1       3.336   1.382   0.044  0.00  0.00    +0.023 A 
ENDROOT
BRANCH   4   7
ATOM      7  C   UNL     1       5.633  -1.761   0.526  0.00  0.00    +0.007 A 
ATOM      8  C   UNL     1       5.319  -3.095   0.211  0.00  0.00    +0.011 A 
ATOM      9  C   UNL     1       6.270  -4.118   0.324  0.00  0.00    +0.013 A 
ATOM     10  C   UNL     1       7.572  -3.833   0.757  0.00  0.00    +0.055 A 
ATOM     11  C   UNL     1       7.885  -2.514   1.107  0.00  0.00    +0.013 A 
ATOM     12  C   UNL     1       6.929  -1.495   0.995  0.00  0.00    +0.011 A 
BRANCH  10  13
ATOM     13  C   UNL     1       8.609  -4.928   0.820  0.00  0.00    +0.417 C 
ATOM     14  F   UNL     1       8.804  -5.529  -0.387  0.00  0.00    -0.166 F 
ATOM     15  F   UNL     1       8.270  -5.924   1.684  0.00  0.00    -0.166 F 
ATOM     16  F   UNL     1       9.838  -4.491   1.218  0.00  0.00    -0.166 F 
ENDBRANCH  10  13
ENDBRANCH   4   7
BRANCH   6  17
ATOM     17  C   UNL     1       2.993   2.850  -0.004  0.00  0.00    +0.118 C 
BRANCH  17  18
ATOM     18  S   UNL     1       1.257   3.245   0.383  0.00  0.00    -0.120 S 
BRANCH  18  19
ATOM     19  C   UNL     1       1.206   5.030   0.232  0.00  0.00    +0.009 A 
ATOM     20  C   UNL     1       2.200   5.867   0.741  0.00  0.00    +0.018 A 
ATOM     21  C   UNL     1       2.050   7.262   0.708  0.00  0.00    +0.047 A 
ATOM     22  C   UNL     1       0.901   7.843   0.169  0.00  0.00    +0.124 A 
ATOM     23  C   UNL     1      -0.111   7.016  -0.345  0.00  0.00    -0.008 A 
ATOM     24  C   UNL     1      -1.372   7.606  -0.916  0.00  0.00    +0.047 C 
ATOM     25  C   UNL     1       0.056   5.618  -0.314  0.00  0.00    +0.021 A 
BRANCH  22  26
ATOM     26  O   UNL     1       0.646   9.191   0.168  0.00  0.00    -0.481 OA
BRANCH  26  27
ATOM     27  C   UNL     1       1.791  10.049   0.119  0.00  0.00    +0.349 C 
BRANCH  27  28
ATOM     28  C   UNL     1       1.330  11.495   0.037  0.00  0.00    +0.343 C 
ATOM     29  O   UNL     1       2.085  12.450  -0.070  0.00  0.00    -0.247 OA
BRANCH  28  30
ATOM     30  O   UNL     1      -0.020  11.635   0.117  0.00  0.00    -0.478 OA
ATOM     31  H   UNL     1      -0.437  10.748   0.204  0.00  0.00    +0.295 HD
ENDBRANCH  28  30
ENDBRANCH  27  28
ENDBRANCH  26  27
ENDBRANCH  22  26
ENDBRANCH  18  19
ENDBRANCH  17  18
ENDBRANCH   6  17
TORSDOF 9
