REMARK  Name = 
REMARK  46 active torsions:
REMARK  status: ('A' for Active; 'I' for Inactive)
REMARK    1  A    between atoms: C_1  and  C_2
REMARK    2  A    between atoms: C_2  and  C_3
REMARK    3  A    between atoms: C_3  and  C_4
REMARK    4  A    between atoms: C_4  and  C_5
REMARK    5  A    between atoms: C_5  and  C_6
REMARK    6  A    between atoms: C_6  and  C_7
REMARK    7  A    between atoms: C_7  and  C_8
REMARK    8  A    between atoms: C_8  and  C_9
REMARK    9  A    between atoms: C_9  and  C_10
REMARK   10  A    between atoms: C_10  and  C_11
REMARK   11  A    between atoms: C_11  and  C_12
REMARK   12  A    between atoms: C_12  and  C_13
REMARK   13  A    between atoms: C_13  and  C_14
REMARK   14  A    between atoms: C_14  and  C_15
REMARK   15  A    between atoms: C_15  and  C_16
REMARK   16  A    between atoms: C_16  and  O_18
REMARK   17  A    between atoms: O_18  and  C_19
REMARK   18  A    between atoms: C_19  and  C_20
REMARK   19  A    between atoms: C_19  and  C_41
REMARK   20  A    between atoms: C_20  and  O_21
REMARK   21  A    between atoms: O_21  and  C_22
REMARK   22  A    between atoms: C_22  and  C_24
REMARK   23  A    between atoms: C_24  and  C_25
REMARK   24  A    between atoms: C_25  and  C_26
REMARK   25  A    between atoms: C_26  and  C_27
REMARK   26  A    between atoms: C_27  and  C_28
REMARK   27  A    between atoms: C_28  and  C_29
REMARK   28  A    between atoms: C_29  and  C_30
REMARK   29  A    between atoms: C_30  and  C_31
REMARK   30  A    between atoms: C_32  and  C_33
REMARK   31  A    between atoms: C_33  and  C_34
REMARK   32  A    between atoms: C_34  and  C_35
REMARK   33  A    between atoms: C_35  and  C_36
REMARK   34  A    between atoms: C_36  and  C_37
REMARK   35  A    between atoms: C_37  and  C_38
REMARK   36  A    between atoms: C_38  and  C_39
REMARK   37  A    between atoms: C_39  and  C_40
REMARK   38  A    between atoms: C_41  and  O_42
REMARK   39  A    between atoms: O_42  and  P_43
REMARK   40  A    between atoms: P_43  and  O_46
REMARK   41  A    between atoms: O_46  and  C_47
REMARK   42  A    between atoms: C_47  and  C_48
REMARK   43  A    between atoms: C_48  and  N_49
REMARK   44  A    between atoms: N_49  and  C_50
REMARK   45  A    between atoms: N_49  and  C_51
REMARK   46  A    between atoms: N_49  and  C_52
REMARK                            x       y       z     vdW  Elec       q    Type
REMARK                         _______ _______ _______ _____ _____    ______ ____
ROOT
ATOM      1  C   UNL     1      18.800  11.242   2.492  0.00  0.00    +0.240 C 
ENDROOT
BRANCH   1   2
ATOM      2  C   UNL     1      19.425  10.698   1.196  0.00  0.00    +0.279 C 
BRANCH   2   3
ATOM      3  O   UNL     1      18.898   9.380   0.932  0.00  0.00    -0.461 OA
BRANCH   3   4
ATOM      4  C   UNL     1      19.437   8.391   1.692  0.00  0.00    +0.307 C 
ATOM      5  O   UNL     1      20.464   8.491   2.350  0.00  0.00    -0.251 OA
BRANCH   4   6
ATOM      6  C   UNL     1      18.552   7.170   1.659  0.00  0.00    +0.120 C 
BRANCH   6   7
ATOM      7  C   UNL     1      18.538   6.524   3.038  0.00  0.00    +0.011 C 
BRANCH   7   8
ATOM      8  C   UNL     1      17.612   5.312   3.107  0.00  0.00    +0.001 C 
BRANCH   8   9
ATOM      9  C   UNL     1      17.660   4.737   4.518  0.00  0.00    +0.000 C 
BRANCH   9  10
ATOM     10  C   UNL     1      16.765   3.514   4.688  0.00  0.00    +0.000 C 
BRANCH  10  11
ATOM     11  C   UNL     1      16.796   2.985   6.125  0.00  0.00    +0.004 C 
BRANCH  11  12
ATOM     12  C   UNL     1      16.390   4.006   7.192  0.00  0.00    +0.027 C 
BRANCH  12  13
ATOM     13  C   UNL     1      14.975   4.492   7.022  0.00  0.00    -0.031 C 
ATOM     14  C   UNL     1      14.006   4.360   7.940  0.00  0.00    -0.031 C 
BRANCH  14  15
ATOM     15  C   UNL     1      14.241   3.725   9.275  0.00  0.00    +0.027 C 
BRANCH  15  16
ATOM     16  C   UNL     1      13.000   3.702  10.154  0.00  0.00    +0.004 C 
BRANCH  16  17
ATOM     17  C   UNL     1      13.353   3.070  11.497  0.00  0.00    +0.000 C 
BRANCH  17  18
ATOM     18  C   UNL     1      12.139   3.023  12.411  0.00  0.00    +0.000 C 
BRANCH  18  19
ATOM     19  C   UNL     1      12.498   2.393  13.753  0.00  0.00    -0.000 C 
BRANCH  19  20
ATOM     20  C   UNL     1      11.275   2.351  14.662  0.00  0.00    -0.000 C 
BRANCH  20  21
ATOM     21  C   UNL     1      11.607   1.726  16.013  0.00  0.00    -0.003 C 
ATOM     22  C   UNL     1      10.380   1.693  16.908  0.00  0.00    +0.004 C 
ENDBRANCH  20  21
ENDBRANCH  19  20
ENDBRANCH  18  19
ENDBRANCH  17  18
ENDBRANCH  16  17
ENDBRANCH  15  16
ENDBRANCH  14  15
ENDBRANCH  12  13
ENDBRANCH  11  12
ENDBRANCH  10  11
ENDBRANCH   9  10
ENDBRANCH   8   9
ENDBRANCH   7   8
ENDBRANCH   6   7
ENDBRANCH   4   6
ENDBRANCH   3   4
ENDBRANCH   2   3
ENDBRANCH   1   2
BRANCH   1  23
ATOM     23  O   UNL     1      17.346  11.152   2.457  0.00  0.00    -0.456 OA
BRANCH  23  24
ATOM     24  C   UNL     1      16.682  11.859   1.507  0.00  0.00    +0.308 C 
ATOM     25  O   UNL     1      17.197  12.603   0.686  0.00  0.00    -0.251 OA
BRANCH  24  26
ATOM     26  C   UNL     1      15.207  11.555   1.580  0.00  0.00    +0.120 C 
BRANCH  26  27
ATOM     27  C   UNL     1      14.526  11.737   0.222  0.00  0.00    +0.011 C 
BRANCH  27  28
ATOM     28  C   UNL     1      15.039  10.749  -0.832  0.00  0.00    +0.001 C 
BRANCH  28  29
ATOM     29  C   UNL     1      14.343  10.970  -2.174  0.00  0.00    +0.000 C 
BRANCH  29  30
ATOM     30  C   UNL     1      14.872  10.008  -3.236  0.00  0.00    +0.000 C 
BRANCH  30  31
ATOM     31  C   UNL     1      14.171  10.230  -4.574  0.00  0.00    +0.000 C 
BRANCH  31  32
ATOM     32  C   UNL     1      14.695   9.266  -5.635  0.00  0.00    -0.000 C 
BRANCH  32  33
ATOM     33  C   UNL     1      13.992   9.484  -6.974  0.00  0.00    -0.000 C 
BRANCH  33  34
ATOM     34  C   UNL     1      14.518   8.515  -8.030  0.00  0.00    -0.000 C 
BRANCH  34  35
ATOM     35  C   UNL     1      13.818   8.727  -9.370  0.00  0.00    -0.000 C 
BRANCH  35  36
ATOM     36  C   UNL     1      14.347   7.755 -10.421  0.00  0.00    -0.000 C 
BRANCH  36  37
ATOM     37  C   UNL     1      13.652   7.964 -11.765  0.00  0.00    -0.000 C 
BRANCH  37  38
ATOM     38  C   UNL     1      14.184   6.991 -12.815  0.00  0.00    -0.000 C 
BRANCH  38  40
ATOM     39  C   UNL     1      14.019   6.228 -15.206  0.00  0.00    +0.004 C 
ATOM     40  C   UNL     1      13.491   7.195 -14.160  0.00  0.00    -0.003 C 
ENDBRANCH  38  40
ENDBRANCH  37  38
ENDBRANCH  36  37
ENDBRANCH  35  36
ENDBRANCH  34  35
ENDBRANCH  33  34
ENDBRANCH  32  33
ENDBRANCH  31  32
ENDBRANCH  30  31
ENDBRANCH  29  30
ENDBRANCH  28  29
ENDBRANCH  27  28
ENDBRANCH  26  27
ENDBRANCH  24  26
ENDBRANCH  23  24
ENDBRANCH   1  23
BRANCH   1  41
ATOM     41  C   UNL     1      19.294  12.638   2.860  0.00  0.00    +0.216 C 
BRANCH  41  42
ATOM     42  O   UNL     1      18.791  12.978   4.148  0.00  0.00    -0.324 OA
BRANCH  42  43
ATOM     43  P   UNL     1      19.091  14.494   4.604  0.00  0.00    +0.213 P 
ATOM     44  O   UNL     1      18.221  15.447   3.834  0.00  0.00    -0.517 OA
ATOM     45  O   UNL     1      20.580  14.702   4.704  0.00  0.00    -0.437 OA
BRANCH  43  46
ATOM     46  O   UNL     1      18.491  14.453   6.114  0.00  0.00    -0.322 OA
BRANCH  46  47
ATOM     47  C   UNL     1      19.362  14.813   7.168  0.00  0.00    +0.218 C 
BRANCH  47  48
ATOM     48  C   UNL     1      19.927  16.246   7.078  0.00  0.00    +0.161 C 
BRANCH  48  49
ATOM     49  N   UNL     1      18.884  17.403   7.176  0.00  0.00    +0.239 N 
ATOM     50  C   UNL     1      17.924  17.365   5.982  0.00  0.00    +0.192 C 
ATOM     51  C   UNL     1      19.655  18.713   7.087  0.00  0.00    +0.192 C 
ATOM     52  C   UNL     1      18.100  17.347   8.461  0.00  0.00    +0.192 C 
ENDBRANCH  48  49
ENDBRANCH  47  48
ENDBRANCH  46  47
ENDBRANCH  43  46
ENDBRANCH  42  43
ENDBRANCH  41  42
ENDBRANCH   1  41
TORSDOF 41
