REMARK  Name = 
REMARK  9 active torsions:
REMARK  status: ('A' for Active; 'I' for Inactive)
REMARK    1  A    between atoms: C_1  and  C_2
REMARK    2  A    between atoms: N_4  and  C_5
REMARK    3  A    between atoms: C_8  and  O_9
REMARK    4  A    between atoms: O_9  and  C_10
REMARK    5  A    between atoms: C_10  and  C_12
REMARK    6  A    between atoms: C_12  and  C_13
REMARK    7  A    between atoms: C_13  and  C_14
REMARK    8  A    between atoms: C_14  and  O_15
REMARK    9  A    between atoms: O_15  and  N_16
REMARK                            x       y       z     vdW  Elec       q    Type
REMARK                         _______ _______ _______ _____ _____    ______ ____
ROOT
ATOM      1  C   UNL     1       4.707  -0.207  -1.350  0.00  0.00    +0.034 A 
ATOM      2  C   UNL     1       5.350   0.533  -0.349  0.00  0.00    +0.027 A 
ATOM      3  C   UNL     1       6.744   0.503  -0.216  0.00  0.00    +0.048 A 
ATOM      4  C   UNL     1       7.505  -0.249  -1.107  0.00  0.00    +0.132 A 
ATOM      5  C   UNL     1       6.881  -0.972  -2.121  0.00  0.00    +0.048 A 
ATOM      6  C   UNL     1       5.488  -0.946  -2.243  0.00  0.00    +0.027 A 
ENDROOT
BRANCH   1   9
ATOM      7  C   UNL     1       1.007  -0.714  -1.887  0.00  0.00    +0.109 C 
ATOM      8  C   UNL     1       2.466  -0.917  -2.208  0.00  0.00    +0.214 C 
ATOM      9  N   UNL     1       3.297  -0.186  -1.374  0.00  0.00    -0.286 N 
ATOM     10  H   UNL     1       2.846   0.387  -0.671  0.00  0.00    +0.155 HD
ATOM     11  O   UNL     1       2.806  -1.675  -3.107  0.00  0.00    -0.276 OA
ENDBRANCH   1   9
BRANCH   4  12
ATOM     12  O   UNL     1       8.903  -0.406  -1.013  0.00  0.00    -0.426 OA
BRANCH  12  13
ATOM     13  C   UNL     1       9.720   0.584  -0.474  0.00  0.00    +0.312 C 
ATOM     14  O   UNL     1       9.379   1.695  -0.092  0.00  0.00    -0.250 OA
BRANCH  13  15
ATOM     15  C   UNL     1      11.158   0.131  -0.502  0.00  0.00    +0.124 C 
BRANCH  15  16
ATOM     16  C   UNL     1      11.826   0.458  -1.832  0.00  0.00    +0.059 C 
BRANCH  16  17
ATOM     17  C   UNL     1      11.805   1.948  -2.181  0.00  0.00    +0.321 C 
BRANCH  17  18
ATOM     18  O   UNL     1      12.483   2.102  -3.426  0.00  0.00    -0.217 OA
BRANCH  18  19
ATOM     19  N   UNL     1      12.471   3.438  -3.892  0.00  0.00    +0.284 N 
ATOM     20  O   UNL     1      13.020   3.563  -4.985  0.00  0.00    +0.093 OA
ATOM     21  O   UNL     1      11.941   4.284  -3.172  0.00  0.00    -0.534 OA
ENDBRANCH  18  19
ENDBRANCH  17  18
ENDBRANCH  16  17
ENDBRANCH  15  16
ENDBRANCH  13  15
ENDBRANCH  12  13
ENDBRANCH   4  12
TORSDOF 8
