REMARK  Name = 
REMARK  5 active torsions:
REMARK  status: ('A' for Active; 'I' for Inactive)
REMARK    1  A    between atoms: C_1  and  C_2
REMARK    2  A    between atoms: C_2  and  O_3
REMARK    3  A    between atoms: C_2  and  C_4
REMARK    4  A    between atoms: C_2  and  C_24
REMARK    5  A    between atoms: N_6  and  C_7
REMARK                            x       y       z     vdW  Elec       q    Type
REMARK                         _______ _______ _______ _____ _____    ______ ____
ROOT
ATOM      1  C   UNL     1       3.095  -3.882  -0.128  0.00  0.00    +0.046 A 
ATOM      2  C   UNL     1       4.144  -4.053  -1.072  0.00  0.00    +0.069 A 
ATOM      3  C   UNL     1       5.019  -2.878  -1.350  0.00  0.00    +0.204 C 
ATOM      4  C   UNL     1       5.491  -2.537  -2.687  0.00  0.00    +0.064 A 
ATOM      5  S   UNL     1       5.906  -0.881  -2.948  0.00  0.00    -0.093 S 
ATOM      6  C   UNL     1       6.431  -1.171  -4.537  0.00  0.00    +0.046 A 
ATOM      7  C   UNL     1       6.287  -2.492  -4.883  0.00  0.00    +0.013 A 
ATOM      8  C   UNL     1       5.727  -3.297  -3.826  0.00  0.00    -0.008 A 
ATOM      9  C   UNL     1       5.515  -4.764  -3.989  0.00  0.00    +0.208 C 
ATOM     10  S   UNL     1       5.811  -5.736  -2.541  0.00  0.00    +0.002 S 
ATOM     11  O   UNL     1       7.023  -5.302  -1.874  0.00  0.00    -0.169 OA
ATOM     12  O   UNL     1       5.646  -7.127  -2.937  0.00  0.00    -0.169 OA
ATOM     13  O   UNL     1       5.312  -2.207  -0.356  0.00  0.00    -0.286 OA
ATOM     14  C   UNL     1       4.474  -5.364  -1.442  0.00  0.00    +0.101 A 
ATOM     15  C   UNL     1       3.801  -6.466  -0.876  0.00  0.00    +0.028 A 
ATOM     16  C   UNL     1       2.824  -6.278   0.094  0.00  0.00    +0.004 A 
ATOM     17  C   UNL     1       2.484  -4.986   0.475  0.00  0.00    +0.024 A 
ENDROOT
BRANCH   1  19
ATOM     18  C   UNL     1       2.152  -1.663  -0.609  0.00  0.00    +0.258 C 
ATOM     19  N   UNL     1       2.585  -2.628   0.291  0.00  0.00    -0.282 N 
ATOM     20  H   UNL     1       2.134  -2.625   1.196  0.00  0.00    +0.155 HD
ATOM     21  O   UNL     1       2.128  -1.867  -1.825  0.00  0.00    -0.272 OA
BRANCH  18  23
ATOM     22  C   UNL     1       1.723  -0.228   1.513  0.00  0.00    +0.061 C 
ATOM     23  C   UNL     1       1.481  -0.422   0.013  0.00  0.00    +0.234 C 
BRANCH  23  24
ATOM     24  C   UNL     1       1.949   0.815  -0.783  0.00  0.00    +0.427 C 
ATOM     25  F   UNL     1       0.939   1.284  -1.561  0.00  0.00    -0.167 F 
ATOM     26  F   UNL     1       3.001   0.590  -1.596  0.00  0.00    -0.167 F 
ATOM     27  F   UNL     1       2.310   1.837   0.035  0.00  0.00    -0.167 F 
ENDBRANCH  23  24
BRANCH  23  28
ATOM     28  O   UNL     1       0.051  -0.659  -0.113  0.00  0.00    -0.373 OA
ATOM     29  H   UNL     1      -0.163  -0.561  -1.064  0.00  0.00    +0.211 HD
ENDBRANCH  23  28
ENDBRANCH  18  23
ENDBRANCH   1  19
TORSDOF 4
