REMARK  Name = 
REMARK  4 active torsions:
REMARK  status: ('A' for Active; 'I' for Inactive)
REMARK    1  A    between atoms: O_1  and  C_2
REMARK    2  A    between atoms: C_2  and  C_4
REMARK    3  A    between atoms: N_6  and  C_7
REMARK    4  A    between atoms: C_12  and  N_13
REMARK                            x       y       z     vdW  Elec       q    Type
REMARK                         _______ _______ _______ _____ _____    ______ ____
ROOT
ATOM      1  C   UNL     1       3.224   0.323   1.211  0.00  0.00    +0.122 A 
ATOM      2  C   UNL     1       3.770  -0.809   1.992  0.00  0.00    +0.203 A 
ATOM      3  O   UNL     1       3.677  -1.956   1.561  0.00  0.00    -0.286 OA
ATOM      4  C   UNL     1       4.395  -0.523   3.302  0.00  0.00    +0.049 A 
ATOM      5  C   UNL     1       4.502   0.806   3.735  0.00  0.00    +0.055 A 
ATOM      6  C   UNL     1       5.065   1.037   5.000  0.00  0.00    +0.052 A 
ATOM      7  C   UNL     1       5.535   0.004   5.834  0.00  0.00    +0.067 A 
ATOM      8  C   UNL     1       5.422  -1.305   5.335  0.00  0.00    +0.145 A 
ATOM      9  F   UNL     1       5.832  -2.353   6.067  0.00  0.00    -0.204 F 
ATOM     10  N   UNL     1       4.059   1.863   2.888  0.00  0.00    -0.343 N 
ATOM     11  C   UNL     1       4.858  -1.577   4.091  0.00  0.00    +0.054 A 
ATOM     12  C   UNL     1       3.401   1.555   1.711  0.00  0.00    +0.105 A 
ENDROOT
BRANCH   7  13
ATOM     13  N   UNL     1       6.135   0.335   7.036  0.00  0.00    -0.325 N 
ATOM     14  C   UNL     1       5.492   1.285   7.961  0.00  0.00    +0.120 C 
ATOM     15  C   UNL     1       6.585   2.142   8.638  0.00  0.00    +0.100 C 
ATOM     16  N   UNL     1       7.611   1.339   9.333  0.00  0.00    -0.313 NA
ATOM     17  H   UNL     1       8.366   1.956   9.631  0.00  0.00    +0.122 HD
ATOM     18  C   UNL     1       8.165   0.321   8.414  0.00  0.00    +0.100 C 
ATOM     19  C   UNL     1       7.096  -0.553   7.708  0.00  0.00    +0.120 C 
ENDBRANCH   7  13
BRANCH  10  20
ATOM     20  C   UNL     1       4.127   3.273   3.320  0.00  0.00    +0.087 C 
ATOM     21  C   UNL     1       4.537   4.405   2.411  0.00  0.00    +0.027 C 
ATOM     22  C   UNL     1       5.463   3.958   3.496  0.00  0.00    +0.027 C 
ENDBRANCH  10  20
BRANCH   1  23
ATOM     23  C   UNL     1       2.504   0.156  -0.068  0.00  0.00    +0.342 C 
ATOM     24  O   UNL     1       2.047   1.089  -0.707  0.00  0.00    -0.245 OA
BRANCH  23  25
ATOM     25  O   UNL     1       2.382  -1.126  -0.480  0.00  0.00    -0.477 OA
ATOM     26  H   UNL     1       2.807  -1.787   0.120  0.00  0.00    +0.295 HD
ENDBRANCH  23  25
ENDBRANCH   1  23
TORSDOF 4
