REMARK  Name = 
REMARK  7 active torsions:
REMARK  status: ('A' for Active; 'I' for Inactive)
REMARK    1  A    between atoms: C_1  and  C_2
REMARK    2  A    between atoms: C_2  and  C_3
REMARK    3  A    between atoms: C_2  and  N_4
REMARK    4  A    between atoms: C_5  and  C_7
REMARK    5  A    between atoms: C_7  and  C_8
REMARK    6  A    between atoms: C_14  and  C_16
REMARK    7  A    between atoms: C_20  and  N_23
REMARK                            x       y       z     vdW  Elec       q    Type
REMARK                         _______ _______ _______ _____ _____    ______ ____
ROOT
ATOM      1  C   UNL     1       6.679  -0.462   3.184  0.00  0.00    +0.030 C 
ATOM      2  C   UNL     1       7.024  -1.679   4.057  0.00  0.00    -0.022 A 
ATOM      3  C   UNL     1       6.658  -2.992   3.681  0.00  0.00    +0.040 A 
ATOM      4  C   UNL     1       7.047  -4.106   4.438  0.00  0.00    +0.024 A 
ATOM      5  C   UNL     1       7.694  -3.929   5.656  0.00  0.00    +0.002 A 
ATOM      6  C   UNL     1       7.909  -2.642   6.133  0.00  0.00    +0.000 A 
ATOM      7  N   UNL     1       5.744  -3.204   2.626  0.00  0.00    -0.267 N 
ATOM      8  C   UNL     1       4.342  -3.351   2.790  0.00  0.00    +0.252 C 
ATOM      9  O   UNL     1       3.589  -3.322   1.819  0.00  0.00    -0.270 OA
ATOM     10  C   UNL     1       6.275  -2.995   1.288  0.00  0.00    +0.114 C 
ATOM     11  C   UNL     1       6.200  -1.540   0.859  0.00  0.00    +0.020 C 
ATOM     12  C   UNL     1       7.587  -1.534   5.342  0.00  0.00    +0.006 A 
ATOM     13  C   UNL     1       7.093  -0.626   1.696  0.00  0.00    +0.010 C 
ENDROOT
BRANCH   8  14
ATOM     14  C   UNL     1       3.705  -3.516   4.147  0.00  0.00    +0.056 A 
ATOM     15  C   UNL     1       4.134  -2.757   5.232  0.00  0.00    +0.016 A 
ATOM     16  C   UNL     1       3.595  -2.902   6.512  0.00  0.00    +0.024 A 
ATOM     17  C   UNL     1       2.482  -3.698   6.763  0.00  0.00    +0.031 A 
ATOM     18  C   UNL     1       2.008  -4.427   5.661  0.00  0.00    +0.044 A 
ATOM     19  C   UNL     1       2.606  -4.353   4.377  0.00  0.00    +0.055 A 
ATOM     20 CL   UNL     1       1.898  -5.352   3.151  0.00  0.00    -0.083 Cl
BRANCH  17  21
ATOM     21  N   UNL     1       1.905  -3.730   8.014  0.00  0.00    -0.330 N 
ATOM     22  C   UNL     1       2.282  -2.764   9.057  0.00  0.00    +0.105 C 
ATOM     23  C   UNL     1       1.096  -2.707  10.014  0.00  0.00    +0.020 C 
ATOM     24  C   UNL     1      -0.051  -3.327   9.237  0.00  0.00    +0.020 C 
ATOM     25  C   UNL     1       0.626  -4.351   8.334  0.00  0.00    +0.105 C 
ENDBRANCH  17  21
ENDBRANCH   8  14
BRANCH   1  26
ATOM     26  C   UNL     1       7.233   0.899   3.692  0.00  0.00    +0.104 C 
BRANCH  26  29
ATOM     27  N   UNL     1       9.230   2.187   4.215  0.00  0.00    -0.313 N 
ATOM     28  H   UNL     1       8.589   2.963   4.316  0.00  0.00    +0.149 HD
ATOM     29  C   UNL     1       8.754   0.997   3.705  0.00  0.00    +0.214 C 
ATOM     30  O   UNL     1       9.504   0.109   3.316  0.00  0.00    -0.276 OA
BRANCH  27  32
ATOM     31  C   UNL     1      11.124   3.062   2.918  0.00  0.00    +0.027 C 
ATOM     32  C   UNL     1      10.663   2.459   4.242  0.00  0.00    +0.067 C 
ATOM     33  C   UNL     1      11.005   3.369   5.414  0.00  0.00    +0.027 C 
ENDBRANCH  27  32
ENDBRANCH  26  29
ENDBRANCH   1  26
TORSDOF 5
