REMARK  Name = 
REMARK  28 active torsions:
REMARK  status: ('A' for Active; 'I' for Inactive)
REMARK    1  A    between atoms: CG_4  and  OD_6
REMARK    2  A    between atoms: CA_11  and  CB_85
REMARK    3  A    between atoms: CA_16  and  N_61
REMARK    4  A    between atoms: C_18  and  N_57
REMARK    5  A    between atoms: C_25  and  O_27
REMARK    6  A    between atoms: C_28  and  C_30
REMARK    7  A    between atoms: CA_35  and  C_37
REMARK    8  A    between atoms: C_37  and  O_38
REMARK    9  A    between atoms: CA_42  and  C_47
REMARK   10  A    between atoms: C_47  and  O_49
REMARK   11  A    between atoms: C_47  and  C_50
REMARK   12  A    between atoms: C_50  and  C_51
REMARK   13  A    between atoms: N_57  and  C_58
REMARK   14  A    between atoms: C_58  and  C_59
REMARK   15  A    between atoms: C_59  and  N_60
REMARK   16  A    between atoms: C_62  and  C_64
REMARK   17  A    between atoms: C_67  and  C_70
REMARK   18  A    between atoms: C_73  and  O_74
REMARK   19  A    between atoms: O_74  and  C_75
REMARK   20  A    between atoms: C_75  and  C_76
REMARK   21  A    between atoms: C_76  and  C_77
REMARK   22  A    between atoms: C_77  and  C_78
REMARK   23  A    between atoms: C_78  and  C_79
REMARK   24  A    between atoms: C_79  and  C_80
REMARK   25  A    between atoms: C_80  and  C_81
REMARK   26  A    between atoms: C_81  and  C_82
REMARK   27  A    between atoms: CB_85  and  CG2_87
REMARK   28  A    between atoms: CB_85  and  OG1_88
REMARK                            x       y       z     vdW  Elec       q    Type
REMARK                         _______ _______ _______ _____ _____    ______ ____
ROOT
ATOM      1  CA  HYP A   3      -0.005   4.072  -4.783  0.00  0.00    +0.164 C 
ATOM      2  C   HYP A   3      -0.831   4.049  -3.439  0.00  0.00    +0.234 C 
ATOM      3  O   HYP A   3      -1.460   5.039  -3.062  0.00  0.00    -0.274 OA
ATOM      4  N   UNK A   1      -0.806   2.922  -2.605  0.00  0.00    -0.300 N 
ATOM      5  H   UNK A   1      -1.322   3.067  -1.746  0.00  0.00    +0.150 HD
ATOM      6  C   UNK A   1      -0.329   1.510  -2.873  0.00  0.00    +0.188 C 
ATOM      7  C   UNK A   1      -0.303   1.506  -4.344  0.00  0.00    +0.237 C 
ATOM      8  O   UNK A   1      -1.440   1.698  -4.836  0.00  0.00    -0.274 OA
ATOM      9  N   UNK A   2       0.654   1.686  -5.263  0.00  0.00    -0.300 N 
ATOM     10  H   UNK A   2       0.126   2.322  -5.787  0.00  0.00    +0.150 HD
ATOM     11  C   UNK A   2       1.923   1.813  -6.132  0.00  0.00    +0.185 C 
ATOM     12  C   UNK A   2       3.005   2.505  -5.417  0.00  0.00    +0.239 C 
ATOM     13  O   UNK A   2       3.744   3.333  -5.938  0.00  0.00    -0.273 OA
ATOM     14  N   UNK A   2       3.128   1.977  -4.173  0.00  0.00    -0.285 N 
ATOM     15  C   UNK A   2       4.122   0.921  -4.008  0.00  0.00    +0.190 C 
ATOM     16  C   UNK A   2       4.983   1.470  -2.858  0.00  0.00    +0.148 C 
ATOM     17  C   UNK A   2       3.976   2.273  -2.016  0.00  0.00    +0.034 C 
ATOM     18  C   UNK A   2       4.520   3.313  -1.062  0.00  0.00    +0.012 C 
ATOM     19  C   UNK A   2       3.408  -0.414  -3.652  0.00  0.00    +0.236 C 
ATOM     20  O   UNK A   2       2.739  -0.500  -2.615  0.00  0.00    -0.274 OA
ATOM     21  N   UNK A   2       3.384  -1.496  -4.502  0.00  0.00    -0.312 N 
ATOM     22  H   UNK A   2       2.831  -2.251  -4.106  0.00  0.00    +0.149 HD
ATOM     23  C   UNK A   2       4.110  -1.779  -5.730  0.00  0.00    +0.123 C 
ATOM     24  C   UNK A   2       3.530  -2.827  -6.770  0.00  0.00    +0.073 C 
ATOM     25  C   UNK A   2       2.046  -2.792  -7.323  0.00  0.00    +0.052 C 
ATOM     26  C   UNK A   2       0.894  -2.915  -6.337  0.00  0.00    +0.161 C 
ATOM     27  C   UNK A   2       0.480  -1.629  -5.644  0.00  0.00    +0.234 C 
ATOM     28  O   UNK A   2       0.738  -1.620  -4.419  0.00  0.00    -0.274 OA
ATOM     29  N   UNK A   2      -0.116  -0.492  -6.047  0.00  0.00    -0.300 N 
ATOM     30  H   UNK A   2      -0.414  -0.232  -5.128  0.00  0.00    +0.150 HD
ATOM     31  C   UNK A   2      -0.931   0.574  -7.051  0.00  0.00    +0.187 C 
ATOM     32  C   UNK A   2      -0.930   2.457  -7.280  0.00  0.00    +0.239 C 
ATOM     33  O   UNK A   2      -1.256   2.816  -8.428  0.00  0.00    -0.273 OA
ATOM     34  C   UNK A   2       3.165   2.949  -3.087  0.00  0.00    +0.114 C 
ATOM     35  N   HYP A   3      -0.539   3.670  -6.320  0.00  0.00    -0.286 N 
ATOM     36  CD  HYP A   3      -0.480   4.983  -7.031  0.00  0.00    +0.140 C 
ATOM     37  CG  HYP A   3       0.120   6.086  -6.098  0.00  0.00    +0.134 C 
ATOM     38  CB  HYP A   3       0.791   5.368  -4.965  0.00  0.00    +0.065 C 
ENDROOT
BRANCH  26  39
ATOM     39  N   UNK A   2      -0.333  -3.527  -6.834  0.00  0.00    -0.300 N 
ATOM     40  H   UNK A   1      -1.145  -2.920  -6.933  0.00  0.00    +0.150 HD
ATOM     41  C   UNK A   0      -0.511  -4.900  -6.808  0.00  0.00    +0.245 C 
ATOM     42  O   UNK A   0       0.389  -5.702  -6.598  0.00  0.00    -0.270 OA
BRANCH  41  43
ATOM     43  C   UNK A   0      -1.892  -5.379  -7.098  0.00  0.00    +0.037 A 
ATOM     44  C   UNK A   0      -3.021  -4.641  -6.729  0.00  0.00    +0.013 A 
ATOM     45  C   UNK A   0      -4.293  -5.025  -7.154  0.00  0.00    +0.009 A 
ATOM     46  C   UNK A   0      -4.473  -6.167  -7.948  0.00  0.00    -0.018 A 
ATOM     47  C   UNK A   0      -3.331  -6.950  -8.227  0.00  0.00    +0.009 A 
ATOM     48  C   UNK A   0      -2.057  -6.573  -7.794  0.00  0.00    +0.013 A 
BRANCH  46  49
ATOM     49  C   UNK A   0      -5.789  -6.523  -8.516  0.00  0.00    -0.018 A 
ATOM     50  C   UNK A   0      -6.722  -5.554  -8.933  0.00  0.00    +0.012 A 
ATOM     51  C   UNK A   0      -7.893  -5.914  -9.615  0.00  0.00    +0.046 A 
ATOM     52  C   UNK A   0      -8.147  -7.251  -9.905  0.00  0.00    +0.121 A 
ATOM     53  C   UNK A   0      -7.269  -8.223  -9.426  0.00  0.00    +0.046 A 
ATOM     54  C   UNK A   0      -6.118  -7.865  -8.734  0.00  0.00    +0.012 A 
BRANCH  52  55
ATOM     55  O   UNK A   0      -9.254  -7.515 -10.676  0.00  0.00    -0.492 OA
BRANCH  55  56
ATOM     56  C   UNK A   0      -9.333  -8.878 -11.089  0.00  0.00    +0.229 C 
BRANCH  56  57
ATOM     57  C   UNK A   0     -10.499  -9.119 -12.027  0.00  0.00    +0.041 C 
BRANCH  57  58
ATOM     58  C   UNK A   0     -10.552 -10.611 -12.353  0.00  0.00    +0.003 C 
BRANCH  58  59
ATOM     59  C   UNK A   0     -11.715 -10.936 -13.274  0.00  0.00    +0.000 C 
BRANCH  59  60
ATOM     60  C   UNK A   0     -11.768 -12.431 -13.579  0.00  0.00    -0.000 C 
BRANCH  60  61
ATOM     61  C   UNK A   0     -12.942 -12.737 -14.504  0.00  0.00    -0.000 C 
BRANCH  61  62
ATOM     62  C   UNK A   0     -13.023 -14.225 -14.828  0.00  0.00    -0.003 C 
ATOM     63  C   UNK A   0     -14.195 -14.515 -15.750  0.00  0.00    +0.004 C 
ENDBRANCH  61  62
ENDBRANCH  60  61
ENDBRANCH  59  60
ENDBRANCH  58  59
ENDBRANCH  57  58
ENDBRANCH  56  57
ENDBRANCH  55  56
ENDBRANCH  52  55
ENDBRANCH  46  49
ENDBRANCH  41  43
ENDBRANCH  26  39
BRANCH  37  64
ATOM     64  OD  HYP A   3       1.069   6.917  -6.773  0.00  0.00    -0.390 OA
ATOM     65  HD  HYP A   3       1.972   6.749  -6.444  0.00  0.00    +0.210 HD
ENDBRANCH  37  64
BRANCH  31  66
ATOM     66  C   UNK A   2      -2.407   0.101  -6.825  0.00  0.00    +0.141 C 
ATOM     67  C   UNK A   2      -3.345   0.381  -7.968  0.00  0.00    +0.040 C 
BRANCH  66  68
ATOM     68  O   UNK A   2      -2.470  -1.323  -6.559  0.00  0.00    -0.390 OA
ATOM     69  H   UNK A   2      -2.718  -1.402  -5.614  0.00  0.00    +0.210 HD
ENDBRANCH  66  68
ENDBRANCH  31  66
BRANCH  24  70
ATOM     70  N   UNK A   2       4.325  -2.764  -8.032  0.00  0.00    -0.311 NA
ATOM     71  H   UNK A   2       4.076  -1.901  -8.521  0.00  0.00    +0.122 HD
BRANCH  70  72
ATOM     72  C   UNK A   2       5.784  -2.766  -7.870  0.00  0.00    +0.096 C 
BRANCH  72  73
ATOM     73  C   UNK A   2       6.502  -2.561  -9.219  0.00  0.00    +0.092 C 
BRANCH  73  74
ATOM     74  N   UNK A   2       6.110  -1.299  -9.860  0.00  0.00    -0.329 NA
ATOM     75  H   UNK A   2       6.607  -1.211 -10.746  0.00  0.00    +0.118 HD
ATOM     76  H   UNK A   2       5.124  -1.348 -10.111  0.00  0.00    +0.118 HD
ENDBRANCH  73  74
ENDBRANCH  72  73
ENDBRANCH  70  72
ENDBRANCH  24  70
BRANCH  16  77
ATOM     77  O   UNK A   2       5.987   2.368  -3.352  0.00  0.00    -0.389 OA
ATOM     78  H   UNK A   2       6.313   2.057  -4.214  0.00  0.00    +0.210 HD
ENDBRANCH  16  77
BRANCH  11  79
ATOM     79  C   UNK A   2       2.361   0.645  -6.968  0.00  0.00    +0.187 C 
BRANCH  79  80
ATOM     80  O   UNK A   2       3.541   0.857  -7.732  0.00  0.00    -0.393 OA
ATOM     81  H   UNK A   2       3.823   1.791  -7.687  0.00  0.00    +0.209 HD
ENDBRANCH  79  80
ENDBRANCH  11  79
BRANCH   6  82
ATOM     82  C   UNK A   1      -1.389   0.379  -2.426  0.00  0.00    +0.148 C 
BRANCH  82  83
ATOM     83  O   UNK A   1      -1.186  -0.827  -3.175  0.00  0.00    -0.389 OA
ATOM     84  H   UNK A   1      -0.307  -1.215  -2.977  0.00  0.00    +0.210 HD
ENDBRANCH  82  83
BRANCH  82  85
ATOM     85  C   UNK A   1      -2.926   0.658  -2.590  0.00  0.00    +0.068 C 
BRANCH  85  86
ATOM     86  C   UNK A   1      -3.921  -0.439  -2.163  0.00  0.00    -0.045 A 
ATOM     87  C   UNK A   1      -5.289  -0.263  -2.458  0.00  0.00    +0.004 A 
ATOM     88  C   UNK A   1      -6.238  -1.247  -2.147  0.00  0.00    +0.000 A 
ATOM     89  C   UNK A   1      -5.842  -2.433  -1.537  0.00  0.00    +0.000 A 
ATOM     90  C   UNK A   1      -4.498  -2.626  -1.233  0.00  0.00    +0.000 A 
ATOM     91  C   UNK A   1      -3.549  -1.638  -1.537  0.00  0.00    +0.004 A 
ENDBRANCH  85  86
ENDBRANCH  82  85
ENDBRANCH   6  82
TORSDOF 25
