REMARK  Name = 
REMARK  10 active torsions:
REMARK  status: ('A' for Active; 'I' for Inactive)
REMARK    1  A    between atoms: C_1  and  C_2
REMARK    2  A    between atoms: C_3  and  C_28
REMARK    3  A    between atoms: N_4  and  C_5
REMARK    4  A    between atoms: C_5  and  C_6
REMARK    5  A    between atoms: C_9  and  O_10
REMARK    6  A    between atoms: O_10  and  C_11
REMARK    7  A    between atoms: C_11  and  C_12
REMARK    8  A    between atoms: C_12  and  N_13
REMARK    9  A    between atoms: C_24  and  O_25
REMARK   10  A    between atoms: C_31  and  O_32
REMARK                            x       y       z     vdW  Elec       q    Type
REMARK                         _______ _______ _______ _____ _____    ______ ____
ROOT
ATOM      1  C   UNL     1       1.057   0.360   0.597  0.00  0.00    +0.046 C 
ATOM      2  C   UNL     1       2.493   0.131   0.248  0.00  0.00    -0.017 A 
ATOM      3  C   UNL     1       3.296   1.182  -0.292  0.00  0.00    +0.007 A 
ATOM      4  C   UNL     1       3.044   2.562  -0.514  0.00  0.00    +0.055 A 
ATOM      5  C   UNL     1       3.974   3.318  -1.226  0.00  0.00    +0.118 A 
ATOM      6  C   UNL     1       5.088   2.729  -1.778  0.00  0.00    +0.047 A 
ATOM      7  C   UNL     1       5.324   1.363  -1.574  0.00  0.00    +0.030 A 
ATOM      8  C   UNL     1       4.479   0.607  -0.755  0.00  0.00    +0.050 A 
ATOM      9  N   UNL     1       4.541  -0.680  -0.220  0.00  0.00    -0.335 N 
ATOM     10  C   UNL     1       3.267  -1.038   0.278  0.00  0.00    +0.053 A 
ENDROOT
BRANCH  10  11
ATOM     11  C   UNL     1       2.862  -2.400   0.729  0.00  0.00    -0.001 A 
ATOM     12  C   UNL     1       1.977  -2.563   1.806  0.00  0.00    +0.013 A 
ATOM     13  C   UNL     1       1.494  -3.822   2.182  0.00  0.00    +0.046 A 
ATOM     14  C   UNL     1       1.950  -4.954   1.529  0.00  0.00    +0.117 A 
ATOM     15  C   UNL     1       2.867  -4.841   0.494  0.00  0.00    +0.046 A 
ATOM     16  C   UNL     1       3.293  -3.569   0.078  0.00  0.00    +0.013 A 
BRANCH  14  17
ATOM     17  O   UNL     1       1.467  -6.161   1.934  0.00  0.00    -0.507 OA
ATOM     18  H   UNL     1       1.829  -6.854   1.358  0.00  0.00    +0.292 HD
ENDBRANCH  14  17
ENDBRANCH  10  11
BRANCH   5  19
ATOM     19  O   UNL     1       3.797   4.656  -1.426  0.00  0.00    -0.507 OA
ATOM     20  H   UNL     1       3.019   4.942  -0.919  0.00  0.00    +0.292 HD
ENDBRANCH   5  19
BRANCH   9  21
ATOM     21  C   UNL     1       5.731  -1.565  -0.176  0.00  0.00    +0.157 C 
BRANCH  21  22
ATOM     22  C   UNL     1       7.072  -0.911   0.095  0.00  0.00    -0.028 A 
ATOM     23  C   UNL     1       7.843  -0.321  -0.917  0.00  0.00    +0.009 A 
ATOM     24  C   UNL     1       8.912   0.533  -0.611  0.00  0.00    +0.046 A 
ATOM     25  C   UNL     1       9.334   0.669   0.706  0.00  0.00    +0.121 A 
ATOM     26  C   UNL     1       8.725  -0.130   1.682  0.00  0.00    +0.046 A 
ATOM     27  C   UNL     1       7.588  -0.884   1.390  0.00  0.00    +0.009 A 
BRANCH  25  28
ATOM     28  O   UNL     1      10.323   1.602   0.950  0.00  0.00    -0.491 OA
BRANCH  28  29
ATOM     29  C   UNL     1      10.664   1.684   2.337  0.00  0.00    +0.244 C 
BRANCH  29  30
ATOM     30  C   UNL     1      11.694   2.766   2.693  0.00  0.00    +0.125 C 
BRANCH  30  31
ATOM     31  N   UNL     1      11.959   2.739   4.149  0.00  0.00    -0.299 NA
ATOM     32  C   UNL     1      12.655   3.932   4.640  0.00  0.00    +0.084 C 
ATOM     33  C   UNL     1      14.157   3.948   4.348  0.00  0.00    +0.015 C 
ATOM     34  C   UNL     1      14.837   2.667   4.821  0.00  0.00    +0.002 C 
ATOM     35  C   UNL     1      14.108   1.441   4.290  0.00  0.00    +0.015 C 
ATOM     36  C   UNL     1      12.621   1.515   4.630  0.00  0.00    +0.084 C 
ENDBRANCH  30  31
ENDBRANCH  29  30
ENDBRANCH  28  29
ENDBRANCH  25  28
ENDBRANCH  21  22
ENDBRANCH   9  21
TORSDOF 9
