REMARK  Name = 
REMARK  14 active torsions:
REMARK  status: ('A' for Active; 'I' for Inactive)
REMARK    1  A    between atoms: C_1  and  C_2
REMARK    2  A    between atoms: C_9  and  O_10
REMARK    3  A    between atoms: O_10  and  C_11
REMARK    4  A    between atoms: C_11  and  C_12
REMARK    5  A    between atoms: C_17  and  S_20
REMARK    6  A    between atoms: S_20  and  N_23
REMARK    7  A    between atoms: C_27  and  C_28
REMARK    8  A    between atoms: N_30  and  C_31
REMARK    9  A    between atoms: C_31  and  C_32
REMARK   10  A    between atoms: C_32  and  C_33
REMARK   11  A    between atoms: C_33  and  N_34
REMARK   12  A    between atoms: C_35  and  C_37
REMARK   13  A    between atoms: C_40  and  C_43
REMARK   14  A    between atoms: C_46  and  C_47
REMARK                            x       y       z     vdW  Elec       q    Type
REMARK                         _______ _______ _______ _____ _____    ______ ____
ROOT
ATOM      1  N   UNL     1       5.913   9.877  -1.057  0.00  0.00    -0.165 NA
ATOM      2  C   UNL     1       6.652   8.580  -1.362  0.00  0.00    +0.165 C 
ATOM      3  C   UNL     1       8.126   8.969  -1.557  0.00  0.00    +0.031 C 
ATOM      4  C   UNL     1       8.117  10.467  -1.756  0.00  0.00    +0.019 C 
ATOM      5  C   UNL     1       6.955  10.929  -0.897  0.00  0.00    +0.110 C 
ENDROOT
BRANCH   2   6
ATOM      6  C   UNL     1       6.102   7.720  -2.503  0.00  0.00    +0.232 C 
ATOM      7  N   UNL     1       4.819   7.249  -2.298  0.00  0.00    -0.314 N 
ATOM      8  H   UNL     1       4.237   7.714  -1.601  0.00  0.00    +0.149 HD
ATOM      9  O   UNL     1       6.787   7.340  -3.448  0.00  0.00    -0.274 OA
BRANCH   7  10
ATOM     10  C   UNL     1       4.233   6.176  -3.080  0.00  0.00    +0.106 C 
BRANCH  10  11
ATOM     11  C   UNL     1       4.559   4.782  -2.519  0.00  0.00    +0.037 C 
BRANCH  11  12
ATOM     12  C   UNL     1       3.972   4.558  -1.126  0.00  0.00    +0.106 C 
BRANCH  12  13
ATOM     13  N   UNL     1       4.242   3.221  -0.619  0.00  0.00    -0.311 N 
ATOM     14  H   UNL     1       5.160   3.045  -0.234  0.00  0.00    +0.149 HD
ATOM     15  C   UNL     1       3.378   2.161  -0.814  0.00  0.00    +0.244 C 
ATOM     16  O   UNL     1       2.342   2.234  -1.463  0.00  0.00    -0.270 OA
BRANCH  15  17
ATOM     17  C   UNL     1       3.794   0.862  -0.208  0.00  0.00    +0.037 A 
ATOM     18  C   UNL     1       3.434  -0.334  -0.843  0.00  0.00    +0.014 A 
ATOM     19  C   UNL     1       3.870  -1.564  -0.332  0.00  0.00    +0.016 A 
ATOM     20  C   UNL     1       4.659  -1.604   0.824  0.00  0.00    +0.065 A 
ATOM     21  C   UNL     1       4.957  -0.415   1.499  0.00  0.00    +0.016 A 
ATOM     22  C   UNL     1       4.526   0.814   0.986  0.00  0.00    +0.014 A 
BRANCH  20  23
ATOM     23  C   UNL     1       5.191  -2.907   1.326  0.00  0.00    +0.308 C 
ATOM     24  N   UNL     1       6.311  -3.005   1.969  0.00  0.00    -0.099 NA
ATOM     25  H   UNL     1       6.789  -2.104   2.036  0.00  0.00    +0.363 HD
ATOM     26  N   UNL     1       4.509  -4.065   1.109  0.00  0.00    -0.247 N 
ATOM     27  H   UNL     1       4.895  -4.820   1.669  0.00  0.00    +0.288 HD
ATOM     28  H   UNL     1       3.500  -4.011   1.168  0.00  0.00    +0.288 HD
ENDBRANCH  20  23
ENDBRANCH  15  17
ENDBRANCH  12  13
ENDBRANCH  11  12
ENDBRANCH  10  11
ENDBRANCH   7  10
ENDBRANCH   2   6
BRANCH   1  29
ATOM     29  S   UNL     1       4.813   9.699   0.241  0.00  0.00    +0.063 S 
ATOM     30  O   UNL     1       3.746   8.836  -0.209  0.00  0.00    -0.153 OA
ATOM     31  O   UNL     1       5.621   9.302   1.380  0.00  0.00    -0.153 OA
BRANCH  29  35
ATOM     32  C   UNL     1       3.146  13.460   0.028  0.00  0.00    +0.028 A 
ATOM     33  C   UNL     1       3.456  12.110  -0.299  0.00  0.00    +0.075 A 
ATOM     34 CL   UNL     1       2.941  11.471  -1.823  0.00  0.00    -0.081 Cl
ATOM     35  C   UNL     1       4.142  11.310   0.624  0.00  0.00    +0.124 A 
ATOM     36  C   UNL     1       4.357  11.786   1.928  0.00  0.00    +0.031 A 
ATOM     37  C   UNL     1       3.926  13.057   2.301  0.00  0.00    +0.022 A 
ATOM     38  C   UNL     1       3.345  13.898   1.353  0.00  0.00    +0.049 A 
ATOM     39 CL   UNL     1       2.944  15.498   1.878  0.00  0.00    -0.083 Cl
BRANCH  32  40
ATOM     40  C   UNL     1       2.786  14.470  -1.051  0.00  0.00    +0.267 C 
BRANCH  40  41
ATOM     41  O   UNL     1       1.387  14.695  -1.207  0.00  0.00    -0.485 OA
BRANCH  41  51
ATOM     42  C   UNL     1      -3.010  12.942  -2.607  0.00  0.00    +0.065 C 
ATOM     43  C   UNL     1      -2.106  13.985  -3.190  0.00  0.00    +0.039 A 
ATOM     44  C   UNL     1      -2.483  14.670  -4.332  0.00  0.00    +0.027 A 
ATOM     45  C   UNL     1      -1.655  15.680  -4.831  0.00  0.00    -0.039 A 
ATOM     46  C   UNL     1      -2.135  16.389  -6.072  0.00  0.00    +0.044 C 
ATOM     47  C   UNL     1      -0.457  15.987  -4.137  0.00  0.00    +0.007 A 
ATOM     48  C   UNL     1       0.417  17.024  -4.534  0.00  0.00    +0.010 A 
ATOM     49  C   UNL     1       1.569  17.317  -3.816  0.00  0.00    +0.004 A 
ATOM     50  C   UNL     1       1.891  16.560  -2.700  0.00  0.00    +0.048 A 
ATOM     51  C   UNL     1       1.070  15.492  -2.304  0.00  0.00    +0.147 A 
ATOM     52  C   UNL     1      -0.132  15.215  -2.985  0.00  0.00    +0.113 A 
ATOM     53  N   UNL     1      -0.949  14.236  -2.541  0.00  0.00    -0.248 NA
ENDBRANCH  41  51
ENDBRANCH  40  41
ENDBRANCH  32  40
ENDBRANCH  29  35
ENDBRANCH   1  29
TORSDOF 12
