REMARK  Name = 
REMARK  7 active torsions:
REMARK  status: ('A' for Active; 'I' for Inactive)
REMARK    1  A    between atoms: C_1  and  C_2
REMARK    2  A    between atoms: C_4  and  N_13
REMARK    3  A    between atoms: C_5  and  N_6
REMARK    4  A    between atoms: N_6  and  C_7
REMARK    5  A    between atoms: C_7  and  C_8
REMARK    6  A    between atoms: C_8  and  C_9
REMARK    7  A    between atoms: C_9  and  N_10
REMARK                            x       y       z     vdW  Elec       q    Type
REMARK                         _______ _______ _______ _____ _____    ______ ____
ROOT
ATOM      1  C   UNL     1       1.071  -0.001   0.004  0.00  0.00    +0.044 C 
ATOM      2  C   UNL     1       2.566   0.018  -0.110  0.00  0.00    -0.044 A 
ATOM      3  C   UNL     1       3.283  -1.178  -0.137  0.00  0.00    +0.005 A 
ATOM      4  C   UNL     1       4.679  -1.174  -0.255  0.00  0.00    +0.030 A 
ATOM      5  C   UNL     1       5.416   0.019  -0.373  0.00  0.00    +0.105 A 
ATOM      6  C   UNL     1       4.676   1.226  -0.319  0.00  0.00    +0.294 A 
ATOM      7  C   UNL     1       3.268   1.221  -0.201  0.00  0.00    +0.089 A 
ENDROOT
BRANCH   6   8
ATOM      8  N   UNL     1       5.334   2.543  -0.425  0.00  0.00    +0.082 N 
ATOM      9  O   UNL     1       6.554   2.582  -0.654  0.00  0.00    +0.042 OA
ATOM     10  O   UNL     1       4.626   3.555  -0.305  0.00  0.00    -0.576 OA
ENDBRANCH   6   8
BRANCH   5  11
ATOM     11  N   UNL     1       6.818  -0.017  -0.390  0.00  0.00    -0.339 N 
ATOM     12  H   UNL     1       7.216   0.898  -0.636  0.00  0.00    +0.146 HD
BRANCH  11  13
ATOM     13  C   UNL     1       7.528  -1.106  -1.058  0.00  0.00    +0.103 C 
BRANCH  13  14
ATOM     14  C   UNL     1       9.039  -0.868  -0.975  0.00  0.00    +0.033 C 
BRANCH  14  15
ATOM     15  C   UNL     1       9.532  -0.843   0.471  0.00  0.00    +0.079 C 
BRANCH  15  16
ATOM     16  N   UNL     1      10.979  -0.647   0.518  0.00  0.00    -0.330 NA
ATOM     17  H   UNL     1      11.277  -0.612   1.492  0.00  0.00    +0.118 HD
ATOM     18  H   UNL     1      11.451  -1.447   0.101  0.00  0.00    +0.118 HD
ENDBRANCH  15  16
ENDBRANCH  14  15
ENDBRANCH  13  14
ENDBRANCH  11  13
ENDBRANCH   5  11
TORSDOF 6
