REMARK  Name = 
REMARK  13 active torsions:
REMARK  status: ('A' for Active; 'I' for Inactive)
REMARK    1  A    between atoms: C_1  and  C_2
REMARK    2  A    between atoms: C_2  and  C_4
REMARK    3  A    between atoms: C_2  and  C_11
REMARK    4  A    between atoms: C_4  and  C_5
REMARK    5  A    between atoms: C_5  and  C_6
REMARK    6  A    between atoms: C_6  and  C_7
REMARK    7  A    between atoms: C_7  and  O_8
REMARK    8  A    between atoms: C_7  and  C_9
REMARK    9  A    between atoms: C_7  and  C_10
REMARK   10  A    between atoms: C_21  and  C_22
REMARK   11  A    between atoms: C_23  and  C_24
REMARK   12  A    between atoms: C_27  and  O_29
REMARK   13  A    between atoms: C_31  and  O_33
REMARK                            x       y       z     vdW  Elec       q    Type
REMARK                         _______ _______ _______ _____ _____    ______ ____
ROOT
ATOM      1  C   UNL     1      -0.000  -0.000  -0.000  0.00  0.00    -0.002 C 
ATOM      2  C   UNL     1      -0.000  -0.000  -0.000  0.00  0.00    -0.022 C 
ATOM      3  C   UNL     1      -0.000  -0.000  -0.000  0.00  0.00    +0.012 C 
ATOM      4  C   UNL     1      -0.000  -0.000  -0.000  0.00  0.00    +0.021 C 
ATOM      5  C   UNL     1      -0.000  -0.000  -0.000  0.00  0.00    -0.066 C 
ATOM      6  C   UNL     1      -0.000  -0.000  -0.000  0.00  0.00    -0.000 C 
ATOM      7  C   UNL     1      -0.000  -0.000  -0.000  0.00  0.00    +0.031 C 
ATOM      8  C   UNL     1      -0.000  -0.000  -0.000  0.00  0.00    +0.005 C 
ATOM      9  C   UNL     1      -0.000  -0.000  -0.000  0.00  0.00    +0.009 C 
ATOM     10  C   UNL     1      -0.000  -0.000  -0.000  0.00  0.00    +0.008 C 
ATOM     11  C   UNL     1      -0.000  -0.000  -0.000  0.00  0.00    +0.005 C 
ENDROOT
BRANCH   6  12
ATOM     12  C   UNL     1      -0.000  -0.000  -0.000  0.00  0.00    +0.004 C 
ATOM     13  C   UNL     1      -0.000  -0.000  -0.000  0.00  0.00    -0.040 C 
ATOM     14  C   UNL     1      -0.000  -0.000  -0.000  0.00  0.00    -0.023 C 
ATOM     15  C   UNL     1      -0.000  -0.000  -0.000  0.00  0.00    +0.015 C 
ATOM     16  C   UNL     1      -0.000  -0.000  -0.000  0.00  0.00    +0.147 C 
ATOM     17  C   UNL     1      -0.000  -0.000  -0.000  0.00  0.00    +0.067 C 
ATOM     18  C   UNL     1      -0.000  -0.000  -0.000  0.00  0.00    +0.122 C 
ATOM     19  C   UNL     1      -0.000  -0.000  -0.000  0.00  0.00    +0.067 C 
BRANCH  16  20
ATOM     20  O   UNL     1      -0.000  -0.000  -0.000  0.00  0.00    -0.387 OA
ATOM     21  H   UNL     1      -0.000  -0.000   0.000  0.00  0.00    +0.210 HD
ENDBRANCH  16  20
BRANCH  18  22
ATOM     22  O   UNL     1      -0.000  -0.000  -0.000  0.00  0.00    -0.391 OA
ATOM     23  H   UNL     1      -0.000  -0.000   0.000  0.00  0.00    +0.210 HD
ENDBRANCH  18  22
ENDBRANCH   6  12
BRANCH   1  25
ATOM     24  C   UNL     1      -0.000  -0.000  -0.000  0.00  0.00    +0.008 C 
ATOM     25  C   UNL     1      -0.000  -0.000   0.000  0.00  0.00    -0.010 C 
BRANCH  25  26
ATOM     26  C   UNL     1      -0.000  -0.000  -0.000  0.00  0.00    +0.003 C 
BRANCH  26  27
ATOM     27  C   UNL     1      -0.000  -0.000  -0.000  0.00  0.00    +0.003 C 
BRANCH  27  28
ATOM     28  C   UNL     1      -0.000  -0.000  -0.000  0.00  0.00    +0.034 C 
BRANCH  28  29
ATOM     29  C   UNL     1      -0.000  -0.000  -0.000  0.00  0.00    +0.061 C 
ATOM     30  C   UNL     1      -0.000  -0.000  -0.000  0.00  0.00    +0.041 C 
ATOM     31  C   UNL     1      -0.000  -0.000  -0.000  0.00  0.00    +0.041 C 
BRANCH  29  32
ATOM     32  O   UNL     1      -0.000  -0.000  -0.000  0.00  0.00    -0.389 OA
ATOM     33  H   UNL     1      -0.000  -0.000  -0.000  0.00  0.00    +0.210 HD
ENDBRANCH  29  32
ENDBRANCH  28  29
ENDBRANCH  27  28
ENDBRANCH  26  27
ENDBRANCH  25  26
ENDBRANCH   1  25
TORSDOF 9
