REMARK  Name = 
REMARK  10 active torsions:
REMARK  status: ('A' for Active; 'I' for Inactive)
REMARK    1  A    between atoms: C_2  and  C_3
REMARK    2  A    between atoms: C_5  and  O_6
REMARK    3  A    between atoms: C_17  and  C_18
REMARK    4  A    between atoms: C_22  and  O_23
REMARK    5  A    between atoms: C_22  and  C_24
REMARK    6  A    between atoms: C_24  and  C_26
REMARK    7  A    between atoms: C_26  and  O_27
REMARK    8  A    between atoms: O_27  and  C_28
REMARK    9  A    between atoms: C_28  and  C_30
REMARK   10  A    between atoms: C_32  and  S_36
REMARK                            x       y       z     vdW  Elec       q    Type
REMARK                         _______ _______ _______ _____ _____    ______ ____
ROOT
ATOM      1 NA   UNL     1      -1.056  -0.476  -1.648  0.00  0.00    +0.000 Na
ENDROOT
TORSDOF 0
REMARK  Name = 
REMARK  10 active torsions:
REMARK  status: ('A' for Active; 'I' for Inactive)
REMARK    1  A    between atoms: C_2  and  C_3
REMARK    2  A    between atoms: C_5  and  O_6
REMARK    3  A    between atoms: C_17  and  C_18
REMARK    4  A    between atoms: C_22  and  O_23
REMARK    5  A    between atoms: C_22  and  C_24
REMARK    6  A    between atoms: C_24  and  C_26
REMARK    7  A    between atoms: C_26  and  O_27
REMARK    8  A    between atoms: O_27  and  C_28
REMARK    9  A    between atoms: C_28  and  C_30
REMARK   10  A    between atoms: C_32  and  S_36
REMARK                            x       y       z     vdW  Elec       q    Type
REMARK                         _______ _______ _______ _____ _____    ______ ____
ROOT
ATOM      1  C   UNL     1       2.548   0.957   3.707  0.00  0.00    +0.000 C 
ATOM      2  C   UNL     1       3.358   0.436   2.480  0.00  0.00    +0.000 C 
ATOM      3  C   UNL     1       3.942   1.606   1.617  0.00  0.00    +0.000 C 
ATOM      4  C   UNL     1       4.895   2.263   2.633  0.00  0.00    +0.000 C 
ATOM      5  C   UNL     1       5.554   1.054   3.379  0.00  0.00    +0.000 C 
ATOM      6  C   UNL     1       4.745  -0.161   2.892  0.00  0.00    +0.000 C 
ATOM      7  C   UNL     1       4.742  -1.573   3.503  0.00  0.00    +0.000 C 
ATOM      8  C   UNL     1       6.170  -2.108   3.658  0.00  0.00    +0.000 C 
ATOM      9  C   UNL     1       6.158  -3.573   4.068  0.00  0.00    +0.000 C 
ATOM     10  C   UNL     1       5.512  -4.459   3.038  0.00  0.00    +0.000 C 
ATOM     11  C   UNL     1       4.314  -3.944   2.227  0.00  0.00    +0.000 C 
ATOM     12  C   UNL     1       3.142  -4.920   2.458  0.00  0.00    +0.000 C 
ATOM     13  C   UNL     1       4.752  -3.973   0.719  0.00  0.00    +0.000 C 
ATOM     14  C   UNL     1       5.994  -4.306   0.318  0.00  0.00    +0.000 C 
ATOM     15  C   UNL     1       6.914  -4.950   1.294  0.00  0.00    +0.000 C 
ATOM     16  O   UNL     1       8.106  -5.097   1.084  0.00  0.00    +0.000 OA
ATOM     17  C   UNL     1       6.228  -5.488   2.524  0.00  0.00    +0.000 C 
ATOM     18  C   UNL     1       3.970  -2.426   2.443  0.00  0.00    +0.000 C 
ATOM     19  C   UNL     1       2.499  -1.990   2.296  0.00  0.00    +0.000 C 
ATOM     20  C   UNL     1       2.453  -0.559   1.723  0.00  0.00    +0.000 C 
ENDROOT
BRANCH   3  21
ATOM     21  C   UNL     1       2.953   2.526   0.893  0.00  0.00    +0.000 C 
ATOM     22  O   UNL     1       1.805   2.721   1.296  0.00  0.00    +0.000 OA
BRANCH  21  23
ATOM     23  C   UNL     1       3.462   3.170  -0.407  0.00  0.00    +0.000 C 
BRANCH  23  24
ATOM     24  O   UNL     1       2.442   3.469  -1.354  0.00  0.00    +0.000 OA
BRANCH  24  25
ATOM     25  C   UNL     1       1.685   2.418  -1.734  0.00  0.00    +0.000 C 
ATOM     26  O   UNL     1       1.735   1.245  -1.355  0.00  0.00    +0.000 OA
BRANCH  25  27
ATOM     27  C   UNL     1       0.689   2.915  -2.685  0.00  0.00    +0.000 A 
ATOM     28  C   UNL     1       0.987   3.800  -3.722  0.00  0.00    +0.000 A 
ATOM     29  C   UNL     1      -0.012   4.149  -4.639  0.00  0.00    +0.000 A 
ATOM     30  C   UNL     1      -1.284   3.567  -4.557  0.00  0.00    +0.000 A 
ATOM     31  C   UNL     1      -1.556   2.696  -3.504  0.00  0.00    +0.000 A 
ATOM     32  C   UNL     1      -0.591   2.419  -2.543  0.00  0.00    +0.000 A 
BRANCH  31  33
ATOM     33  S   UNL     1      -3.065   1.715  -3.397  0.00  0.00    +0.000 S 
ATOM     34  O   UNL     1      -3.892   2.540  -2.535  0.00  0.00    +0.000 OA
ATOM     35  O   UNL     1      -2.536   0.493  -2.753  0.00  0.00    +0.000 OA
ATOM     36  O   UNL     1      -3.461   1.551  -4.782  0.00  0.00    -1.000 OA
ENDBRANCH  31  33
ENDBRANCH  25  27
ENDBRANCH  24  25
ENDBRANCH  23  24
ENDBRANCH  21  23
ENDBRANCH   3  21
BRANCH   3  37
ATOM     37  O   UNL     1       4.795   1.089   0.564  0.00  0.00    +0.000 OA
ATOM     38  H   UNL     1       4.327   0.388   0.081  0.00  0.00    +0.000 HD
ENDBRANCH   3  37
BRANCH  19  39
ATOM     39  O   UNL     1       1.761  -2.121   3.500  0.00  0.00    +0.000 OA
ATOM     40  H   UNL     1       2.265  -1.768   4.251  0.00  0.00    +0.000 HD
ENDBRANCH  19  39
TORSDOF 8
