REMARK  Name = 
REMARK  9 active torsions:
REMARK  status: ('A' for Active; 'I' for Inactive)
REMARK    1  A    between atoms: C_1  and  C_2
REMARK    2  A    between atoms: C_2  and  C_3
REMARK    3  A    between atoms: C_4  and  C_5
REMARK    4  A    between atoms: C_5  and  O_6
REMARK    5  A    between atoms: O_6  and  C_7
REMARK    6  A    between atoms: C_12  and  N_13
REMARK    7  A    between atoms: N_13  and  C_14
REMARK    8  A    between atoms: C_14  and  C_16
REMARK    9  A    between atoms: C_17  and  C_18
REMARK                            x       y       z     vdW  Elec       q    Type
REMARK                         _______ _______ _______ _____ _____    ______ ____
ROOT
ATOM      1  C   UNL     1       6.691  -2.600  -0.940  0.00  0.00    +0.141 A 
ATOM      2  C   UNL     1       7.109  -3.941  -0.879  0.00  0.00    +0.070 A 
ATOM      3  C   UNL     1       8.446  -4.300  -1.055  0.00  0.00    +0.035 A 
ATOM      4  C   UNL     1       9.392  -3.292  -1.240  0.00  0.00    +0.025 A 
ATOM      5  C   UNL     1       9.005  -1.945  -1.231  0.00  0.00    +0.025 A 
ATOM      6  C   UNL     1       7.659  -1.600  -1.082  0.00  0.00    +0.083 A 
ATOM      7 CL   UNL     1       7.236   0.074  -1.128  0.00  0.00    -0.080 Cl
ENDROOT
BRANCH   3   8
ATOM      8  N   UNL     1       8.735  -5.681  -1.164  0.00  0.00    -0.308 N 
ATOM      9  H   UNL     1       7.953  -6.277  -1.405  0.00  0.00    +0.153 HD
BRANCH   8  10
ATOM     10  C   UNL     1       9.934  -6.330  -0.953  0.00  0.00    +0.087 C 
ATOM     11  S   UNL     1      11.185  -5.845   0.048  0.00  0.00    -0.035 S 
BRANCH  10  12
ATOM     12  C   UNL     1      10.070  -7.638  -1.595  0.00  0.00    +0.044 A 
ATOM     13  C   UNL     1      10.718  -8.817  -1.093  0.00  0.00    +0.051 A 
ATOM     14  C   UNL     1      10.640  -9.771  -2.073  0.00  0.00    +0.196 A 
ATOM     15  O   UNL     1       9.970  -9.289  -3.142  0.00  0.00    -0.467 OA
ATOM     16  C   UNL     1       9.626  -7.998  -2.865  0.00  0.00    +0.111 A 
ATOM     17  C   UNL     1       8.939  -7.313  -3.984  0.00  0.00    +0.087 C 
ENDBRANCH  10  12
ENDBRANCH   8  10
ENDBRANCH   3   8
BRANCH   1  18
ATOM     18  O   UNL     1       5.363  -2.224  -0.908  0.00  0.00    -0.486 OA
BRANCH  18  19
ATOM     19  C   UNL     1       4.451  -3.289  -1.179  0.00  0.00    +0.256 C 
BRANCH  19  22
ATOM     20  C   UNL     1       1.079  -2.882  -3.070  0.00  0.00    +0.038 C 
ATOM     21  C   UNL     1       2.434  -3.392  -2.672  0.00  0.00    -0.076 C 
ATOM     22  C   UNL     1       3.138  -2.783  -1.693  0.00  0.00    +0.012 C 
ATOM     23  C   UNL     1       2.931  -4.624  -3.385  0.00  0.00    +0.038 C 
ENDBRANCH  19  22
ENDBRANCH  18  19
ENDBRANCH   1  18
TORSDOF 6
