REMARK  Name = 
REMARK  18 active torsions:
REMARK  status: ('A' for Active; 'I' for Inactive)
REMARK    1  A    between atoms: C_5  and  C_7
REMARK    2  A    between atoms: N_9  and  C_10
REMARK    3  A    between atoms: C_10  and  C_11
REMARK    4  A    between atoms: C_10  and  C_16
REMARK    5  A    between atoms: C_11  and  C_12
REMARK    6  A    between atoms: C_16  and  C_18
REMARK    7  A    between atoms: C_23  and  C_24
REMARK    8  A    between atoms: C_23  and  C_25
REMARK    9  A    between atoms: C_26  and  C_28
REMARK   10  A    between atoms: C_28  and  N_30
REMARK   11  A    between atoms: C_28  and  C_38
REMARK   12  A    between atoms: N_33  and  C_34
REMARK   13  A    between atoms: C_34  and  C_35
REMARK   14  A    between atoms: C_34  and  C_36
REMARK   15  A    between atoms: C_34  and  C_37
REMARK   16  A    between atoms: C_38  and  C_39
REMARK   17  A    between atoms: C_38  and  C_40
REMARK   18  A    between atoms: C_38  and  C_41
REMARK                            x       y       z     vdW  Elec       q    Type
REMARK                         _______ _______ _______ _____ _____    ______ ____
ROOT
ATOM      1  C   UNL     1       2.104  -0.082  -0.107  0.00  0.00    +0.018 C 
ATOM      2  C   UNL     1       3.061  -1.178   0.332  0.00  0.00    -0.025 C 
ATOM      3  C   UNL     1       2.597  -2.592   0.064  0.00  0.00    +0.011 C 
ATOM      4  C   UNL     1       3.869  -1.061   1.599  0.00  0.00    +0.011 C 
ATOM      5  C   UNL     1       3.380  -0.292  -0.867  0.00  0.00    +0.030 C 
ATOM      6  C   UNL     1       4.186   1.027  -0.817  0.00  0.00    +0.166 C 
ATOM      7  N   UNL     1       3.125   1.991  -0.465  0.00  0.00    -0.288 N 
ATOM      8  C   UNL     1       3.257   3.354  -0.208  0.00  0.00    +0.237 C 
ATOM      9  O   UNL     1       2.703   3.847   0.781  0.00  0.00    -0.274 OA
ATOM     10  C   UNL     1       2.090   1.339   0.330  0.00  0.00    +0.113 C 
ENDROOT
BRANCH   6  11
ATOM     11  C   UNL     1       5.149   1.149  -2.048  0.00  0.00    +0.234 C 
ATOM     12  N   UNL     1       5.643  -0.044  -2.525  0.00  0.00    -0.304 N 
ATOM     13  H   UNL     1       5.306  -0.930  -2.154  0.00  0.00    +0.149 HD
ATOM     14  O   UNL     1       5.599   2.199  -2.501  0.00  0.00    -0.274 OA
BRANCH  12  15
ATOM     15  C   UNL     1       6.629  -0.121  -3.601  0.00  0.00    +0.149 C 
BRANCH  15  16
ATOM     16  C   UNL     1       6.324  -1.394  -4.384  0.00  0.00    +0.237 C 
ATOM     17  O   UNL     1       5.474  -2.220  -4.053  0.00  0.00    -0.285 OA
BRANCH  16  18
ATOM     18  C   UNL     1       7.135  -1.641  -5.652  0.00  0.00    +0.279 C 
ATOM     19  O   UNL     1       7.949  -0.835  -6.068  0.00  0.00    -0.267 OA
ATOM     20  N   UNL     1       6.872  -2.839  -6.258  0.00  0.00    -0.323 N 
ATOM     21  H   UNL     1       7.360  -3.092  -7.105  0.00  0.00    +0.145 HD
ATOM     22  H   UNL     1       6.155  -3.447  -5.882  0.00  0.00    +0.145 HD
ENDBRANCH  16  18
ENDBRANCH  15  16
BRANCH  15  23
ATOM     23  C   UNL     1       8.055  -0.048  -3.040  0.00  0.00    +0.034 C 
BRANCH  23  24
ATOM     24  C   UNL     1       8.310  -1.073  -1.938  0.00  0.00    -0.009 C 
ATOM     25  C   UNL     1       9.805  -1.370  -1.626  0.00  0.00    +0.003 C 
ATOM     26  C   UNL     1       9.338  -2.783  -1.210  0.00  0.00    +0.001 C 
ATOM     27  C   UNL     1       8.192  -2.599  -2.226  0.00  0.00    +0.003 C 
ENDBRANCH  23  24
ENDBRANCH  15  23
ENDBRANCH  12  15
ENDBRANCH   6  11
BRANCH   8  28
ATOM     28  C   UNL     1       4.090   4.234  -1.192  0.00  0.00    +0.166 C 
BRANCH  28  29
ATOM     29  N   UNL     1       3.699   3.970  -2.591  0.00  0.00    -0.288 N 
ATOM     30  H   UNL     1       4.443   3.730  -3.225  0.00  0.00    +0.151 HD
ATOM     31  C   UNL     1       2.398   3.913  -3.002  0.00  0.00    +0.301 C 
ATOM     32  N   UNL     1       2.271   3.755  -4.363  0.00  0.00    -0.295 N 
ATOM     33  H   UNL     1       3.085   3.957  -4.926  0.00  0.00    +0.151 HD
ATOM     34  O   UNL     1       1.446   3.973  -2.242  0.00  0.00    -0.253 OA
BRANCH  32  35
ATOM     35  C   UNL     1       0.958   3.654  -5.031  0.00  0.00    +0.028 C 
ATOM     36  C   UNL     1       0.228   2.371  -4.589  0.00  0.00    +0.031 C 
ATOM     37  C   UNL     1       1.170   3.579  -6.554  0.00  0.00    +0.031 C 
ATOM     38  C   UNL     1       0.077   4.886  -4.740  0.00  0.00    +0.031 C 
ENDBRANCH  32  35
ENDBRANCH  28  29
BRANCH  28  39
ATOM     39  C   UNL     1       4.187   5.768  -0.882  0.00  0.00    -0.011 C 
ATOM     40  C   UNL     1       2.843   6.492  -1.061  0.00  0.00    +0.013 C 
ATOM     41  C   UNL     1       5.214   6.422  -1.842  0.00  0.00    +0.013 C 
ATOM     42  C   UNL     1       4.719   6.020   0.547  0.00  0.00    +0.013 C 
ENDBRANCH  28  39
ENDBRANCH   8  28
TORSDOF 10
