REMARK  Name = 
REMARK  6 active torsions:
REMARK  status: ('A' for Active; 'I' for Inactive)
REMARK    1  A    between atoms: O_1  and  C_2
REMARK    2  A    between atoms: C_2  and  C_4
REMARK    3  A    between atoms: C_4  and  S_5
REMARK    4  A    between atoms: S_5  and  C_6
REMARK    5  A    between atoms: C_6  and  C_7
REMARK    6  A    between atoms: N_9  and  C_10
REMARK                            x       y       z     vdW  Elec       q    Type
REMARK                         _______ _______ _______ _____ _____    ______ ____
ROOT
ATOM      1  C   UNL     1       7.434   0.537   2.002  0.00  0.00    +0.223 C 
ATOM      2  N   UNL     1       8.238   0.834   3.075  0.00  0.00    -0.304 N 
ATOM      3  H   UNL     1       7.853   0.862   4.015  0.00  0.00    +0.149 HD
ATOM      4  O   UNL     1       7.885   0.322   0.879  0.00  0.00    -0.275 OA
ENDROOT
BRANCH   2   5
ATOM      5  C   UNL     1       9.684   0.888   2.923  0.00  0.00    +0.151 C 
ATOM      6  C   UNL     1      10.414   0.736   4.248  0.00  0.00    +0.209 C 
ATOM      7  O   UNL     1      10.016   0.095   5.209  0.00  0.00    -0.283 OA
ATOM      8  S   UNL     1      11.937   1.617   4.229  0.00  0.00    -0.086 S 
ATOM      9  C   UNL     1      11.661   2.276   2.559  0.00  0.00    +0.079 C 
ATOM     10  C   UNL     1      10.153   2.239   2.387  0.00  0.00    +0.042 C 
ENDBRANCH   2   5
BRANCH   1  11
ATOM     11  C   UNL     1       5.941   0.572   2.277  0.00  0.00    +0.165 C 
BRANCH  11  12
ATOM     12  S   UNL     1       5.276   2.245   1.975  0.00  0.00    -0.140 S 
BRANCH  12  13
ATOM     13  C   UNL     1       5.671   2.415   0.185  0.00  0.00    +0.189 C 
BRANCH  13  14
ATOM     14  C   UNL     1       5.198   3.741  -0.384  0.00  0.00    +0.315 C 
ATOM     15  O   UNL     1       5.373   4.065  -1.552  0.00  0.00    -0.250 OA
BRANCH  14  16
ATOM     16  O   UNL     1       4.573   4.557   0.495  0.00  0.00    -0.480 OA
ATOM     17  H   UNL     1       4.526   4.132   1.379  0.00  0.00    +0.295 HD
ENDBRANCH  14  16
ENDBRANCH  13  14
ENDBRANCH  12  13
ENDBRANCH  11  12
ENDBRANCH   1  11
TORSDOF 6
