REMARK  Name = 
REMARK  13 active torsions:
REMARK  status: ('A' for Active; 'I' for Inactive)
REMARK    1  A    between atoms: O_1  and  C_2
REMARK    2  A    between atoms: C_2  and  C_3
REMARK    3  A    between atoms: C_11  and  C_12
REMARK    4  A    between atoms: C_13  and  O_15
REMARK    5  A    between atoms: O_15  and  C_16
REMARK    6  A    between atoms: C_16  and  C_18
REMARK    7  A    between atoms: C_18  and  C_19
REMARK    8  A    between atoms: C_20  and  C_21
REMARK    9  A    between atoms: C_22  and  O_23
REMARK   10  A    between atoms: C_24  and  O_26
REMARK   11  A    between atoms: C_27  and  C_29
REMARK   12  A    between atoms: C_33  and  C_34
REMARK   13  A    between atoms: C_33  and  C_35
REMARK                            x       y       z     vdW  Elec       q    Type
REMARK                         _______ _______ _______ _____ _____    ______ ____
ROOT
ATOM      1  C   UNL     1      -0.000   0.000   0.000  0.00  0.00    -0.017 C 
ATOM      2  C   UNL     1      -0.000  -0.000   0.000  0.00  0.00    +0.179 C 
ATOM      3  C   UNL     1      -0.000  -0.000  -0.000  0.00  0.00    +0.152 C 
ATOM      4  C   UNL     1      -0.000  -0.000  -0.000  0.00  0.00    +0.086 C 
ATOM      5  C   UNL     1      -0.000  -0.000   0.000  0.00  0.00    +0.006 C 
ATOM      6  C   UNL     1      -0.000  -0.000  -0.000  0.00  0.00    +0.009 C 
ATOM      7  C   UNL     1      -0.000  -0.000  -0.000  0.00  0.00    +0.009 C 
ATOM      8  C   UNL     1      -0.000  -0.000  -0.000  0.00  0.00    -0.000 C 
ATOM      9  C   UNL     1      -0.000   0.000   0.000  0.00  0.00    +0.013 C 
ATOM     10  C   UNL     1      -0.000  -0.000  -0.000  0.00  0.00    +0.083 C 
ATOM     11  C   UNL     1      -0.000  -0.000   0.000  0.00  0.00    -0.028 C 
ATOM     12  C   UNL     1      -0.000  -0.000  -0.000  0.00  0.00    +0.011 C 
ATOM     13  C   UNL     1      -0.000  -0.000   0.000  0.00  0.00    +0.011 C 
ATOM     14  C   UNL     1      -0.000  -0.000  -0.000  0.00  0.00    -0.007 C 
ATOM     15  C   UNL     1      -0.000  -0.000  -0.000  0.00  0.00    -0.033 C 
ATOM     16  C   UNL     1      -0.000  -0.000  -0.000  0.00  0.00    +0.042 C 
ATOM     17  C   UNL     1      -0.000   0.000  -0.000  0.00  0.00    +0.153 C 
ATOM     18  O   UNL     1      -0.000  -0.000  -0.000  0.00  0.00    -0.296 OA
ATOM     19  C   UNL     1      -0.000  -0.000  -0.000  0.00  0.00    +0.238 C 
ATOM     20  C   UNL     1      -0.000  -0.000  -0.000  0.00  0.00    -0.012 C 
ENDROOT
BRANCH   2  21
ATOM     21  O   UNL     1      -0.000  -0.000  -0.000  0.00  0.00    -0.384 OA
ATOM     22  H   UNL     1       0.000   0.000   0.000  0.00  0.00    +0.210 HD
ENDBRANCH   2  21
BRANCH   3  23
ATOM     23  O   UNL     1      -0.000  -0.000  -0.000  0.00  0.00    -0.380 OA
ATOM     24  H   UNL     1       0.000   0.000   0.000  0.00  0.00    +0.211 HD
ENDBRANCH   3  23
BRANCH   1  25
ATOM     25  C   UNL     1      -0.000  -0.000   0.000  0.00  0.00    +0.189 C 
BRANCH  25  26
ATOM     26  O   UNL     1       0.000   0.000  -0.000  0.00  0.00    -0.391 OA
ATOM     27  H   UNL     1      -0.000   0.000   0.000  0.00  0.00    +0.210 HD
ENDBRANCH  25  26
ENDBRANCH   1  25
BRANCH  19  28
ATOM     28  O   UNL     1      -0.000  -0.000  -0.000  0.00  0.00    -0.451 OA
BRANCH  28  29
ATOM     29  C   UNL     1      -0.000  -0.000  -0.000  0.00  0.00    +0.335 C 
ATOM     30  O   UNL     1      -0.000  -0.000  -0.000  0.00  0.00    -0.245 OA
BRANCH  29  31
ATOM     31  C   UNL     1      -0.000  -0.000  -0.000  0.00  0.00    +0.029 C 
ATOM     32  C   UNL     1      -0.000  -0.000  -0.000  0.00  0.00    -0.020 C 
ATOM     33  C   UNL     1      -0.000  -0.000  -0.000  0.00  0.00    +0.036 C 
ATOM     34  C   UNL     1      -0.000  -0.000  -0.000  0.00  0.00    +0.051 C 
ENDBRANCH  29  31
ENDBRANCH  28  29
ENDBRANCH  19  28
TORSDOF 7
