REMARK  Name = 
REMARK  13 active torsions:
REMARK  status: ('A' for Active; 'I' for Inactive)
REMARK    1  A    between atoms: C_4  and  C_6
REMARK    2  A    between atoms: C_6  and  O_8
REMARK    3  A    between atoms: O_8  and  O_9
REMARK    4  A    between atoms: O_9  and  C_10
REMARK    5  A    between atoms: C_11  and  C_12
REMARK    6  A    between atoms: C_18  and  C_19
REMARK    7  A    between atoms: C_19  and  S_20
REMARK    8  A    between atoms: S_20  and  C_21
REMARK    9  A    between atoms: C_21  and  C_22
REMARK   10  A    between atoms: C_37  and  C_38
REMARK   11  A    between atoms: C_38  and  S_39
REMARK   12  A    between atoms: S_39  and  C_40
REMARK   13  A    between atoms: C_40  and  C_41
REMARK                            x       y       z     vdW  Elec       q    Type
REMARK                         _______ _______ _______ _____ _____    ______ ____
ROOT
ATOM      1  C   UNL     1       4.212  -1.105   0.944  0.00  0.00    +0.223 C 
ATOM      2  N   UNL     1       5.068  -1.339   2.123  0.00  0.00    -0.311 N 
ATOM      3  C   UNL     1       6.321  -0.743   2.194  0.00  0.00    +0.077 A 
ATOM      4  C   UNL     1       6.361   0.610   2.290  0.00  0.00    +0.077 A 
ATOM      5  C   UNL     1       6.900   1.061   3.461  0.00  0.00    +0.015 A 
ATOM      6  C   UNL     1       7.512   0.302   4.480  0.00  0.00    -0.008 A 
ATOM      7  C   UNL     1       7.821  -1.030   4.099  0.00  0.00    +0.052 A 
ATOM      8  C   UNL     1       8.249  -1.746   5.271  0.00  0.00    +0.245 C 
ATOM      9  O   UNL     1       8.558  -2.907   5.483  0.00  0.00    -0.270 OA
ATOM     10  N   UNL     1       8.181  -0.782   6.281  0.00  0.00    -0.307 N 
ATOM     11  H   UNL     1       8.409  -1.061   7.228  0.00  0.00    +0.149 HD
ATOM     12  C   UNL     1       7.756   0.553   5.890  0.00  0.00    +0.141 C 
ATOM     13  C   UNL     1       6.287   2.323   3.527  0.00  0.00    +0.008 A 
ATOM     14  C   UNL     1       6.220   3.332   4.509  0.00  0.00    +0.015 A 
ATOM     15  C   UNL     1       5.531   4.529   4.271  0.00  0.00    -0.037 A 
ATOM     16  C   UNL     1       4.857   4.710   3.060  0.00  0.00    +0.006 A 
ATOM     17  C   UNL     1       4.882   3.742   2.049  0.00  0.00    +0.027 A 
ATOM     18  C   UNL     1       5.564   2.530   2.267  0.00  0.00    +0.053 A 
ATOM     19  N   UNL     1       5.641   1.368   1.471  0.00  0.00    -0.308 N 
ATOM     20  C   UNL     1       5.077   0.944   0.177  0.00  0.00    +0.160 C 
ATOM     21  C   UNL     1       6.016   1.304  -0.973  0.00  0.00    +0.067 C 
ATOM     22  C   UNL     1       3.588   1.246   0.241  0.00  0.00    +0.158 C 
ATOM     23  C   UNL     1       7.446  -1.386   2.746  0.00  0.00    +0.022 A 
ATOM     24  C   UNL     1       6.958  -2.689   2.540  0.00  0.00    +0.009 A 
ATOM     25  C   UNL     1       7.346  -3.840   1.837  0.00  0.00    +0.015 A 
ATOM     26  C   UNL     1       6.599  -4.974   2.161  0.00  0.00    -0.037 A 
ATOM     27  C   UNL     1       5.689  -4.855   3.222  0.00  0.00    +0.006 A 
ATOM     28  C   UNL     1       5.043  -3.625   3.450  0.00  0.00    +0.027 A 
ATOM     29  C   UNL     1       5.509  -2.598   2.632  0.00  0.00    +0.052 A 
ATOM     30  O   UNL     1       5.099  -0.526  -0.010  0.00  0.00    -0.330 OA
ATOM     31  C   UNL     1       3.016  -0.107   0.757  0.00  0.00    +0.074 C 
ENDROOT
BRANCH  22  32
ATOM     32  C   UNL     1       3.215   2.006  -1.026  0.00  0.00    +0.351 C 
ATOM     33  O   UNL     1       3.881   2.967  -1.422  0.00  0.00    -0.247 OA
BRANCH  32  34
ATOM     34  O   UNL     1       2.057   1.614  -1.623  0.00  0.00    -0.297 OA
BRANCH  34  35
ATOM     35  O   UNL     1       2.237   1.862  -3.068  0.00  0.00    -0.187 OA
ATOM     36  C   UNL     1       1.508   3.031  -3.439  0.00  0.00    +0.253 C 
ENDBRANCH  34  35
ENDBRANCH  32  34
ENDBRANCH  22  32
BRANCH  15  37
ATOM     37  C   UNL     1       5.628   5.644   5.281  0.00  0.00    +0.104 C 
BRANCH  37  38
ATOM     38  S   UNL     1       7.342   6.261   5.464  0.00  0.00    -0.156 S 
BRANCH  38  39
ATOM     39  C   UNL     1       7.723   6.621   3.716  0.00  0.00    +0.066 C 
ATOM     40  C   UNL     1       9.177   7.028   3.569  0.00  0.00    +0.015 C 
ENDBRANCH  38  39
ENDBRANCH  37  38
ENDBRANCH  15  37
BRANCH  26  41
ATOM     41  C   UNL     1       6.539  -6.190   1.274  0.00  0.00    +0.104 C 
BRANCH  41  42
ATOM     42  S   UNL     1       8.097  -6.939   0.778  0.00  0.00    -0.156 S 
BRANCH  42  43
ATOM     43  C   UNL     1       8.600  -7.630   2.375  0.00  0.00    +0.066 C 
ATOM     44  C   UNL     1       9.858  -8.451   2.172  0.00  0.00    +0.015 C 
ENDBRANCH  42  43
ENDBRANCH  41  42
ENDBRANCH  26  41
TORSDOF 9
