REMARK  Name = 
REMARK  12 active torsions:
REMARK  status: ('A' for Active; 'I' for Inactive)
REMARK    1  A    between atoms: C_1  and  O_2
REMARK    2  A    between atoms: O_2  and  C_3
REMARK    3  A    between atoms: C_4  and  O_5
REMARK    4  A    between atoms: O_5  and  C_6
REMARK    5  A    between atoms: C_6  and  C_7
REMARK    6  A    between atoms: C_7  and  C_8
REMARK    7  A    between atoms: C_8  and  N_9
REMARK    8  A    between atoms: N_29  and  C_30
REMARK    9  A    between atoms: C_33  and  O_34
REMARK   10  A    between atoms: O_34  and  C_35
REMARK   11  A    between atoms: C_35  and  C_36
REMARK   12  A    between atoms: C_35  and  C_37
REMARK                            x       y       z     vdW  Elec       q    Type
REMARK                         _______ _______ _______ _____ _____    ______ ____
ROOT
ATOM      1  C   UNL     1       3.099  -0.685  -0.921  0.00  0.00    +0.162 A 
ATOM      2  C   UNL     1       3.196  -2.025  -1.241  0.00  0.00    +0.062 A 
ATOM      3  C   UNL     1       3.851  -2.455  -2.409  0.00  0.00    +0.044 A 
ATOM      4  C   UNL     1       4.616  -1.558  -3.143  0.00  0.00    +0.080 A 
ATOM      5  N   UNL     1       5.359  -1.955  -4.184  0.00  0.00    -0.235 NA
ATOM      6  C   UNL     1       5.310  -3.262  -4.480  0.00  0.00    +0.223 A 
ATOM      7  N   UNL     1       4.545  -4.193  -3.890  0.00  0.00    -0.220 NA
ATOM      8  C   UNL     1       4.608  -0.220  -2.759  0.00  0.00    +0.078 A 
ATOM      9  C   UNL     1       3.777  -3.775  -2.871  0.00  0.00    +0.132 A 
ATOM     10  N   UNL     1       2.927  -4.674  -2.243  0.00  0.00    -0.312 N 
ATOM     11  C   UNL     1       1.472  -4.415  -2.221  0.00  0.00    +0.125 C 
ATOM     12  C   UNL     1       0.877  -5.054  -0.941  0.00  0.00    +0.128 C 
ATOM     13  N   UNL     1       1.274  -6.467  -0.810  0.00  0.00    -0.282 N 
ATOM     14  C   UNL     1       0.478  -7.565  -0.598  0.00  0.00    +0.307 C 
ATOM     15  N   UNL     1      -0.854  -7.346  -0.336  0.00  0.00    -0.269 N 
ATOM     16  H   UNL     1      -1.165  -6.400  -0.214  0.00  0.00    +0.156 HD
ATOM     17  O   UNL     1       0.986  -8.693  -0.658  0.00  0.00    -0.252 OA
ATOM     18  C   UNL     1       2.726  -6.710  -0.993  0.00  0.00    +0.128 C 
ATOM     19  C   UNL     1       3.248  -6.098  -2.304  0.00  0.00    +0.125 C 
ATOM     20  C   UNL     1       3.838   0.232  -1.678  0.00  0.00    +0.164 A 
ENDROOT
BRANCH  15  21
ATOM     21  C   UNL     1      -1.849  -8.352  -0.206  0.00  0.00    +0.035 A 
ATOM     22  C   UNL     1      -3.181  -7.958  -0.032  0.00  0.00    +0.027 A 
ATOM     23  C   UNL     1      -4.215  -8.912   0.001  0.00  0.00    +0.047 A 
ATOM     24  C   UNL     1      -3.927 -10.266  -0.157  0.00  0.00    +0.121 A 
ATOM     25  C   UNL     1      -2.600 -10.662  -0.274  0.00  0.00    +0.047 A 
ATOM     26  C   UNL     1      -1.574  -9.716  -0.280  0.00  0.00    +0.027 A 
BRANCH  24  27
ATOM     27  O   UNL     1      -4.824 -11.280  -0.309  0.00  0.00    -0.489 OA
BRANCH  27  28
ATOM     28  C   UNL     1      -6.077 -11.206   0.370  0.00  0.00    +0.167 C 
ATOM     29  C   UNL     1      -6.475 -12.654   0.666  0.00  0.00    +0.051 C 
ATOM     30  C   UNL     1      -7.140 -10.578  -0.527  0.00  0.00    +0.051 C 
ENDBRANCH  27  28
ENDBRANCH  24  27
ENDBRANCH  15  21
BRANCH   1  32
ATOM     31  C   UNL     1       1.192  -1.092   0.420  0.00  0.00    +0.277 C 
ATOM     32  O   UNL     1       2.304  -0.245   0.111  0.00  0.00    -0.491 OA
ENDBRANCH   1  32
BRANCH  20  33
ATOM     33  O   UNL     1       3.754   1.537  -1.300  0.00  0.00    -0.488 OA
BRANCH  33  34
ATOM     34  C   UNL     1       4.516   2.524  -2.009  0.00  0.00    +0.230 C 
BRANCH  34  35
ATOM     35  C   UNL     1       4.155   3.824  -1.315  0.00  0.00    +0.056 C 
BRANCH  35  36
ATOM     36  C   UNL     1       4.788   5.109  -1.854  0.00  0.00    +0.087 C 
BRANCH  36  37
ATOM     37  N   UNL     1       4.417   6.249  -0.989  0.00  0.00    -0.302 NA
ATOM     38  C   UNL     1       2.971   6.429  -0.794  0.00  0.00    +0.084 C 
ATOM     39  C   UNL     1       2.259   6.855  -2.074  0.00  0.00    +0.015 C 
ATOM     40  C   UNL     1       2.837   8.165  -2.597  0.00  0.00    +0.002 C 
ATOM     41  C   UNL     1       4.367   8.173  -2.625  0.00  0.00    +0.015 C 
ATOM     42  C   UNL     1       5.015   7.525  -1.396  0.00  0.00    +0.084 C 
ENDBRANCH  36  37
ENDBRANCH  35  36
ENDBRANCH  34  35
ENDBRANCH  33  34
ENDBRANCH  20  33
TORSDOF 9
