REMARK  Name = 
REMARK  39 active torsions:
REMARK  status: ('A' for Active; 'I' for Inactive)
REMARK    1  A    between atoms: C_1  and  C_2
REMARK    2  A    between atoms: C_2  and  C_3
REMARK    3  A    between atoms: C_4  and  C_5
REMARK    4  A    between atoms: C_5  and  C_6
REMARK    5  A    between atoms: C_7  and  C_8
REMARK    6  A    between atoms: C_8  and  C_9
REMARK    7  A    between atoms: C_10  and  C_11
REMARK    8  A    between atoms: C_11  and  C_12
REMARK    9  A    between atoms: C_13  and  C_14
REMARK   10  A    between atoms: C_14  and  C_15
REMARK   11  A    between atoms: C_16  and  C_17
REMARK   12  A    between atoms: C_17  and  C_18
REMARK   13  A    between atoms: C_19  and  C_20
REMARK   14  A    between atoms: C_20  and  C_21
REMARK   15  A    between atoms: C_21  and  C_22
REMARK   16  A    between atoms: C_22  and  O_24
REMARK   17  A    between atoms: O_24  and  C_25
REMARK   18  A    between atoms: C_25  and  C_27
REMARK   19  A    between atoms: C_25  and  C_77
REMARK   20  A    between atoms: C_27  and  O_29
REMARK   21  A    between atoms: O_29  and  C_30
REMARK   22  A    between atoms: C_33  and  O_34
REMARK   23  A    between atoms: C_35  and  O_37
REMARK   24  A    between atoms: O_37  and  C_38
REMARK   25  A    between atoms: C_38  and  C_40
REMARK   26  A    between atoms: C_48  and  C_49
REMARK   27  A    between atoms: C_50  and  O_52
REMARK   28  A    between atoms: C_58  and  O_59
REMARK   29  A    between atoms: O_59  and  C_60
REMARK   30  A    between atoms: C_60  and  C_62
REMARK   31  A    between atoms: C_65  and  O_67
REMARK   32  A    between atoms: O_67  and  C_68
REMARK   33  A    between atoms: C_68  and  C_70
REMARK   34  A    between atoms: C_72  and  C_73
REMARK   35  A    between atoms: C_74  and  C_75
REMARK   36  A    between atoms: C_74  and  C_76
REMARK   37  A    between atoms: C_77  and  N_79
REMARK   38  A    between atoms: C_77  and  C_88
REMARK   39  A    between atoms: C_80  and  C_82
REMARK                            x       y       z     vdW  Elec       q    Type
REMARK                         _______ _______ _______ _____ _____    ______ ____
ROOT
ATOM      1  C   UNL     1      -0.000  -0.000  -0.000  0.00  0.00    +0.351 C 
ATOM      2  O   UNL     1      -0.000  -0.000  -0.000  0.00  0.00    -0.247 OA
ENDROOT
BRANCH   1   3
ATOM      3  O   UNL     1      -0.000  -0.000  -0.000  0.00  0.00    -0.454 OA
BRANCH   3   4
ATOM      4  C   UNL     1      -0.000  -0.000  -0.000  0.00  0.00    +0.205 C 
ATOM      5  C   UNL     1      -0.000  -0.000  -0.000  0.00  0.00    -0.029 C 
ATOM      6  C   UNL     1      -0.000  -0.000  -0.000  0.00  0.00    +0.043 C 
ATOM      7  C   UNL     1      -0.000  -0.000  -0.000  0.00  0.00    -0.011 C 
ATOM      8  C   UNL     1      -0.000  -0.000  -0.000  0.00  0.00    +0.023 C 
ATOM      9  C   UNL     1      -0.000  -0.000  -0.000  0.00  0.00    +0.018 C 
ATOM     10  C   UNL     1      -0.000  -0.000  -0.000  0.00  0.00    +0.018 C 
ATOM     11  C   UNL     1      -0.000  -0.000  -0.000  0.00  0.00    +0.116 C 
ATOM     12  C   UNL     1      -0.000  -0.000  -0.000  0.00  0.00    +0.217 C 
ATOM     13  C   UNL     1      -0.000  -0.000  -0.000  0.00  0.00    +0.097 C 
ATOM     14  C   UNL     1      -0.000  -0.000  -0.000  0.00  0.00    +0.170 C 
ATOM     15  C   UNL     1      -0.000  -0.000  -0.000  0.00  0.00    +0.167 C 
ATOM     16  O   UNL     1      -0.000  -0.000  -0.000  0.00  0.00    -0.368 OA
ATOM     17  C   UNL     1      -0.000  -0.000  -0.000  0.00  0.00    +0.068 C 
ATOM     18  C   UNL     1      -0.000  -0.000  -0.000  0.00  0.00    +0.131 C 
ATOM     19  C   UNL     1      -0.000  -0.000  -0.000  0.00  0.00    +0.211 C 
ATOM     20  C   UNL     1      -0.000  -0.000  -0.000  0.00  0.00    +0.066 C 
ATOM     21  C   UNL     1      -0.000  -0.000  -0.000  0.00  0.00    +0.022 C 
ATOM     22  C   UNL     1      -0.000  -0.000  -0.000  0.00  0.00    +0.187 C 
ATOM     23  O   UNL     1      -0.000  -0.000  -0.000  0.00  0.00    -0.292 OA
ATOM     24  C   UNL     1      -0.000  -0.000  -0.000  0.00  0.00    +0.270 C 
ATOM     25  C   UNL     1      -0.000  -0.000  -0.000  0.00  0.00    +0.088 C 
BRANCH  18  26
ATOM     26  O   UNL     1      -0.000  -0.000  -0.000  0.00  0.00    -0.391 OA
ATOM     27  H   UNL     1      -0.000  -0.000  -0.000  0.00  0.00    +0.210 HD
ENDBRANCH  18  26
BRANCH  11  28
ATOM     28  O   UNL     1      -0.000  -0.000  -0.000  0.00  0.00    -0.384 OA
ATOM     29  H   UNL     1      -0.000  -0.000  -0.000  0.00  0.00    +0.210 HD
ENDBRANCH  11  28
BRANCH  12  30
ATOM     30  O   UNL     1      -0.000  -0.000  -0.000  0.00  0.00    -0.454 OA
BRANCH  30  31
ATOM     31  C   UNL     1      -0.000  -0.000  -0.000  0.00  0.00    +0.340 C 
ATOM     32  O   UNL     1      -0.000  -0.000  -0.000  0.00  0.00    -0.245 OA
BRANCH  31  33
ATOM     33  C   UNL     1      -0.000  -0.000  -0.000  0.00  0.00    +0.059 A 
ATOM     34  C   UNL     1      -0.000  -0.000  -0.000  0.00  0.00    +0.015 A 
ATOM     35  C   UNL     1      -0.000  -0.000  -0.000  0.00  0.00    +0.001 A 
ATOM     36  C   UNL     1      -0.000  -0.000  -0.000  0.00  0.00    +0.000 A 
ATOM     37  C   UNL     1      -0.000  -0.000  -0.000  0.00  0.00    +0.001 A 
ATOM     38  C   UNL     1      -0.000  -0.000  -0.000  0.00  0.00    +0.015 A 
ENDBRANCH  31  33
ENDBRANCH  30  31
ENDBRANCH  12  30
BRANCH  14  39
ATOM     39  O   UNL     1      -0.000  -0.000  -0.000  0.00  0.00    -0.453 OA
BRANCH  39  40
ATOM     40  C   UNL     1      -0.000  -0.000  -0.000  0.00  0.00    +0.305 C 
ATOM     41  C   UNL     1      -0.000  -0.000  -0.000  0.00  0.00    +0.136 C 
ATOM     42  O   UNL     1      -0.000  -0.000  -0.000  0.00  0.00    -0.251 OA
ENDBRANCH  39  40
ENDBRANCH  14  39
BRANCH  24  43
ATOM     43  O   UNL     1      -0.000  -0.000  -0.000  0.00  0.00    -0.449 OA
BRANCH  43  44
ATOM     44  C   UNL     1      -0.000  -0.000  -0.000  0.00  0.00    +0.305 C 
ATOM     45  C   UNL     1      -0.000  -0.000  -0.000  0.00  0.00    +0.136 C 
ATOM     46  O   UNL     1      -0.000  -0.000  -0.000  0.00  0.00    -0.251 OA
ENDBRANCH  43  44
ENDBRANCH  24  43
ENDBRANCH   3   4
ENDBRANCH   1   3
BRANCH   1  47
ATOM     47  C   UNL     1      -0.000  -0.000  -0.000  0.00  0.00    +0.309 C 
BRANCH  47  48
ATOM     48  C   UNL     1      -0.000  -0.000  -0.000  0.00  0.00    +0.155 C 
BRANCH  48  49
ATOM     49  C   UNL     1      -0.000  -0.000  -0.000  0.00  0.00    -0.023 A 
ATOM     50  C   UNL     1      -0.000  -0.000  -0.000  0.00  0.00    +0.005 A 
ATOM     51  C   UNL     1      -0.000  -0.000  -0.000  0.00  0.00    +0.000 A 
ATOM     52  C   UNL     1      -0.000  -0.000  -0.000  0.00  0.00    +0.000 A 
ATOM     53  C   UNL     1      -0.000  -0.000  -0.000  0.00  0.00    +0.000 A 
ATOM     54  C   UNL     1      -0.000  -0.000  -0.000  0.00  0.00    +0.005 A 
ENDBRANCH  48  49
BRANCH  48  55
ATOM     55  N   UNL     1      -0.000  -0.000  -0.000  0.00  0.00    -0.300 N 
ATOM     56  H   UNL     1      -0.000  -0.000  -0.000  0.00  0.00    +0.150 HD
ATOM     57  C   UNL     1      -0.000  -0.000  -0.000  0.00  0.00    +0.245 C 
ATOM     58  O   UNL     1      -0.000  -0.000  -0.000  0.00  0.00    -0.270 OA
BRANCH  57  59
ATOM     59  C   UNL     1      -0.000  -0.000  -0.000  0.00  0.00    +0.037 A 
ATOM     60  C   UNL     1      -0.000  -0.000  -0.000  0.00  0.00    +0.013 A 
ATOM     61  C   UNL     1      -0.000  -0.000  -0.000  0.00  0.00    +0.001 A 
ATOM     62  C   UNL     1      -0.000  -0.000  -0.000  0.00  0.00    +0.000 A 
ATOM     63  C   UNL     1      -0.000  -0.000  -0.000  0.00  0.00    +0.001 A 
ATOM     64  C   UNL     1      -0.000  -0.000  -0.000  0.00  0.00    +0.013 A 
ENDBRANCH  57  59
ENDBRANCH  48  55
ENDBRANCH  47  48
BRANCH  47  65
ATOM     65  O   UNL     1      -0.000  -0.000  -0.000  0.00  0.00    -0.448 OA
BRANCH  65  66
ATOM     66  C   UNL     1      -0.000  -0.000  -0.000  0.00  0.00    +0.308 C 
ATOM     67  O   UNL     1      -0.000  -0.000  -0.000  0.00  0.00    -0.251 OA
BRANCH  66  68
ATOM     68  C   UNL     1      -0.000  -0.000  -0.000  0.00  0.00    +0.124 C 
BRANCH  68  69
ATOM     69  C   UNL     1      -0.000  -0.000  -0.000  0.00  0.00    +0.038 C 
BRANCH  69  71
ATOM     70  C   UNL     1      -0.000  -0.000  -0.000  0.00  0.00    -0.027 C 
ATOM     71  C   UNL     1      -0.000  -0.000  -0.000  0.00  0.00    -0.030 C 
BRANCH  70  72
ATOM     72  C   UNL     1      -0.000  -0.000  -0.000  0.00  0.00    +0.053 C 
BRANCH  72  74
ATOM     73  C   UNL     1      -0.000  -0.000  -0.000  0.00  0.00    -0.027 C 
ATOM     74  C   UNL     1      -0.000  -0.000  -0.000  0.00  0.00    -0.027 C 
BRANCH  73  75
ATOM     75  C   UNL     1      -0.000  -0.000  -0.000  0.00  0.00    +0.053 C 
BRANCH  75  77
ATOM     76  C   UNL     1      -0.000  -0.000  -0.000  0.00  0.00    -0.027 C 
ATOM     77  C   UNL     1      -0.000  -0.000  -0.000  0.00  0.00    -0.027 C 
BRANCH  76  78
ATOM     78  C   UNL     1      -0.000  -0.000  -0.000  0.00  0.00    +0.053 C 
BRANCH  78  80
ATOM     79  C   UNL     1      -0.000  -0.000  -0.000  0.00  0.00    -0.027 C 
ATOM     80  C   UNL     1      -0.000  -0.000  -0.000  0.00  0.00    -0.027 C 
BRANCH  79  81
ATOM     81  C   UNL     1      -0.000  -0.000  -0.000  0.00  0.00    +0.053 C 
BRANCH  81  83
ATOM     82  C   UNL     1      -0.000  -0.000  -0.000  0.00  0.00    -0.027 C 
ATOM     83  C   UNL     1      -0.000  -0.000  -0.000  0.00  0.00    -0.027 C 
BRANCH  82  84
ATOM     84  C   UNL     1      -0.000  -0.000  -0.000  0.00  0.00    +0.053 C 
BRANCH  84  86
ATOM     85  C   UNL     1      -0.000  -0.000  -0.000  0.00  0.00    -0.031 C 
ATOM     86  C   UNL     1      -0.000  -0.000  -0.000  0.00  0.00    -0.027 C 
BRANCH  85  88
ATOM     87  C   UNL     1      -0.000  -0.000  -0.000  0.00  0.00    +0.008 C 
ATOM     88  C   UNL     1      -0.000  -0.000  -0.000  0.00  0.00    +0.023 C 
ENDBRANCH  85  88
ENDBRANCH  84  86
ENDBRANCH  82  84
ENDBRANCH  81  83
ENDBRANCH  79  81
ENDBRANCH  78  80
ENDBRANCH  76  78
ENDBRANCH  75  77
ENDBRANCH  73  75
ENDBRANCH  72  74
ENDBRANCH  70  72
ENDBRANCH  69  71
ENDBRANCH  68  69
ENDBRANCH  66  68
ENDBRANCH  65  66
ENDBRANCH  47  65
ENDBRANCH   1  47
TORSDOF 32
