REMARK  Name = 
REMARK  20 active torsions:
REMARK  status: ('A' for Active; 'I' for Inactive)
REMARK    1  A    between atoms: C_1  and  C_2
REMARK    2  A    between atoms: C_2  and  O_3
REMARK    3  A    between atoms: O_3  and  C_4
REMARK    4  A    between atoms: C_4  and  C_6
REMARK    5  A    between atoms: C_6  and  N_8
REMARK    6  A    between atoms: C_6  and  C_9
REMARK    7  A    between atoms: C_9  and  C_10
REMARK    8  A    between atoms: C_10  and  C_11
REMARK    9  A    between atoms: N_13  and  C_14
REMARK   10  A    between atoms: C_14  and  C_16
REMARK   11  A    between atoms: C_14  and  C_25
REMARK   12  A    between atoms: C_16  and  S_17
REMARK   13  A    between atoms: S_17  and  C_18
REMARK   14  A    between atoms: C_18  and  C_19
REMARK   15  A    between atoms: N_27  and  C_28
REMARK   16  A    between atoms: C_28  and  C_30
REMARK   17  A    between atoms: C_28  and  C_35
REMARK   18  A    between atoms: C_30  and  O_32
REMARK   19  A    between atoms: O_32  and  C_33
REMARK   20  A    between atoms: C_33  and  C_34
REMARK                            x       y       z     vdW  Elec       q    Type
REMARK                         _______ _______ _______ _____ _____    ______ ____
ROOT
ATOM      1  C   UNL     1      10.546   4.526   3.684  0.00  0.00    +0.169 C 
ENDROOT
BRANCH   1   3
ATOM      2  C   UNL     1       8.418   3.310   3.347  0.00  0.00    +0.214 C 
ATOM      3  N   UNL     1       9.082   4.497   3.564  0.00  0.00    -0.303 N 
ATOM      4  H   UNL     1       8.554   5.343   3.779  0.00  0.00    +0.149 HD
ATOM      5  O   UNL     1       9.001   2.245   3.174  0.00  0.00    -0.276 OA
BRANCH   2   6
ATOM      6  C   UNL     1       6.909   3.411   3.403  0.00  0.00    +0.098 C 
BRANCH   6   7
ATOM      7  C   UNL     1       6.350   3.231   4.817  0.00  0.00    +0.039 C 
BRANCH   7   8
ATOM      8  C   UNL     1       6.827   4.272   5.831  0.00  0.00    +0.161 C 
BRANCH   8   9
ATOM      9  N   UNL     1       6.294   3.953   7.175  0.00  0.00    -0.318 NA
ATOM     10  H   UNL     1       6.683   3.067   7.492  0.00  0.00    +0.119 HD
ATOM     11  H   UNL     1       6.620   4.659   7.838  0.00  0.00    +0.119 HD
ENDBRANCH   8   9
BRANCH   8  12
ATOM     12  C   UNL     1       6.416   5.681   5.384  0.00  0.00    +0.324 C 
ATOM     13  O   UNL     1       7.122   6.384   4.665  0.00  0.00    -0.249 OA
BRANCH  12  14
ATOM     14  O   UNL     1       5.191   6.018   5.866  0.00  0.00    -0.464 OA
BRANCH  14  16
ATOM     15  C   UNL     1       5.453   7.543   7.661  0.00  0.00    +0.048 C 
ATOM     16  C   UNL     1       5.016   7.393   6.213  0.00  0.00    +0.229 C 
ENDBRANCH  14  16
ENDBRANCH  12  14
ENDBRANCH   8  12
ENDBRANCH   7   8
ENDBRANCH   6   7
ENDBRANCH   2   6
ENDBRANCH   1   3
BRANCH   1  17
ATOM     17  C   UNL     1      10.961   5.673   4.621  0.00  0.00    +0.235 C 
ATOM     18  N   UNL     1      10.498   6.913   4.266  0.00  0.00    -0.297 N 
ATOM     19  H   UNL     1       9.970   7.043   3.411  0.00  0.00    +0.150 HD
ATOM     20  O   UNL     1      11.712   5.492   5.578  0.00  0.00    -0.274 OA
BRANCH  18  21
ATOM     21  C   UNL     1      10.947   8.132   4.940  0.00  0.00    +0.213 C 
BRANCH  21  22
ATOM     22  C   UNL     1      10.025   8.463   6.099  0.00  0.00    -0.017 A 
ATOM     23  C   UNL     1       8.720   8.909   5.851  0.00  0.00    +0.006 A 
ATOM     24  C   UNL     1       7.925   9.370   6.892  0.00  0.00    +0.000 A 
ATOM     25  C   UNL     1       8.376   9.288   8.206  0.00  0.00    +0.000 A 
ATOM     26  C   UNL     1       9.647   8.788   8.474  0.00  0.00    +0.000 A 
ATOM     27  C   UNL     1      10.478   8.395   7.424  0.00  0.00    +0.006 A 
ENDBRANCH  21  22
BRANCH  21  28
ATOM     28  C   UNL     1      11.014   9.343   3.975  0.00  0.00    +0.332 C 
ATOM     29  O   UNL     1      11.272  10.493   4.311  0.00  0.00    -0.248 OA
BRANCH  28  30
ATOM     30  O   UNL     1      10.638   8.972   2.711  0.00  0.00    -0.463 OA
BRANCH  30  31
ATOM     31  C   UNL     1      10.250  10.043   1.840  0.00  0.00    +0.229 C 
ATOM     32  C   UNL     1       8.738  10.155   1.909  0.00  0.00    +0.048 C 
ENDBRANCH  30  31
ENDBRANCH  28  30
ENDBRANCH  21  28
ENDBRANCH  18  21
ENDBRANCH   1  17
BRANCH   1  33
ATOM     33  C   UNL     1      11.204   4.655   2.301  0.00  0.00    +0.101 C 
BRANCH  33  34
ATOM     34  S   UNL     1      13.026   4.774   2.293  0.00  0.00    -0.154 S 
BRANCH  34  35
ATOM     35  C   UNL     1      13.450   3.165   3.033  0.00  0.00    +0.104 C 
BRANCH  35  36
ATOM     36  C   UNL     1      14.939   3.025   3.221  0.00  0.00    -0.038 A 
ATOM     37  C   UNL     1      15.755   2.590   2.167  0.00  0.00    +0.004 A 
ATOM     38  C   UNL     1      17.137   2.494   2.337  0.00  0.00    +0.000 A 
ATOM     39  C   UNL     1      17.717   2.833   3.557  0.00  0.00    +0.000 A 
ATOM     40  C   UNL     1      16.917   3.270   4.612  0.00  0.00    +0.000 A 
ATOM     41  C   UNL     1      15.535   3.367   4.444  0.00  0.00    +0.004 A 
ENDBRANCH  35  36
ENDBRANCH  34  35
ENDBRANCH  33  34
ENDBRANCH   1  33
TORSDOF 18
