REMARK  Name = 
REMARK  15 active torsions:
REMARK  status: ('A' for Active; 'I' for Inactive)
REMARK    1  A    between atoms: N_1  and  C_2
REMARK    2  A    between atoms: C_2  and  C_3
REMARK    3  A    between atoms: C_2  and  C_20
REMARK    4  A    between atoms: C_3  and  C_4
REMARK    5  A    between atoms: C_4  and  C_5
REMARK    6  A    between atoms: N_7  and  C_8
REMARK    7  A    between atoms: C_8  and  C_9
REMARK    8  A    between atoms: C_8  and  C_13
REMARK    9  A    between atoms: C_9  and  S_10
REMARK   10  A    between atoms: S_10  and  C_11
REMARK   11  A    between atoms: C_11  and  O_12
REMARK   12  A    between atoms: N_15  and  CA_16
REMARK   13  A    between atoms: CA_16  and  C_17
REMARK   14  A    between atoms: C_17  and  O_18
REMARK   15  A    between atoms: C_20  and  O_21
REMARK                            x       y       z     vdW  Elec       q    Type
REMARK                         _______ _______ _______ _____ _____    ______ ____
ROOT
ATOM      1  C   UNK A   1       3.175  -2.601  -5.736  0.00  0.00    +0.169 C 
ENDROOT
BRANCH   1   3
ATOM      2  C   UNK A   1       1.533  -2.001  -4.000  0.00  0.00    +0.214 C 
ATOM      3  N   UNK A   1       2.756  -2.534  -4.335  0.00  0.00    -0.303 N 
ATOM      4  H   UNK A   1       3.152  -3.223  -3.706  0.00  0.00    +0.149 HD
ATOM      5  O   UNK A   1       0.762  -1.530  -4.830  0.00  0.00    -0.276 OA
BRANCH   2   6
ATOM      6  C   UNK A   1       1.212  -2.034  -2.517  0.00  0.00    +0.098 C 
BRANCH   6   7
ATOM      7  C   UNK A   1       2.216  -1.209  -1.713  0.00  0.00    +0.039 C 
BRANCH   7   8
ATOM      8  C   UNK A   1       1.923  -1.160  -0.209  0.00  0.00    +0.161 C 
BRANCH   8   9
ATOM      9  N   UNK A   1       0.614  -0.512   0.096  0.00  0.00    -0.318 NA
ATOM     10  H   UNK A   1       0.417   0.194  -0.621  0.00  0.00    +0.119 HD
ATOM     11  H   UNK A   1      -0.124  -1.210  -0.029  0.00  0.00    +0.119 HD
ENDBRANCH   8   9
BRANCH   8  12
ATOM     12  C   UNK A   1       3.038  -0.366   0.502  0.00  0.00    +0.322 C 
ATOM     13  O   UNK A   1       4.234  -0.570   0.375  0.00  0.00    -0.249 OA
BRANCH  12  14
ATOM     14  O   UNK A   1       2.523   0.604   1.301  0.00  0.00    -0.480 OA
ATOM     15  H   UNK A   1       1.540   0.516   1.229  0.00  0.00    +0.295 HD
ENDBRANCH  12  14
ENDBRANCH   8  12
ENDBRANCH   7   8
ENDBRANCH   6   7
ENDBRANCH   2   6
ENDBRANCH   1   3
BRANCH   1  16
ATOM     16  C   UNK A   1       2.648  -3.928  -6.316  0.00  0.00    +0.235 C 
ATOM     17  N   GLY A   2       1.874  -3.794  -7.454  0.00  0.00    -0.303 N 
ATOM     18  H   GLY A   2       1.389  -2.906  -7.560  0.00  0.00    +0.149 HD
ATOM     19  O   UNK A   1       2.923  -5.017  -5.817  0.00  0.00    -0.274 OA
BRANCH  17  20
ATOM     20  CA  GLY A   2       1.227  -4.958  -8.064  0.00  0.00    +0.224 C 
BRANCH  20  21
ATOM     21  C   GLY A   2       2.040  -5.590  -9.195  0.00  0.00    +0.322 C 
ATOM     22  OXT GLY A   2       1.668  -6.563  -9.834  0.00  0.00    -0.249 OA
BRANCH  21  23
ATOM     23  O   GLY A   2       3.199  -4.943  -9.466  0.00  0.00    -0.480 OA
ATOM     24  H   GLY A   2       3.333  -4.203  -8.839  0.00  0.00    +0.295 HD
ENDBRANCH  21  23
ENDBRANCH  20  21
ENDBRANCH  17  20
ENDBRANCH   1  16
BRANCH   1  25
ATOM     25  C   UNK A   1       4.704  -2.561  -5.848  0.00  0.00    +0.103 C 
BRANCH  25  26
ATOM     26  S   UNK A   1       5.265  -2.556  -7.590  0.00  0.00    -0.131 S 
BRANCH  26  27
ATOM     27  C   UNK A   1       7.048  -2.553  -7.292  0.00  0.00    +0.225 C 
BRANCH  27  28
ATOM     28  O   UNK A   1       7.725  -2.593  -8.531  0.00  0.00    -0.385 OA
ATOM     29  H   UNK A   1       7.068  -2.930  -9.164  0.00  0.00    +0.211 HD
ENDBRANCH  27  28
ENDBRANCH  26  27
ENDBRANCH  25  26
ENDBRANCH   1  25
TORSDOF 15
