REMARK  Name = 
REMARK  15 active torsions:
REMARK  status: ('A' for Active; 'I' for Inactive)
REMARK    1  A    between atoms: C_2  and  C_26
REMARK    2  A    between atoms: C_3  and  O_5
REMARK    3  A    between atoms: O_5  and  C_6
REMARK    4  A    between atoms: C_7  and  O_14
REMARK    5  A    between atoms: O_14  and  C_15
REMARK    6  A    between atoms: N_17  and  C_18
REMARK    7  A    between atoms: C_18  and  C_20
REMARK    8  A    between atoms: C_18  and  C_23
REMARK    9  A    between atoms: C_20  and  C_21
REMARK   10  A    between atoms: C_20  and  C_22
REMARK   11  A    between atoms: C_26  and  C_27
REMARK   12  A    between atoms: C_29  and  C_31
REMARK   13  A    between atoms: C_31  and  C_32
REMARK   14  A    between atoms: C_33  and  C_34
REMARK   15  A    between atoms: C_33  and  C_35
REMARK                            x       y       z     vdW  Elec       q    Type
REMARK                         _______ _______ _______ _____ _____    ______ ____
ROOT
ATOM      1  C   UNL     1       4.384  -6.677   0.347  0.00  0.00    +0.090 C 
ATOM      2  C   UNL     1       3.164  -5.905   0.865  0.00  0.00    +0.101 C 
ATOM      3  O   UNL     1       1.919  -6.131   0.187  0.00  0.00    -0.368 OA
ATOM      4  C   UNL     1       2.017  -6.691   1.494  0.00  0.00    +0.196 C 
ATOM      5  C   UNL     1       3.380  -4.474   1.269  0.00  0.00    +0.041 C 
ATOM      6  C   UNL     1       4.507  -4.352   2.290  0.00  0.00    +0.050 C 
ATOM      7  C   UNL     1       5.789  -5.026   1.781  0.00  0.00    +0.207 C 
ATOM      8  C   UNL     1       5.508  -6.533   1.447  0.00  0.00    +0.167 C 
ENDROOT
BRANCH   1   9
ATOM      9  C   UNL     1       4.749  -6.375  -1.129  0.00  0.00    +0.101 C 
ATOM     10  C   UNL     1       6.201  -6.346  -1.645  0.00  0.00    +0.155 C 
ATOM     11  O   UNL     1       5.452  -5.152  -1.338  0.00  0.00    -0.364 OA
ATOM     12  C   UNL     1       3.693  -6.690  -2.161  0.00  0.00    +0.045 C 
BRANCH  10  13
ATOM     13  C   UNL     1       6.607  -6.404  -3.106  0.00  0.00    +0.061 C 
BRANCH  13  14
ATOM     14  C   UNL     1       7.306  -7.671  -3.535  0.00  0.00    -0.026 C 
ATOM     15  C   UNL     1       6.967  -8.553  -4.500  0.00  0.00    -0.080 C 
ATOM     16  C   UNL     1       7.870  -9.723  -4.810  0.00  0.00    +0.038 C 
ATOM     17  C   UNL     1       5.735  -8.501  -5.363  0.00  0.00    +0.038 C 
ENDBRANCH  13  14
ENDBRANCH  10  13
ENDBRANCH   1   9
BRANCH   8  18
ATOM     18  O   UNL     1       5.048  -7.130   2.692  0.00  0.00    -0.376 OA
ATOM     19  C   UNL     1       4.966  -8.545   2.724  0.00  0.00    +0.194 C 
ENDBRANCH   8  18
BRANCH   7  20
ATOM     20  O   UNL     1       6.811  -4.806   2.804  0.00  0.00    -0.444 OA
BRANCH  20  21
ATOM     21  C   UNL     1       8.087  -4.907   2.361  0.00  0.00    +0.401 C 
ATOM     22  N   UNL     1       9.057  -4.435   3.193  0.00  0.00    -0.270 N 
ATOM     23  H   UNL     1       9.965  -4.542   2.761  0.00  0.00    +0.153 HD
ATOM     24  O   UNL     1       8.400  -5.311   1.247  0.00  0.00    -0.226 OA
BRANCH  22  25
ATOM     25  C   UNL     1       9.090  -4.013   4.603  0.00  0.00    +0.164 C 
BRANCH  25  26
ATOM     26  C   UNL     1       8.424  -2.660   4.947  0.00  0.00    +0.231 C 
ATOM     27  O   UNL     1       8.205  -2.276   6.091  0.00  0.00    -0.274 OA
ATOM     28  N   UNL     1       8.279  -1.788   3.906  0.00  0.00    -0.328 N 
ATOM     29  H   UNL     1       7.828  -0.906   4.103  0.00  0.00    +0.145 HD
ATOM     30  H   UNL     1       8.268  -2.129   2.955  0.00  0.00    +0.145 HD
ENDBRANCH  25  26
BRANCH  25  31
ATOM     31  C   UNL     1       8.841  -5.103   5.672  0.00  0.00    +0.012 C 
ATOM     32  C   UNL     1       9.636  -6.380   5.382  0.00  0.00    +0.009 C 
ATOM     33  C   UNL     1       7.369  -5.420   5.911  0.00  0.00    +0.009 C 
ENDBRANCH  25  31
ENDBRANCH  22  25
ENDBRANCH  20  21
ENDBRANCH   7  20
TORSDOF 9
