REMARK  Name = 
REMARK  5 active torsions:
REMARK  status: ('A' for Active; 'I' for Inactive)
REMARK    1  A    between atoms: N1_6  and  C1*_9
REMARK    2  A    between atoms: C4*_11  and  C5*_12
REMARK    3  A    between atoms: C5*_12  and  O5*_13
REMARK    4  A    between atoms: C3*_14  and  O3*_15
REMARK    5  A    between atoms: C2*_16  and  O2*_17
REMARK                            x       y       z     vdW  Elec       q    Type
REMARK                         _______ _______ _______ _____ _____    ______ ____
ROOT
ATOM      1  C1*   C A   1       6.670  -0.092   0.186  0.00  0.00    +0.255 C 
ATOM      2  C2*   C A   1       7.331  -1.392   0.717  0.00  0.00    +0.195 C 
ATOM      3  C3*   C A   1       8.443  -0.892   1.645  0.00  0.00    +0.178 C 
ATOM      4  C4*   C A   1       8.568   0.590   1.327  0.00  0.00    +0.177 C 
ATOM      5  O4*   C A   1       7.259   1.011   0.901  0.00  0.00    -0.346 OA
ENDROOT
BRANCH   1  12
ATOM      6  N4    C A   1       1.201   0.432  -0.129  0.00  0.00    -0.343 N 
ATOM      7  H41   C A   1       0.652   0.668   0.684  0.00  0.00    +0.144 HD
ATOM      8  H42   C A   1       0.772  -0.262  -0.730  0.00  0.00    +0.144 HD
ATOM      9  C4    C A   1       2.547   0.264   0.021  0.00  0.00    +0.123 A 
ATOM     10  C5    C A   1       3.247   0.995   1.085  0.00  0.00    +0.061 A 
ATOM     11  C6    C A   1       4.567   0.813   1.150  0.00  0.00    +0.096 A 
ATOM     12  N1    C A   1       5.217  -0.019   0.257  0.00  0.00    -0.270 N 
ATOM     13  C2    C A   1       4.510  -0.714  -0.733  0.00  0.00    +0.352 A 
ATOM     14  O2    C A   1       5.101  -1.446  -1.523  0.00  0.00    -0.244 OA
ATOM     15  N3    C A   1       3.148  -0.543  -0.800  0.00  0.00    -0.178 NA
ENDBRANCH   1  12
BRANCH   2  16
ATOM     16  O2*   C A   1       7.965  -2.195  -0.297  0.00  0.00    -0.385 OA
ATOM     17  H2*   C A   1       7.620  -1.937  -1.173  0.00  0.00    +0.210 HD
ENDBRANCH   2  16
BRANCH   3  18
ATOM     18  O3*   C A   1       9.670  -1.596   1.478  0.00  0.00    -0.386 OA
ATOM     19  H3*   C A   1       9.569  -2.113   0.649  0.00  0.00    +0.210 HD
ENDBRANCH   3  18
BRANCH   4  20
ATOM     20  C5*   C A   1       9.572   0.939   0.223  0.00  0.00    +0.190 C 
BRANCH  20  21
ATOM     21  O5*   C A   1       9.528   2.348  -0.026  0.00  0.00    -0.392 OA
ATOM     22  H5*   C A   1       8.585   2.601  -0.023  0.00  0.00    +0.210 HD
ENDBRANCH  20  21
ENDBRANCH   4  20
TORSDOF 5
