REMARK  Name = 
REMARK  8 active torsions:
REMARK  status: ('A' for Active; 'I' for Inactive)
REMARK    1  A    between atoms: C_5  and  O_6
REMARK    2  A    between atoms: C_5  and  C_7
REMARK    3  A    between atoms: C_7  and  C_9
REMARK    4  A    between atoms: C_9  and  O_10
REMARK    5  A    between atoms: O_10  and  C_11
REMARK    6  A    between atoms: C_11  and  C_12
REMARK    7  A    between atoms: C_14  and  C_15
REMARK    8  A    between atoms: C_29  and  C_30
REMARK                            x       y       z     vdW  Elec       q    Type
REMARK                         _______ _______ _______ _____ _____    ______ ____
ROOT
ATOM      1  C   UNL     1      -0.000  -0.000   0.000  0.00  0.00    +0.006 C 
ATOM      2  C   UNL     1      -0.000  -0.000  -0.000  0.00  0.00    +0.020 C 
ATOM      3  C   UNL     1      -0.000  -0.000   0.000  0.00  0.00    +0.012 C 
ATOM      4  C   UNL     1      -0.000  -0.000   0.000  0.00  0.00    +0.032 C 
ATOM      5  C   UNL     1      -0.000  -0.000  -0.000  0.00  0.00    -0.056 C 
ATOM      6  C   UNL     1      -0.000  -0.000   0.000  0.00  0.00    +0.011 C 
ATOM      7  C   UNL     1      -0.000  -0.000   0.000  0.00  0.00    +0.020 C 
ATOM      8  C   UNL     1      -0.000  -0.000  -0.000  0.00  0.00    +0.023 C 
ATOM      9  C   UNL     1      -0.000  -0.000  -0.000  0.00  0.00    +0.080 C 
ATOM     10  C   UNL     1      -0.000  -0.000   0.000  0.00  0.00    +0.156 C 
ATOM     11  O   UNL     1      -0.000  -0.000   0.000  0.00  0.00    -0.293 OA
ATOM     12  C   UNL     1      -0.000  -0.000  -0.000  0.00  0.00    +0.046 C 
ATOM     13  C   UNL     1      -0.000  -0.000   0.000  0.00  0.00    -0.060 C 
ATOM     14  C   UNL     1      -0.000  -0.000   0.000  0.00  0.00    -0.026 C 
ATOM     15  C   UNL     1      -0.000  -0.000  -0.000  0.00  0.00    +0.037 C 
ATOM     16  C   UNL     1      -0.000  -0.000   0.000  0.00  0.00    +0.011 C 
ATOM     17  C   UNL     1      -0.000  -0.000  -0.000  0.00  0.00    +0.015 C 
ATOM     18  C   UNL     1      -0.000  -0.000   0.000  0.00  0.00    +0.133 C 
ATOM     19  C   UNL     1      -0.000  -0.000  -0.000  0.00  0.00    +0.043 C 
ATOM     20  C   UNL     1      -0.000  -0.000  -0.000  0.00  0.00    +0.008 C 
ENDROOT
BRANCH  18  21
ATOM     21  C   UNL     1      -0.000  -0.000  -0.000  0.00  0.00    +0.202 C 
ATOM     22  O   UNL     1      -0.000  -0.000  -0.000  0.00  0.00    -0.291 OA
BRANCH  21  23
ATOM     23  C   UNL     1      -0.000  -0.000   0.000  0.00  0.00    +0.309 C 
BRANCH  23  24
ATOM     24  O   UNL     1      -0.000  -0.000   0.000  0.00  0.00    -0.457 OA
BRANCH  24  25
ATOM     25  C   UNL     1      -0.000  -0.000   0.000  0.00  0.00    +0.304 C 
ATOM     26  O   UNL     1      -0.000  -0.000   0.000  0.00  0.00    -0.251 OA
ATOM     27  C   UNL     1      -0.000  -0.000   0.000  0.00  0.00    +0.136 C 
ENDBRANCH  24  25
ENDBRANCH  23  24
ENDBRANCH  21  23
ENDBRANCH  18  21
BRANCH  18  28
ATOM     28  O   UNL     1      -0.000  -0.000   0.000  0.00  0.00    -0.380 OA
ATOM     29  H   UNL     1       0.000   0.000   0.000  0.00  0.00    +0.211 HD
ENDBRANCH  18  28
TORSDOF 5
