REMARK  Name = 
REMARK  7 active torsions:
REMARK  status: ('A' for Active; 'I' for Inactive)
REMARK    1  A    between atoms: O_1  and  C_2
REMARK    2  A    between atoms: C_2  and  C_4
REMARK    3  A    between atoms: C_2  and  C_16
REMARK    4  A    between atoms: C_4  and  O_5
REMARK    5  A    between atoms: O_5  and  N_6
REMARK    6  A    between atoms: C_7  and  C_9
REMARK    7  A    between atoms: C_16  and  N_17
REMARK                            x       y       z     vdW  Elec       q    Type
REMARK                         _______ _______ _______ _____ _____    ______ ____
ROOT
ATOM      1  C   UNL     1       2.394  -1.223  -0.904  0.00  0.00    +0.295 C 
ENDROOT
BRANCH   1   2
ATOM      2  C   UNL     1       2.258  -0.108   0.137  0.00  0.00    +0.168 C 
BRANCH   2   3
ATOM      3  O   UNL     1       0.888   0.105   0.502  0.00  0.00    -0.387 OA
ATOM      4  H   UNL     1       0.484  -0.779   0.578  0.00  0.00    +0.210 HD
ENDBRANCH   2   3
BRANCH   2   5
ATOM      5  C   UNL     1       2.924   1.216  -0.325  0.00  0.00    +0.119 C 
BRANCH   5   6
ATOM      6  N   UNL     1       2.502   1.774  -1.632  0.00  0.00    -0.300 NA
ATOM      7  C   UNL     1       3.343   2.920  -2.030  0.00  0.00    +0.084 C 
ATOM      8  C   UNL     1       3.102   4.199  -1.219  0.00  0.00    +0.015 C 
ATOM      9  C   UNL     1       1.625   4.581  -1.180  0.00  0.00    +0.002 C 
ATOM     10  C   UNL     1       0.754   3.386  -0.806  0.00  0.00    +0.015 C 
ATOM     11  C   UNL     1       1.085   2.174  -1.683  0.00  0.00    +0.084 C 
ENDBRANCH   5   6
ENDBRANCH   2   5
ENDBRANCH   1   2
BRANCH   1  12
ATOM     12  O   UNL     1       1.807  -2.428  -0.389  0.00  0.00    -0.390 OA
BRANCH  12  13
ATOM     13  N   UNL     1       2.007  -3.446  -1.342  0.00  0.00    -0.072 NA
ATOM     14  C   UNL     1       1.471  -4.590  -1.020  0.00  0.00    +0.181 C 
ATOM     15 CL   UNL     1       0.590  -4.778   0.463  0.00  0.00    -0.058 Cl
BRANCH  14  16
ATOM     16  C   UNL     1       1.652  -5.736  -1.968  0.00  0.00    +0.080 A 
ATOM     17  C   UNL     1       2.372  -5.549  -3.155  0.00  0.00    +0.023 A 
ATOM     18  C   UNL     1       2.584  -6.611  -4.030  0.00  0.00    +0.072 A 
ATOM     19  C   UNL     1       2.066  -7.861  -3.711  0.00  0.00    +0.322 A 
ATOM     20  N   UNL     1       1.339  -8.066  -2.550  0.00  0.00    -0.177 N 
ATOM     21  O   UNL     1       0.873  -9.213  -2.277  0.00  0.00    -0.620 OA
ATOM     22  C   UNL     1       1.135  -7.001  -1.688  0.00  0.00    +0.333 A 
ENDBRANCH  14  16
ENDBRANCH  12  13
ENDBRANCH   1  12
TORSDOF 7
