REMARK  Name = 
REMARK  29 active torsions:
REMARK  status: ('A' for Active; 'I' for Inactive)
REMARK    1  A    between atoms: C_1  and  C_2
REMARK    2  A    between atoms: C_2  and  C_3
REMARK    3  A    between atoms: C_2  and  C_4
REMARK    4  A    between atoms: C_2  and  C_5
REMARK    5  A    between atoms: C_7  and  S_8
REMARK    6  A    between atoms: S_8  and  C_9
REMARK    7  A    between atoms: C_9  and  C_10
REMARK    8  A    between atoms: C_9  and  C_11
REMARK    9  A    between atoms: C_9  and  S_12
REMARK   10  A    between atoms: S_12  and  C_13
REMARK   11  A    between atoms: C_15  and  C_31
REMARK   12  A    between atoms: C_16  and  O_17
REMARK   13  A    between atoms: O_17  and  C_18
REMARK   14  A    between atoms: C_18  and  C_20
REMARK   15  A    between atoms: C_20  and  C_21
REMARK   16  A    between atoms: C_21  and  C_22
REMARK   17  A    between atoms: C_22  and  O_23
REMARK   18  A    between atoms: C_25  and  C_27
REMARK   19  A    between atoms: C_27  and  C_28
REMARK   20  A    between atoms: C_27  and  C_29
REMARK   21  A    between atoms: C_27  and  C_30
REMARK   22  A    between atoms: C_31  and  C_32
REMARK   23  A    between atoms: C_31  and  C_33
REMARK   24  A    between atoms: C_31  and  C_34
REMARK   25  A    between atoms: C_36  and  C_39
REMARK   26  A    between atoms: C_37  and  O_38
REMARK   27  A    between atoms: C_39  and  C_40
REMARK   28  A    between atoms: C_39  and  C_41
REMARK   29  A    between atoms: C_39  and  C_42
REMARK                            x       y       z     vdW  Elec       q    Type
REMARK                         _______ _______ _______ _____ _____    ______ ____
ROOT
ATOM      1  C   UNL     1       5.778  -1.029   9.095  0.00  0.00    +0.010 A 
ATOM      2  C   UNL     1       5.019  -0.893  10.247  0.00  0.00    +0.022 A 
ATOM      3  C   UNL     1       5.217  -1.705  11.400  0.00  0.00    +0.002 A 
ATOM      4  C   UNL     1       6.147  -2.804  11.269  0.00  0.00    +0.139 A 
ATOM      5  C   UNL     1       6.900  -2.992  10.072  0.00  0.00    +0.002 A 
ATOM      6  C   UNL     1       6.743  -2.016   9.070  0.00  0.00    +0.022 A 
ENDROOT
BRANCH   3   7
ATOM      7  C   UNL     1       4.457  -1.245  12.683  0.00  0.00    -0.009 C 
ATOM      8  C   UNL     1       3.104  -1.969  12.822  0.00  0.00    +0.015 C 
ATOM      9  C   UNL     1       4.118   0.285  12.661  0.00  0.00    +0.015 C 
ATOM     10  C   UNL     1       5.282  -1.463  13.964  0.00  0.00    +0.015 C 
ENDBRANCH   3   7
BRANCH   5  11
ATOM     11  C   UNL     1       7.892  -4.118   9.741  0.00  0.00    -0.009 C 
ATOM     12  C   UNL     1       7.152  -5.479   9.816  0.00  0.00    +0.015 C 
ATOM     13  C   UNL     1       9.161  -3.884  10.587  0.00  0.00    +0.015 C 
ATOM     14  C   UNL     1       8.459  -4.148   8.282  0.00  0.00    +0.015 C 
ENDBRANCH   5  11
BRANCH   1  15
ATOM     15  S   UNL     1       5.639   0.130   7.746  0.00  0.00    -0.108 S 
BRANCH  15  16
ATOM     16  C   UNL     1       4.965  -0.900   6.326  0.00  0.00    +0.066 C 
ATOM     17  C   UNL     1       3.614  -1.485   6.737  0.00  0.00    +0.035 C 
ATOM     18  C   UNL     1       4.802   0.091   5.165  0.00  0.00    +0.035 C 
BRANCH  16  19
ATOM     19  S   UNL     1       6.177  -2.225   5.856  0.00  0.00    -0.108 S 
BRANCH  19  24
ATOM     20  C   UNL     1       5.432  -2.991   1.950  0.00  0.00    +0.001 A 
ATOM     21  C   UNL     1       4.508  -4.061   2.051  0.00  0.00    +0.124 A 
ATOM     22  C   UNL     1       4.099  -4.637   3.281  0.00  0.00    +0.001 A 
ATOM     23  C   UNL     1       4.609  -4.034   4.449  0.00  0.00    +0.022 A 
ATOM     24  C   UNL     1       5.490  -2.952   4.392  0.00  0.00    +0.010 A 
ATOM     25  C   UNL     1       5.925  -2.478   3.158  0.00  0.00    +0.022 A 
BRANCH  20  27
ATOM     26  C   UNL     1       6.880  -1.189   0.778  0.00  0.00    +0.015 C 
ATOM     27  C   UNL     1       5.897  -2.380   0.607  0.00  0.00    -0.009 C 
ATOM     28  C   UNL     1       6.649  -3.431  -0.238  0.00  0.00    +0.015 C 
ATOM     29  C   UNL     1       4.697  -1.824  -0.188  0.00  0.00    +0.015 C 
ENDBRANCH  20  27
BRANCH  22  30
ATOM     30  C   UNL     1       3.088  -5.808   3.404  0.00  0.00    -0.009 C 
ATOM     31  C   UNL     1       3.294  -6.647   4.695  0.00  0.00    +0.015 C 
ATOM     32  C   UNL     1       3.154  -6.840   2.252  0.00  0.00    +0.015 C 
ATOM     33  C   UNL     1       1.668  -5.210   3.449  0.00  0.00    +0.015 C 
ENDBRANCH  22  30
BRANCH  21  34
ATOM     34  O   UNL     1       3.964  -4.533   0.891  0.00  0.00    -0.506 OA
ATOM     35  H   UNL     1       4.507  -5.299   0.644  0.00  0.00    +0.292 HD
ENDBRANCH  21  34
ENDBRANCH  19  24
ENDBRANCH  16  19
ENDBRANCH  15  16
ENDBRANCH   1  15
BRANCH   4  36
ATOM     36  O   UNL     1       6.273  -3.713  12.431  0.00  0.00    -0.425 OA
BRANCH  36  37
ATOM     37  C   UNL     1       7.080  -4.778  12.947  0.00  0.00    +0.313 C 
ATOM     38  O   UNL     1       8.052  -5.321  12.417  0.00  0.00    -0.250 OA
BRANCH  37  39
ATOM     39  C   UNL     1       6.545  -5.356  14.216  0.00  0.00    +0.132 C 
BRANCH  39  40
ATOM     40  C   UNL     1       5.551  -6.443  13.848  0.00  0.00    +0.131 C 
BRANCH  40  41
ATOM     41  C   UNL     1       5.276  -7.378  14.996  0.00  0.00    +0.305 C 
ATOM     42  O   UNL     1       5.778  -7.300  16.107  0.00  0.00    -0.251 OA
BRANCH  41  43
ATOM     43  O   UNL     1       4.390  -8.341  14.661  0.00  0.00    -0.481 OA
ATOM     44  H   UNL     1       4.082  -8.292  13.735  0.00  0.00    +0.295 HD
ENDBRANCH  41  43
ENDBRANCH  40  41
ENDBRANCH  39  40
ENDBRANCH  37  39
ENDBRANCH  36  37
ENDBRANCH   4  36
TORSDOF 15
