REMARK  Name = 
REMARK  13 active torsions:
REMARK  status: ('A' for Active; 'I' for Inactive)
REMARK    1  A    between atoms: C_1  and  O_2
REMARK    2  A    between atoms: O_2  and  C_3
REMARK    3  A    between atoms: C_9  and  O_10
REMARK    4  A    between atoms: O_10  and  C_11
REMARK    5  A    between atoms: C_17  and  N_39
REMARK    6  A    between atoms: C_29  and  C_30
REMARK    7  A    between atoms: C_30  and  O_31
REMARK    8  A    between atoms: C_40  and  O_42
REMARK    9  A    between atoms: O_42  and  C_43
REMARK   10  A    between atoms: C_49  and  C_51
REMARK   11  A    between atoms: N_55  and  C_56
REMARK   12  A    between atoms: C_56  and  C_57
REMARK   13  A    between atoms: C_56  and  C_58
REMARK                            x       y       z     vdW  Elec       q    Type
REMARK                         _______ _______ _______ _____ _____    ______ ____
ROOT
ATOM      1  C   UNL     1      -0.000  -0.000  -0.000  0.00  0.00    +0.193 C 
ATOM      2  C   UNL     1      -0.000  -0.000  -0.000  0.00  0.00    +0.078 C 
ATOM      3  C   UNL     1      -0.000  -0.000  -0.000  0.00  0.00    +0.166 C 
ATOM      4  N   UNL     1      -0.000  -0.000  -0.000  0.00  0.00    -0.285 N 
ATOM      5  C   UNL     1      -0.000  -0.000  -0.000  0.00  0.00    +0.237 C 
ATOM      6  O   UNL     1      -0.000  -0.000  -0.000  0.00  0.00    -0.274 OA
ATOM      7  C   UNL     1      -0.000  -0.000  -0.000  0.00  0.00    +0.162 C 
ATOM      8  C   UNL     1      -0.000  -0.000  -0.000  0.00  0.00    +0.032 C 
ATOM      9  C   UNL     1      -0.000  -0.000  -0.000  0.00  0.00    +0.002 C 
ATOM     10  C   UNL     1      -0.000  -0.000  -0.000  0.00  0.00    +0.000 C 
ATOM     11  C   UNL     1      -0.000  -0.000  -0.000  0.00  0.00    +0.004 C 
ATOM     12  C   UNL     1      -0.000  -0.000  -0.000  0.00  0.00    +0.027 C 
ATOM     13  C   UNL     1      -0.000  -0.000  -0.000  0.00  0.00    -0.031 C 
ATOM     14  C   UNL     1      -0.000  -0.000  -0.000  0.00  0.00    -0.025 C 
ATOM     15  C   UNL     1      -0.000  -0.000  -0.000  0.00  0.00    +0.048 C 
ATOM     16  C   UNL     1      -0.000  -0.000  -0.000  0.00  0.00    +0.138 C 
ATOM     17  N   UNL     1      -0.000  -0.000  -0.000  0.00  0.00    -0.298 N 
ATOM     18  H   UNL     1       0.000   0.000   0.000  0.00  0.00    +0.150 HD
ATOM     19  C   UNL     1      -0.000  -0.000  -0.000  0.00  0.00    +0.048 C 
ATOM     20  C   UNL     1      -0.000  -0.000  -0.000  0.00  0.00    +0.235 C 
ATOM     21  O   UNL     1      -0.000  -0.000  -0.000  0.00  0.00    -0.274 OA
ATOM     22  C   UNL     1      -0.000  -0.000  -0.000  0.00  0.00    +0.153 C 
ENDROOT
BRANCH   7  23
ATOM     23  N   UNL     1      -0.000  -0.000  -0.000  0.00  0.00    -0.270 N 
ATOM     24  H   UNL     1      -0.000  -0.000  -0.000  0.00  0.00    +0.153 HD
ATOM     25  C   UNL     1      -0.000  -0.000  -0.000  0.00  0.00    +0.401 C 
ATOM     26  O   UNL     1      -0.000  -0.000  -0.000  0.00  0.00    -0.226 OA
BRANCH  25  27
ATOM     27  O   UNL     1      -0.000  -0.000  -0.000  0.00  0.00    -0.447 OA
BRANCH  27  28
ATOM     28  C   UNL     1      -0.000  -0.000  -0.000  0.00  0.00    +0.178 C 
ATOM     29  C   UNL     1      -0.000  -0.000  -0.000  0.00  0.00    +0.045 C 
ATOM     30  C   UNL     1      -0.000  -0.000  -0.000  0.00  0.00    +0.004 C 
ATOM     31  C   UNL     1      -0.000  -0.000  -0.000  0.00  0.00    +0.004 C 
ATOM     32  C   UNL     1      -0.000  -0.000  -0.000  0.00  0.00    +0.045 C 
ENDBRANCH  27  28
ENDBRANCH  25  27
ENDBRANCH   7  23
BRANCH  16  33
ATOM     33  C   UNL     1      -0.000  -0.000  -0.000  0.00  0.00    +0.329 C 
ATOM     34  O   UNL     1      -0.000  -0.000  -0.000  0.00  0.00    -0.249 OA
BRANCH  33  35
ATOM     35  O   UNL     1      -0.000  -0.000  -0.000  0.00  0.00    -0.479 OA
ATOM     36  H   UNL     1      -0.000  -0.000  -0.000  0.00  0.00    +0.295 HD
ENDBRANCH  33  35
ENDBRANCH  16  33
BRANCH   1  37
ATOM     37  O   UNL     1      -0.000  -0.000  -0.000  0.00  0.00    -0.486 OA
BRANCH  37  42
ATOM     38  C   UNL     1      -0.000  -0.000  -0.000  0.00  0.00    +0.122 A 
ATOM     39  C   UNL     1      -0.000  -0.000  -0.000  0.00  0.00    +0.046 A 
ATOM     40  C   UNL     1      -0.000  -0.000  -0.000  0.00  0.00    +0.017 A 
ATOM     41  C   UNL     1      -0.000  -0.000  -0.000  0.00  0.00    +0.042 A 
ATOM     42  C   UNL     1      -0.000  -0.000  -0.000  0.00  0.00    +0.132 A 
ATOM     43  C   UNL     1      -0.000  -0.000  -0.000  0.00  0.00    +0.076 A 
ATOM     44  C   UNL     1      -0.000  -0.000  -0.000  0.00  0.00    +0.094 A 
ATOM     45  N   UNL     1      -0.000  -0.000  -0.000  0.00  0.00    -0.245 NA
ATOM     46  C   UNL     1      -0.000  -0.000  -0.000  0.00  0.00    +0.079 A 
ATOM     47  C   UNL     1      -0.000  -0.000  -0.000  0.00  0.00    +0.074 A 
BRANCH  44  48
ATOM     48  C   UNL     1      -0.000  -0.000  -0.000  0.00  0.00    +0.098 A 
ATOM     49  N   UNL     1      -0.000  -0.000  -0.000  0.00  0.00    -0.223 NA
ATOM     50  C   UNL     1      -0.000  -0.000  -0.000  0.00  0.00    +0.159 A 
ATOM     51  N   UNL     1      -0.000  -0.000   0.000  0.00  0.00    -0.321 N 
ATOM     52  H   UNL     1      -0.000  -0.000  -0.000  0.00  0.00    +0.148 HD
ATOM     53  S   UNL     1      -0.000  -0.000  -0.000  0.00  0.00    -0.060 S 
ATOM     54  C   UNL     1      -0.000  -0.000  -0.000  0.00  0.00    +0.078 A 
BRANCH  51  55
ATOM     55  C   UNL     1      -0.000  -0.000  -0.000  0.00  0.00    +0.066 C 
ATOM     56  C   UNL     1      -0.000  -0.000  -0.000  0.00  0.00    +0.027 C 
ATOM     57  C   UNL     1      -0.000  -0.000  -0.000  0.00  0.00    +0.027 C 
ENDBRANCH  51  55
ENDBRANCH  44  48
BRANCH  38  59
ATOM     58  C   UNL     1       0.000   0.000  -0.000  0.00  0.00    +0.277 C 
ATOM     59  O   UNL     1      -0.000  -0.000  -0.000  0.00  0.00    -0.495 OA
ENDBRANCH  38  59
ENDBRANCH  37  42
ENDBRANCH   1  37
TORSDOF 10
