REMARK  Name = 
REMARK  3 active torsions:
REMARK  status: ('A' for Active; 'I' for Inactive)
REMARK    1  A    between atoms: C_1  and  C_2
REMARK    2  A    between atoms: C_15  and  C_16
REMARK    3  A    between atoms: C_17  and  O_18
REMARK                            x       y       z     vdW  Elec       q    Type
REMARK                         _______ _______ _______ _____ _____    ______ ____
ROOT
ATOM      1  C   UNL     1       3.425  -0.222  -1.748  0.00  0.00    +0.008 C 
ATOM      2  C   UNL     1       3.406  -0.357  -0.223  0.00  0.00    -0.006 C 
ATOM      3  C   UNL     1       4.221  -1.538   0.377  0.00  0.00    -0.000 C 
ATOM      4  C   UNL     1       5.717  -1.411  -0.022  0.00  0.00    -0.000 C 
ATOM      5  C   UNL     1       6.581  -2.597   0.431  0.00  0.00    +0.005 C 
ATOM      6  C   UNL     1       5.938  -3.942   0.223  0.00  0.00    +0.010 C 
ATOM      7  C   UNL     1       4.515  -4.085   0.766  0.00  0.00    -0.003 C 
ATOM      8  C   UNL     1       4.298  -3.973   2.303  0.00  0.00    +0.121 C 
ATOM      9  C   UNL     1       2.773  -3.837   2.407  0.00  0.00    +0.032 C 
ATOM     10  C   UNL     1       2.332  -3.115   1.117  0.00  0.00    +0.007 C 
ATOM     11  C   UNL     1       4.044  -5.496   0.316  0.00  0.00    +0.014 C 
ATOM     12  C   UNL     1       6.297  -0.110   0.607  0.00  0.00    +0.019 C 
ATOM     13  C   UNL     1       5.412   1.114   0.425  0.00  0.00    -0.063 C 
ATOM     14  C   UNL     1       5.922   2.361   0.379  0.00  0.00    +0.045 C 
ATOM     15  C   UNL     1       7.395   2.596   0.529  0.00  0.00    +0.156 C 
ATOM     16  C   UNL     1       8.292   1.425   0.795  0.00  0.00    +0.079 C 
ATOM     17  O   UNL     1       7.813   3.755   0.517  0.00  0.00    -0.293 OA
ATOM     18  C   UNL     1       7.737   0.169   0.135  0.00  0.00    +0.016 C 
ATOM     19  C   UNL     1       3.593  -2.958   0.221  0.00  0.00    +0.001 C 
ATOM     20  C   UNL     1       3.914   0.935   0.452  0.00  0.00    +0.034 C 
ENDROOT
BRANCH   8  21
ATOM     21  O   UNL     1       4.927  -2.845   2.903  0.00  0.00    -0.391 OA
ATOM     22  H   UNL     1       4.264  -2.332   3.398  0.00  0.00    +0.210 HD
ENDBRANCH   8  21
TORSDOF 1
