REMARK  Name = 
REMARK  17 active torsions:
REMARK  status: ('A' for Active; 'I' for Inactive)
REMARK    1  A    between atoms: C_1  and  C_2
REMARK    2  A    between atoms: C_2  and  C_3
REMARK    3  A    between atoms: C_4  and  C_5
REMARK    4  A    between atoms: C_5  and  O_6
REMARK    5  A    between atoms: O_6  and  C_7
REMARK    6  A    between atoms: C_10  and  C_11
REMARK    7  A    between atoms: C_12  and  C_13
REMARK    8  A    between atoms: C_13  and  C_15
REMARK    9  A    between atoms: C_16  and  O_17
REMARK   10  A    between atoms: O_17  and  C_18
REMARK   11  A    between atoms: C_18  and  C_19
REMARK   12  A    between atoms: C_19  and  O_20
REMARK   13  A    between atoms: C_23  and  O_24
REMARK   14  A    between atoms: O_24  and  C_25
REMARK   15  A    between atoms: C_25  and  C_26
REMARK   16  A    between atoms: C_27  and  C_28
REMARK   17  A    between atoms: C_27  and  C_29
REMARK                            x       y       z     vdW  Elec       q    Type
REMARK                         _______ _______ _______ _____ _____    ______ ____
ROOT
ATOM      1  C   UNL     1      13.933   0.491   1.897  0.00  0.00    +0.063 A 
ATOM      2  C   UNL     1      13.372  -0.786   2.045  0.00  0.00    +0.019 A 
ATOM      3  C   UNL     1      14.166  -1.931   1.968  0.00  0.00    +0.046 A 
ATOM      4  C   UNL     1      15.523  -1.821   1.677  0.00  0.00    +0.124 A 
ATOM      5  C   UNL     1      16.106  -0.551   1.651  0.00  0.00    +0.092 A 
ATOM      6  C   UNL     1      15.331   0.615   1.824  0.00  0.00    +0.136 A 
ENDROOT
BRANCH   1   7
ATOM      7  C   UNL     1      12.950   1.607   1.828  0.00  0.00    +0.190 C 
ATOM      8  O   UNL     1      11.963   1.605   2.554  0.00  0.00    -0.287 OA
BRANCH   7  10
ATOM      9  C   UNL     1      12.837   3.946   1.191  0.00  0.00    +0.012 C 
ATOM     10  C   UNL     1      13.222   2.703   0.859  0.00  0.00    +0.052 C 
BRANCH   9  14
ATOM     11  C   UNL     1      14.111   7.658  -0.532  0.00  0.00    +0.121 A 
ATOM     12  C   UNL     1      14.971   6.561  -0.563  0.00  0.00    +0.046 A 
ATOM     13  C   UNL     1      14.553   5.327  -0.056  0.00  0.00    +0.011 A 
ATOM     14  C   UNL     1      13.272   5.169   0.495  0.00  0.00    -0.025 A 
ATOM     15  C   UNL     1      12.412   6.269   0.501  0.00  0.00    +0.011 A 
ATOM     16  C   UNL     1      12.816   7.490  -0.034  0.00  0.00    +0.046 A 
BRANCH  11  17
ATOM     17  O   UNL     1      14.635   8.840  -0.989  0.00  0.00    -0.488 OA
BRANCH  17  18
ATOM     18  C   UNL     1      13.923   9.997  -0.550  0.00  0.00    +0.256 C 
BRANCH  18  21
ATOM     19  C   UNL     1      15.356  13.528  -1.357  0.00  0.00    +0.038 C 
ATOM     20  C   UNL     1      14.431  12.341  -1.373  0.00  0.00    -0.076 C 
ATOM     21  C   UNL     1      14.788  11.210  -0.728  0.00  0.00    +0.012 C 
ATOM     22  C   UNL     1      13.123  12.497  -2.090  0.00  0.00    +0.038 C 
ENDBRANCH  18  21
ENDBRANCH  17  18
ENDBRANCH  11  17
ENDBRANCH   9  14
ENDBRANCH   7  10
ENDBRANCH   1   7
BRANCH   4  23
ATOM     23  O   UNL     1      16.351  -2.885   1.404  0.00  0.00    -0.488 OA
BRANCH  23  24
ATOM     24  C   UNL     1      15.652  -4.076   1.014  0.00  0.00    +0.256 C 
BRANCH  24  25
ATOM     25  C   UNL     1      16.551  -5.026   0.278  0.00  0.00    +0.012 C 
ATOM     26  C   UNL     1      16.110  -6.137  -0.354  0.00  0.00    -0.076 C 
ATOM     27  C   UNL     1      17.041  -7.035  -1.122  0.00  0.00    +0.038 C 
ATOM     28  C   UNL     1      14.671  -6.588  -0.361  0.00  0.00    +0.038 C 
ENDBRANCH  24  25
ENDBRANCH  23  24
ENDBRANCH   4  23
BRANCH   6  29
ATOM     29  O   UNL     1      16.099   1.749   1.922  0.00  0.00    -0.480 OA
BRANCH  29  30
ATOM     30  C   UNL     1      15.591   2.854   2.670  0.00  0.00    +0.349 C 
BRANCH  30  31
ATOM     31  C   UNL     1      16.597   3.474   3.612  0.00  0.00    +0.343 C 
ATOM     32  O   UNL     1      16.513   4.620   4.037  0.00  0.00    -0.247 OA
BRANCH  31  33
ATOM     33  O   UNL     1      17.572   2.618   3.987  0.00  0.00    -0.478 OA
ATOM     34  H   UNL     1      17.466   1.760   3.528  0.00  0.00    +0.295 HD
ENDBRANCH  31  33
ENDBRANCH  30  31
ENDBRANCH  29  30
ENDBRANCH   6  29
TORSDOF 13
