REMARK  Name = 
REMARK  5 active torsions:
REMARK  status: ('A' for Active; 'I' for Inactive)
REMARK    1  A    between atoms: O_1  and  C_2
REMARK    2  A    between atoms: C_2  and  C_25
REMARK    3  A    between atoms: C_6  and  C_8
REMARK    4  A    between atoms: C_9  and  N_10
REMARK    5  A    between atoms: N_10  and  C_11
REMARK                            x       y       z     vdW  Elec       q    Type
REMARK                         _______ _______ _______ _____ _____    ______ ____
ROOT
ATOM      1  C   UNL     1       4.328  -1.795   1.649  0.00  0.00    +0.061 A 
ATOM      2  C   UNL     1       3.747  -0.580   2.071  0.00  0.00    +0.018 A 
ATOM      3  C   UNL     1       2.990  -0.458   3.243  0.00  0.00    +0.042 A 
ATOM      4  C   UNL     1       2.809  -1.559   4.044  0.00  0.00    +0.160 A 
ATOM      5  F   UNL     1       2.073  -1.453   5.158  0.00  0.00    -0.202 F 
ATOM      6  C   UNL     1       3.360  -2.774   3.680  0.00  0.00    +0.180 A 
ATOM      7  F   UNL     1       3.081  -3.827   4.468  0.00  0.00    -0.201 F 
ATOM      8  C   UNL     1       4.141  -2.931   2.500  0.00  0.00    +0.082 A 
ENDROOT
BRANCH   1  12
ATOM      9  C   UNL     1       4.236   0.374  -1.755  0.00  0.00    +0.112 C 
ATOM     10  C   UNL     1       5.234   0.634  -0.558  0.00  0.00    +0.146 C 
ATOM     11  N   UNL     1       5.377  -0.829  -0.522  0.00  0.00    -0.292 N 
ATOM     12  C   UNL     1       4.965  -1.910   0.275  0.00  0.00    +0.249 C 
ATOM     13  O   UNL     1       5.018  -3.045  -0.222  0.00  0.00    -0.270 OA
ATOM     14  C   UNL     1       5.208  -0.839  -2.004  0.00  0.00    +0.146 C 
BRANCH   9  15
ATOM     15  C   UNL     1       2.789   0.073  -1.238  0.00  0.00    +0.088 C 
ATOM     16  N   UNL     1       2.163   1.285  -0.662  0.00  0.00    -0.311 NA
ATOM     17  H   UNL     1       2.782   1.729   0.009  0.00  0.00    +0.122 HD
ATOM     18  C   UNL     1       0.885   0.992  -0.015  0.00  0.00    +0.081 C 
ATOM     19  C   UNL     1      -0.091   0.373  -1.005  0.00  0.00    +0.015 C 
ATOM     20  C   UNL     1       0.506  -0.894  -1.612  0.00  0.00    +0.003 C 
ATOM     21  C   UNL     1       1.862  -0.584  -2.270  0.00  0.00    +0.021 C 
ENDBRANCH   9  15
BRANCH   9  22
ATOM     22  O   UNL     1       4.208   1.388  -2.797  0.00  0.00    -0.384 OA
ATOM     23  H   UNL     1       5.132   1.547  -3.053  0.00  0.00    +0.210 HD
ENDBRANCH   9  22
ENDBRANCH   1  12
BRANCH   8  24
ATOM     24  N   UNL     1       4.645  -4.234   2.176  0.00  0.00    -0.309 N 
ATOM     25  H   UNL     1       4.180  -4.601   1.340  0.00  0.00    +0.152 HD
BRANCH  24  26
ATOM     26  C   UNL     1       4.932  -5.265   3.115  0.00  0.00    +0.067 A 
ATOM     27  C   UNL     1       5.654  -4.969   4.282  0.00  0.00    +0.027 A 
ATOM     28  C   UNL     1       5.854  -5.933   5.274  0.00  0.00    +0.016 A 
ATOM     29  C   UNL     1       5.363  -7.224   5.093  0.00  0.00    +0.016 A 
ATOM     30  I   UNL     1       5.646  -8.642   6.590  0.00  0.00    -0.044 I 
ATOM     31  C   UNL     1       4.679  -7.560   3.926  0.00  0.00    +0.054 A 
ATOM     32  C   UNL     1       4.470  -6.579   2.951  0.00  0.00    +0.145 A 
ATOM     33  F   UNL     1       3.770  -6.908   1.851  0.00  0.00    -0.204 F 
ENDBRANCH  24  26
ENDBRANCH   8  24
TORSDOF 5
