REMARK  Name = 
REMARK  5 active torsions:
REMARK  status: ('A' for Active; 'I' for Inactive)
REMARK    1  A    between atoms: N_1  and  C_2
REMARK    2  A    between atoms: C_2  and  C_3
REMARK    3  A    between atoms: C_6  and  O_7
REMARK    4  A    between atoms: O_7  and  C_8
REMARK    5  A    between atoms: B_12  and  O_13
REMARK                            x       y       z     vdW  Elec       q    Type
REMARK                         _______ _______ _______ _____ _____    ______ ____
ROOT
ATOM      1  O   UNL     1       3.335  -4.203  -3.501  0.00  0.00    +0.000 OA
ENDROOT
BRANCH   1   2
ATOM      2  C   UNL     1       3.124  -5.509  -3.197  0.00  0.00    +0.000 A 
ATOM      3  C   UNL     1       3.878  -6.497  -3.864  0.00  0.00    +0.000 A 
ATOM      4  C   UNL     1       3.679  -7.839  -3.523  0.00  0.00    +0.000 A 
ATOM      5  C   UNL     1       2.763  -8.184  -2.581  0.00  0.00    +0.000 A 
ATOM      6  B   UNL     1       2.855  -9.689  -2.485  0.00  0.00    +0.000 B 
ATOM      7  O   UNL     1       3.879 -10.208  -3.408  0.00  0.00    +0.000 OA
ATOM      8  C   UNL     1       1.978  -7.249  -1.917  0.00  0.00    +0.000 A 
ATOM      9  C   UNL     1       4.385  -9.049  -4.068  0.00  0.00    +0.000 C 
ATOM     10  C   UNL     1       2.161  -5.897  -2.231  0.00  0.00    +0.000 A 
BRANCH   6  11
ATOM     11  O   UNL     1       2.078 -10.520  -1.567  0.00  0.00    +0.000 OA
ATOM     12  H   UNL     1       2.106 -10.040  -0.699  0.00  0.00    +0.000 HD
ENDBRANCH   6  11
ENDBRANCH   1   2
BRANCH   1  16
ATOM     13  C   UNL     1       3.507  -0.938  -0.899  0.00  0.00    +0.000 A 
ATOM     14  C   UNL     1       3.277  -0.756  -2.271  0.00  0.00    +0.000 A 
ATOM     15  C   UNL     1       3.209  -1.860  -3.128  0.00  0.00    +0.000 A 
ATOM     16  C   UNL     1       3.359  -3.162  -2.629  0.00  0.00    +0.000 A 
ATOM     17  C   UNL     1       3.574  -3.338  -1.244  0.00  0.00    +0.000 A 
ATOM     18  C   UNL     1       3.644  -2.236  -0.390  0.00  0.00    +0.000 A 
BRANCH  13  19
ATOM     19  C   UNL     1       3.635   0.243   0.023  0.00  0.00    +0.000 C 
BRANCH  19  20
ATOM     20  N   UNL     1       4.964   0.248   0.630  0.00  0.00    +0.000 NA
ATOM     21  H   UNL     1       5.687   0.305  -0.125  0.00  0.00    +0.000 HD
ATOM     22  H   UNL     1       5.059   1.098   1.231  0.00  0.00    +0.000 HD
ENDBRANCH  19  20
ENDBRANCH  13  19
ENDBRANCH   1  16
TORSDOF 5
