REMARK  Name = 
REMARK  38 active torsions:
REMARK  status: ('A' for Active; 'I' for Inactive)
REMARK    1  A    between atoms: C_2  and  C_3
REMARK    2  A    between atoms: C_6  and  C_7
REMARK    3  A    between atoms: C_10  and  C_11
REMARK    4  A    between atoms: C_11  and  C_12
REMARK    5  A    between atoms: C_13  and  C_14
REMARK    6  A    between atoms: C_14  and  C_15
REMARK    7  A    between atoms: C_25  and  O_26
REMARK    8  A    between atoms: O_26  and  C_27
REMARK    9  A    between atoms: C_27  and  C_28
REMARK   10  A    between atoms: C_28  and  O_29
REMARK   11  A    between atoms: O_29  and  C_30
REMARK   12  A    between atoms: C_30  and  C_31
REMARK   13  A    between atoms: C_31  and  O_32
REMARK   14  A    between atoms: O_32  and  C_33
REMARK   15  A    between atoms: C_33  and  C_34
REMARK   16  A    between atoms: C_34  and  O_35
REMARK   17  A    between atoms: O_35  and  C_36
REMARK   18  A    between atoms: C_37  and  O_38
REMARK   19  A    between atoms: O_38  and  C_39
REMARK   20  A    between atoms: C_39  and  C_40
REMARK   21  A    between atoms: C_40  and  O_41
REMARK   22  A    between atoms: O_41  and  C_42
REMARK   23  A    between atoms: C_42  and  C_43
REMARK   24  A    between atoms: C_43  and  O_44
REMARK   25  A    between atoms: O_44  and  C_45
REMARK   26  A    between atoms: C_45  and  C_46
REMARK   27  A    between atoms: C_46  and  O_47
REMARK   28  A    between atoms: O_47  and  C_48
REMARK   29  A    between atoms: C_59  and  C_60
REMARK   30  A    between atoms: C_60  and  C_61
REMARK   31  A    between atoms: C_61  and  C_62
REMARK   32  A    between atoms: C_62  and  O_63
REMARK   33  A    between atoms: C_64  and  C_65
REMARK   34  A    between atoms: C_66  and  C_67
REMARK   35  A    between atoms: C_68  and  C_69
REMARK   36  A    between atoms: C_69  and  C_70
REMARK   37  A    between atoms: C_70  and  C_71
REMARK   38  A    between atoms: C_71  and  O_72
REMARK                            x       y       z     vdW  Elec       q    Type
REMARK                         _______ _______ _______ _____ _____    ______ ____
ROOT
ATOM      1 GD   UNL     1       0.175   1.466  -2.317  0.00  0.00    +0.000 Gd
ENDROOT
TORSDOF 0
REMARK  Name = 
REMARK  38 active torsions:
REMARK  status: ('A' for Active; 'I' for Inactive)
REMARK    1  A    between atoms: C_2  and  C_3
REMARK    2  A    between atoms: C_6  and  C_7
REMARK    3  A    between atoms: C_10  and  C_11
REMARK    4  A    between atoms: C_11  and  C_12
REMARK    5  A    between atoms: C_13  and  C_14
REMARK    6  A    between atoms: C_14  and  C_15
REMARK    7  A    between atoms: C_25  and  O_26
REMARK    8  A    between atoms: O_26  and  C_27
REMARK    9  A    between atoms: C_27  and  C_28
REMARK   10  A    between atoms: C_28  and  O_29
REMARK   11  A    between atoms: O_29  and  C_30
REMARK   12  A    between atoms: C_30  and  C_31
REMARK   13  A    between atoms: C_31  and  O_32
REMARK   14  A    between atoms: O_32  and  C_33
REMARK   15  A    between atoms: C_33  and  C_34
REMARK   16  A    between atoms: C_34  and  O_35
REMARK   17  A    between atoms: O_35  and  C_36
REMARK   18  A    between atoms: C_37  and  O_38
REMARK   19  A    between atoms: O_38  and  C_39
REMARK   20  A    between atoms: C_39  and  C_40
REMARK   21  A    between atoms: C_40  and  O_41
REMARK   22  A    between atoms: O_41  and  C_42
REMARK   23  A    between atoms: C_42  and  C_43
REMARK   24  A    between atoms: C_43  and  O_44
REMARK   25  A    between atoms: O_44  and  C_45
REMARK   26  A    between atoms: C_45  and  C_46
REMARK   27  A    between atoms: C_46  and  O_47
REMARK   28  A    between atoms: O_47  and  C_48
REMARK   29  A    between atoms: C_59  and  C_60
REMARK   30  A    between atoms: C_60  and  C_61
REMARK   31  A    between atoms: C_61  and  C_62
REMARK   32  A    between atoms: C_62  and  O_63
REMARK   33  A    between atoms: C_64  and  C_65
REMARK   34  A    between atoms: C_66  and  C_67
REMARK   35  A    between atoms: C_68  and  C_69
REMARK   36  A    between atoms: C_69  and  C_70
REMARK   37  A    between atoms: C_70  and  C_71
REMARK   38  A    between atoms: C_71  and  O_72
REMARK                            x       y       z     vdW  Elec       q    Type
REMARK                         _______ _______ _______ _____ _____    ______ ____
ROOT
ATOM      1  C   UNL     1      -0.243   1.110   0.336  0.00  0.00    +0.062 C 
ATOM      2  C   UNL     1       1.180   1.672   0.351  0.00  0.00    +0.039 C 
ATOM      3  O   UNL     1       1.692   2.003   1.408  0.00  0.00    -0.550 OA
ATOM      4  O   UNL     1       1.933   1.718  -0.772  0.00  0.00    -0.550 OA
ENDROOT
TORSDOF 0
REMARK  Name = 
REMARK  38 active torsions:
REMARK  status: ('A' for Active; 'I' for Inactive)
REMARK    1  A    between atoms: C_2  and  C_3
REMARK    2  A    between atoms: C_6  and  C_7
REMARK    3  A    between atoms: C_10  and  C_11
REMARK    4  A    between atoms: C_11  and  C_12
REMARK    5  A    between atoms: C_13  and  C_14
REMARK    6  A    between atoms: C_14  and  C_15
REMARK    7  A    between atoms: C_25  and  O_26
REMARK    8  A    between atoms: O_26  and  C_27
REMARK    9  A    between atoms: C_27  and  C_28
REMARK   10  A    between atoms: C_28  and  O_29
REMARK   11  A    between atoms: O_29  and  C_30
REMARK   12  A    between atoms: C_30  and  C_31
REMARK   13  A    between atoms: C_31  and  O_32
REMARK   14  A    between atoms: O_32  and  C_33
REMARK   15  A    between atoms: C_33  and  C_34
REMARK   16  A    between atoms: C_34  and  O_35
REMARK   17  A    between atoms: O_35  and  C_36
REMARK   18  A    between atoms: C_37  and  O_38
REMARK   19  A    between atoms: O_38  and  C_39
REMARK   20  A    between atoms: C_39  and  C_40
REMARK   21  A    between atoms: C_40  and  O_41
REMARK   22  A    between atoms: O_41  and  C_42
REMARK   23  A    between atoms: C_42  and  C_43
REMARK   24  A    between atoms: C_43  and  O_44
REMARK   25  A    between atoms: O_44  and  C_45
REMARK   26  A    between atoms: C_45  and  C_46
REMARK   27  A    between atoms: C_46  and  O_47
REMARK   28  A    between atoms: O_47  and  C_48
REMARK   29  A    between atoms: C_59  and  C_60
REMARK   30  A    between atoms: C_60  and  C_61
REMARK   31  A    between atoms: C_61  and  C_62
REMARK   32  A    between atoms: C_62  and  O_63
REMARK   33  A    between atoms: C_64  and  C_65
REMARK   34  A    between atoms: C_66  and  C_67
REMARK   35  A    between atoms: C_68  and  C_69
REMARK   36  A    between atoms: C_69  and  C_70
REMARK   37  A    between atoms: C_70  and  C_71
REMARK   38  A    between atoms: C_71  and  O_72
REMARK                            x       y       z     vdW  Elec       q    Type
REMARK                         _______ _______ _______ _____ _____    ______ ____
ROOT
ATOM      1  C   UNL     1       1.700  -1.108   0.206  0.00  0.00    +0.000 C 
ATOM      2  C   UNL     1       3.121  -0.901   0.617  0.00  0.00    +0.000 C 
ATOM      3  O   UNL     1       3.697   0.153   0.386  0.00  0.00    -0.500 OA
ATOM      4  O   UNL     1       3.654  -1.754   1.500  0.00  0.00    -0.500 OA
ENDROOT
TORSDOF 0
REMARK  Name = 
REMARK  38 active torsions:
REMARK  status: ('A' for Active; 'I' for Inactive)
REMARK    1  A    between atoms: C_2  and  C_3
REMARK    2  A    between atoms: C_6  and  C_7
REMARK    3  A    between atoms: C_10  and  C_11
REMARK    4  A    between atoms: C_11  and  C_12
REMARK    5  A    between atoms: C_13  and  C_14
REMARK    6  A    between atoms: C_14  and  C_15
REMARK    7  A    between atoms: C_25  and  O_26
REMARK    8  A    between atoms: O_26  and  C_27
REMARK    9  A    between atoms: C_27  and  C_28
REMARK   10  A    between atoms: C_28  and  O_29
REMARK   11  A    between atoms: O_29  and  C_30
REMARK   12  A    between atoms: C_30  and  C_31
REMARK   13  A    between atoms: C_31  and  O_32
REMARK   14  A    between atoms: O_32  and  C_33
REMARK   15  A    between atoms: C_33  and  C_34
REMARK   16  A    between atoms: C_34  and  O_35
REMARK   17  A    between atoms: O_35  and  C_36
REMARK   18  A    between atoms: C_37  and  O_38
REMARK   19  A    between atoms: O_38  and  C_39
REMARK   20  A    between atoms: C_39  and  C_40
REMARK   21  A    between atoms: C_40  and  O_41
REMARK   22  A    between atoms: O_41  and  C_42
REMARK   23  A    between atoms: C_42  and  C_43
REMARK   24  A    between atoms: C_43  and  O_44
REMARK   25  A    between atoms: O_44  and  C_45
REMARK   26  A    between atoms: C_45  and  C_46
REMARK   27  A    between atoms: C_46  and  O_47
REMARK   28  A    between atoms: O_47  and  C_48
REMARK   29  A    between atoms: C_59  and  C_60
REMARK   30  A    between atoms: C_60  and  C_61
REMARK   31  A    between atoms: C_61  and  C_62
REMARK   32  A    between atoms: C_62  and  O_63
REMARK   33  A    between atoms: C_64  and  C_65
REMARK   34  A    between atoms: C_66  and  C_67
REMARK   35  A    between atoms: C_68  and  C_69
REMARK   36  A    between atoms: C_69  and  C_70
REMARK   37  A    between atoms: C_70  and  C_71
REMARK   38  A    between atoms: C_71  and  O_72
REMARK                            x       y       z     vdW  Elec       q    Type
REMARK                         _______ _______ _______ _____ _____    ______ ____
ROOT
ATOM      1  C   UNL     1       5.487  -2.203  -7.056  0.00  0.00    +0.000 A 
ATOM      2  C   UNL     1       5.236  -3.445  -5.925  0.00  0.00    +0.000 A 
ATOM      3  N   UNL     1       4.522  -2.891  -5.271  0.00  0.00    -1.000 NA
ATOM      4  C   UNL     1       4.142  -1.717  -5.334  0.00  0.00    +0.000 A 
ATOM      5  C   UNL     1       3.335  -1.650  -4.330  0.00  0.00    +0.000 C 
ATOM      6  C   UNL     1       2.591  -3.026  -4.031  0.00  0.00    +0.000 C 
ATOM      7  C   UNL     1       2.605  -3.612  -2.760  0.00  0.00    +0.000 C 
ATOM      8  C   UNL     1       2.164  -4.877  -2.990  0.00  0.00    +0.000 C 
ATOM      9  C   UNL     1       2.644  -5.848  -2.089  0.00  0.00    +0.000 C 
ATOM     10  C   UNL     1       2.043  -5.192  -4.423  0.00  0.00    +0.000 C 
ATOM     11  C   UNL     1       2.052  -6.565  -4.859  0.00  0.00    +0.000 C 
ATOM     12  N   UNL     1       2.811  -7.267  -5.907  0.00  0.00    +0.000 NA
ATOM     13  C   UNL     1       3.011  -8.606  -5.968  0.00  0.00    +0.000 A 
ATOM     14  C   UNL     1       2.719  -9.674  -4.975  0.00  0.00    +0.000 A 
ATOM     15  N   UNL     1       2.778  -9.670  -3.706  0.00  0.00    +0.000 NA
ATOM     16  C   UNL     1       3.871  -9.151  -3.089  0.00  0.00    +0.000 C 
ATOM     17  C   UNL     1       3.597  -8.029  -2.744  0.00  0.00    +0.000 C 
ATOM     18  C   UNL     1       3.333  -8.014  -0.988  0.00  0.00    +0.000 C 
ATOM     19  C   UNL     1       2.650  -9.386  -0.498  0.00  0.00    +0.000 C 
ATOM     20  C   UNL     1       3.835  -6.674  -0.494  0.00  0.00    +0.000 C 
ATOM     21  C   UNL     1       4.570  -5.781  -3.239  0.00  0.00    +0.000 C 
ATOM     22  N   UNL     1       4.282  -6.951  -3.782  0.00  0.00    +0.000 NA
ATOM     23  C   UNL     1       2.566 -10.975  -5.321  0.00  0.00    +0.000 A 
ATOM     24  C   UNL     1       2.622 -11.394  -6.605  0.00  0.00    +0.000 A 
ATOM     25  C   UNL     1       3.020 -10.462  -7.578  0.00  0.00    +0.000 A 
ATOM     26  C   UNL     1       3.310  -9.101  -7.230  0.00  0.00    +0.000 A 
ATOM     27  N   UNL     1       2.404  -3.955  -4.987  0.00  0.00    +0.000 NA
ATOM     28  C   UNL     1       5.140  -4.866  -5.058  0.00  0.00    +0.000 C 
ATOM     29  C   UNL     1       4.930  -1.084  -6.228  0.00  0.00    +0.000 A 
ENDROOT
BRANCH  29  30
ATOM     30  C   UNL     1       5.007   0.436  -6.021  0.00  0.00    +0.000 C 
ATOM     31  C   UNL     1       3.684   1.212  -5.915  0.00  0.00    +0.000 C 
ENDBRANCH  29  30
BRANCH   1  33
ATOM     32  C   UNL     1       4.972  -0.572  -9.458  0.00  0.00    +0.000 C 
ATOM     33  C   UNL     1       6.026  -1.283  -8.431  0.00  0.00    +0.000 C 
ENDBRANCH   1  33
BRANCH   7  34
ATOM     34  C   UNL     1       3.470  -3.043  -1.568  0.00  0.00    +0.000 C 
BRANCH  34  35
ATOM     35  C   UNL     1       5.032  -3.285  -1.463  0.00  0.00    +0.000 C 
BRANCH  35  36
ATOM     36  C   UNL     1       5.830  -3.012  -2.720  0.00  0.00    +0.000 C 
BRANCH  36  37
ATOM     37  O   UNL     1       7.177  -3.389  -2.673  0.00  0.00    +0.000 OA
ATOM     38  H   UNL     1       7.517  -3.266  -3.606  0.00  0.00    +0.000 HD
ENDBRANCH  36  37
ENDBRANCH  35  36
ENDBRANCH  34  35
ENDBRANCH   7  34
BRANCH  25  39
ATOM     39  O   UNL     1       3.013 -10.842  -8.867  0.00  0.00    +0.000 OA
BRANCH  39  40
ATOM     40  C   UNL     1       3.244  -9.941  -9.879  0.00  0.00    +0.000 C 
BRANCH  40  41
ATOM     41  C   UNL     1       3.005 -10.574 -11.213  0.00  0.00    +0.000 C 
BRANCH  41  42
ATOM     42  O   UNL     1       1.644 -10.925 -11.334  0.00  0.00    +0.000 OA
BRANCH  42  43
ATOM     43  C   UNL     1       1.452 -11.488 -12.611  0.00  0.00    +0.000 C 
BRANCH  43  44
ATOM     44  C   UNL     1      -0.004 -11.895 -12.788  0.00  0.00    +0.000 C 
BRANCH  44  45
ATOM     45  O   UNL     1      -0.838 -10.760 -12.681  0.00  0.00    +0.000 OA
BRANCH  45  46
ATOM     46  C   UNL     1      -2.180 -11.158 -12.872  0.00  0.00    +0.000 C 
BRANCH  46  47
ATOM     47  C   UNL     1      -3.101  -9.950 -12.745  0.00  0.00    +0.000 C 
BRANCH  47  48
ATOM     48  O   UNL     1      -2.773  -8.993 -13.729  0.00  0.00    +0.000 OA
ATOM     49  C   UNL     1      -3.642  -7.890 -13.602  0.00  0.00    +0.000 C 
ENDBRANCH  47  48
ENDBRANCH  46  47
ENDBRANCH  45  46
ENDBRANCH  44  45
ENDBRANCH  43  44
ENDBRANCH  42  43
ENDBRANCH  41  42
ENDBRANCH  40  41
ENDBRANCH  39  40
ENDBRANCH  25  39
BRANCH  20  50
ATOM     50  C   UNL     1       3.448  -6.826   1.191  0.00  0.00    +0.000 C 
BRANCH  50  51
ATOM     51  C   UNL     1       4.210  -7.612   2.431  0.00  0.00    +0.000 C 
BRANCH  51  52
ATOM     52  C   UNL     1       4.819  -9.062   2.448  0.00  0.00    +0.000 C 
BRANCH  52  53
ATOM     53  O   UNL     1       5.461  -9.328   3.685  0.00  0.00    +0.000 OA
ATOM     54  H   UNL     1       6.109  -8.598   3.877  0.00  0.00    +0.000 HD
ENDBRANCH  52  53
ENDBRANCH  51  52
ENDBRANCH  50  51
ENDBRANCH  20  50
BRANCH  24  55
ATOM     55  O   UNL     1       2.275 -12.683  -6.880  0.00  0.00    +0.000 OA
BRANCH  55  56
ATOM     56  C   UNL     1       1.872 -13.586  -5.888  0.00  0.00    +0.000 C 
BRANCH  56  57
ATOM     57  C   UNL     1       1.414 -14.882  -6.484  0.00  0.00    +0.000 C 
BRANCH  57  58
ATOM     58  O   UNL     1       2.475 -15.423  -7.230  0.00  0.00    +0.000 OA
BRANCH  58  59
ATOM     59  C   UNL     1       2.052 -16.641  -7.787  0.00  0.00    +0.000 C 
BRANCH  59  60
ATOM     60  C   UNL     1       3.179 -17.229  -8.622  0.00  0.00    +0.000 C 
BRANCH  60  61
ATOM     61  O   UNL     1       4.305 -17.471  -7.804  0.00  0.00    +0.000 OA
BRANCH  61  62
ATOM     62  C   UNL     1       5.330 -18.038  -8.594  0.00  0.00    +0.000 C 
BRANCH  62  63
ATOM     63  C   UNL     1       6.563 -18.297  -7.736  0.00  0.00    +0.000 C 
BRANCH  63  64
ATOM     64  O   UNL     1       6.242 -19.201  -6.700  0.00  0.00    +0.000 OA
ATOM     65  C   UNL     1       7.395 -19.435  -5.924  0.00  0.00    +0.000 C 
ENDBRANCH  63  64
ENDBRANCH  62  63
ENDBRANCH  61  62
ENDBRANCH  60  61
ENDBRANCH  59  60
ENDBRANCH  58  59
ENDBRANCH  57  58
ENDBRANCH  56  57
ENDBRANCH  55  56
ENDBRANCH  24  55
TORSDOF 30
