REMARK  Name = 
REMARK  5 active torsions:
REMARK  status: ('A' for Active; 'I' for Inactive)
REMARK    1  A    between atoms: C_1  and  C_2
REMARK    2  A    between atoms: C_2  and  O_3
REMARK    3  A    between atoms: O_3  and  C_4
REMARK    4  A    between atoms: C_4  and  C_6
REMARK    5  A    between atoms: C_6  and  C_7
REMARK                            x       y       z     vdW  Elec       q    Type
REMARK                         _______ _______ _______ _____ _____    ______ ____
ROOT
ATOM      1  C   UNL     1       4.528   1.535  -0.441  0.00  0.00    +0.375 C 
ATOM      2  O   UNL     1       5.325   0.622  -0.319  0.00  0.00    -0.242 OA
ENDROOT
BRANCH   1   3
ATOM      3  C   UNL     1       4.961   2.989  -0.656  0.00  0.00    +0.236 C 
ATOM      4  O   UNL     1       4.135   3.887  -0.777  0.00  0.00    -0.285 OA
ATOM      5  C   UNL     1       6.437   3.234  -0.786  0.00  0.00    +0.099 C 
ENDBRANCH   1   3
BRANCH   1   6
ATOM      6  O   UNL     1       3.182   1.439  -0.508  0.00  0.00    -0.459 OA
BRANCH   6   8
ATOM      7  C   UNL     1       2.618  -0.171  -2.181  0.00  0.00    +0.048 C 
ATOM      8  C   UNL     1       2.668   0.115  -0.692  0.00  0.00    +0.229 C 
ENDBRANCH   6   8
ENDBRANCH   1   6
TORSDOF 3
