REMARK  Name = 
REMARK  6 active torsions:
REMARK  status: ('A' for Active; 'I' for Inactive)
REMARK    1  A    between atoms: C_9  and  C_11
REMARK    2  A    between atoms: C_11  and  C_12
REMARK    3  A    between atoms: C_14  and  C_15
REMARK    4  A    between atoms: C_19  and  C_20
REMARK    5  A    between atoms: C_23  and  C_24
REMARK    6  A    between atoms: C_23  and  O_25
REMARK                            x       y       z     vdW  Elec       q    Type
REMARK                         _______ _______ _______ _____ _____    ______ ____
ROOT
ATOM      1  C   UNL     1       3.635  -0.184   0.909  0.00  0.00    -0.002 C 
ATOM      2  C   UNL     1       3.439  -1.596   0.375  0.00  0.00    +0.038 C 
ATOM      3  C   UNL     1       3.126  -2.530   1.545  0.00  0.00    +0.064 C 
ATOM      4  C   UNL     1       2.688  -3.893   1.025  0.00  0.00    +0.041 C 
ATOM      5  C   UNL     1       4.361  -2.553   2.445  0.00  0.00    +0.035 C 
ATOM      6  C   UNL     1       4.661  -1.155   3.058  0.00  0.00    +0.010 C 
ATOM      7  C   UNL     1       4.757   0.007   2.011  0.00  0.00    -0.026 C 
ATOM      8  C   UNL     1       6.208  -0.034   1.466  0.00  0.00    +0.012 C 
ATOM      9  C   UNL     1       4.454   1.449   2.621  0.00  0.00    -0.001 C 
ATOM     10  C   UNL     1       4.391   2.519   1.482  0.00  0.00    -0.004 C 
ATOM     11  C   UNL     1       4.190   3.846   2.149  0.00  0.00    -0.001 C 
ATOM     12  C   UNL     1       5.503   4.341   2.832  0.00  0.00    -0.019 C 
ATOM     13  C   UNL     1       5.434   3.475   4.148  0.00  0.00    +0.008 C 
ATOM     14  C   UNL     1       6.955   4.047   2.355  0.00  0.00    +0.012 C 
ATOM     15  C   UNL     1       5.250   5.901   2.777  0.00  0.00    +0.061 C 
ATOM     16  C   UNL     1       3.806   6.151   2.293  0.00  0.00    +0.012 C 
ATOM     17  C   UNL     1       3.498   4.965   1.402  0.00  0.00    +0.005 C 
ATOM     18  C   UNL     1       3.316   2.198   0.453  0.00  0.00    +0.004 C 
ATOM     19  C   UNL     1       5.295   1.912   3.865  0.00  0.00    +0.005 C 
ATOM     20  C   UNL     1       3.653   0.865  -0.201  0.00  0.00    +0.004 C 
ENDROOT
BRANCH  15  21
ATOM     21  C   UNL     1       6.120   6.698   1.776  0.00  0.00    +0.134 C 
ATOM     22  O   UNL     1       6.687   7.736   2.120  0.00  0.00    -0.297 OA
ATOM     23  C   UNL     1       6.191   6.271   0.301  0.00  0.00    +0.086 C 
ENDBRANCH  15  21
BRANCH   3  24
ATOM     24  O   UNL     1       1.978  -2.075   2.285  0.00  0.00    -0.389 OA
ATOM     25  H   UNL     1       2.205  -1.317   2.828  0.00  0.00    +0.210 HD
ENDBRANCH   3  24
TORSDOF 2
