REMARK  Name = 
REMARK  18 active torsions:
REMARK  status: ('A' for Active; 'I' for Inactive)
REMARK    1  A    between atoms: C_8  and  C_40
REMARK    2  A    between atoms: C_12  and  C_14
REMARK    3  A    between atoms: C_14  and  N_16
REMARK    4  A    between atoms: C_14  and  C_36
REMARK    5  A    between atoms: C_17  and  C_19
REMARK    6  A    between atoms: C_19  and  N_21
REMARK    7  A    between atoms: C_19  and  C_30
REMARK    8  A    between atoms: C_22  and  C_24
REMARK    9  A    between atoms: C_36  and  C_37
REMARK   10  A    between atoms: C_36  and  C_38
REMARK   11  A    between atoms: C_36  and  C_39
REMARK   12  A    between atoms: N_42  and  C_43
REMARK   13  A    between atoms: C_43  and  C_45
REMARK   14  A    between atoms: C_43  and  C_48
REMARK   15  A    between atoms: C_45  and  C_46
REMARK   16  A    between atoms: C_46  and  C_47
REMARK   17  A    between atoms: C_48  and  C_50
REMARK   18  A    between atoms: N_52  and  C_53
REMARK                            x       y       z     vdW  Elec       q    Type
REMARK                         _______ _______ _______ _____ _____    ______ ____
ROOT
ATOM      1  C   UNL     1       4.735  -0.854   0.694  0.00  0.00    +0.012 C 
ATOM      2  C   UNL     1       5.177  -0.025  -0.508  0.00  0.00    +0.112 C 
ATOM      3  N   UNL     1       4.377   1.206  -0.463  0.00  0.00    -0.288 N 
ATOM      4  C   UNL     1       4.515   2.251  -1.363  0.00  0.00    +0.237 C 
ATOM      5  O   UNL     1       3.705   3.182  -1.348  0.00  0.00    -0.274 OA
ATOM      6  C   UNL     1       3.216   0.999   0.443  0.00  0.00    +0.165 C 
ATOM      7  C   UNL     1       3.918   0.133   1.534  0.00  0.00    +0.023 C 
ATOM      8  C   UNL     1       3.117  -0.799   2.428  0.00  0.00    +0.006 C 
ATOM      9  C   UNL     1       2.693  -1.943   1.521  0.00  0.00    +0.001 C 
ATOM     10  C   UNL     1       3.765  -2.020   0.426  0.00  0.00    +0.005 C 
ENDROOT
BRANCH   6  11
ATOM     11  C   UNL     1       2.265   2.021   1.147  0.00  0.00    +0.234 C 
ATOM     12  N   UNL     1       2.457   3.379   1.031  0.00  0.00    -0.304 N 
ATOM     13  H   UNL     1       3.019   3.675   0.229  0.00  0.00    +0.149 HD
ATOM     14  O   UNL     1       1.312   1.585   1.805  0.00  0.00    -0.274 OA
BRANCH  12  15
ATOM     15  C   UNL     1       1.389   4.301   1.497  0.00  0.00    +0.149 C 
BRANCH  15  16
ATOM     16  C   UNL     1       1.425   5.716   0.886  0.00  0.00    +0.237 C 
ATOM     17  O   UNL     1       2.409   6.243   0.374  0.00  0.00    -0.285 OA
BRANCH  16  18
ATOM     18  C   UNL     1       0.106   6.512   0.957  0.00  0.00    +0.282 C 
ATOM     19  N   UNL     1       0.186   7.826   0.517  0.00  0.00    -0.306 N 
ATOM     20  H   UNL     1       1.076   8.141   0.140  0.00  0.00    +0.149 HD
ATOM     21  O   UNL     1      -0.913   5.977   1.374  0.00  0.00    -0.267 OA
BRANCH  19  22
ATOM     22  C   UNL     1      -0.966   8.678   0.464  0.00  0.00    +0.073 C 
ATOM     23  C   UNL     1      -0.882  10.154   0.180  0.00  0.00    +0.024 C 
ATOM     24  C   UNL     1      -1.220   9.678   1.560  0.00  0.00    +0.024 C 
ENDBRANCH  19  22
ENDBRANCH  16  18
ENDBRANCH  15  16
BRANCH  15  25
ATOM     25  C   UNL     1       1.250   4.356   3.037  0.00  0.00    +0.030 C 
BRANCH  25  26
ATOM     26  C   UNL     1       2.522   4.601   3.854  0.00  0.00    -0.001 C 
ATOM     27  C   UNL     1       3.182   5.948   3.621  0.00  0.00    +0.004 C 
ENDBRANCH  25  26
ENDBRANCH  15  25
ENDBRANCH  12  15
ENDBRANCH   6  11
BRANCH   4  28
ATOM     28  C   UNL     1       5.713   2.224  -2.401  0.00  0.00    +0.164 C 
BRANCH  28  29
ATOM     29  C   UNL     1       6.691   3.462  -2.314  0.00  0.00    -0.011 C 
ATOM     30  C   UNL     1       5.977   4.822  -2.395  0.00  0.00    +0.013 C 
ATOM     31  C   UNL     1       7.726   3.432  -3.465  0.00  0.00    +0.013 C 
ATOM     32  C   UNL     1       7.489   3.404  -0.993  0.00  0.00    +0.013 C 
ENDBRANCH  28  29
BRANCH  28  33
ATOM     33  N   UNL     1       5.190   2.018  -3.768  0.00  0.00    -0.302 N 
ATOM     34  H   UNL     1       4.504   2.678  -4.141  0.00  0.00    +0.150 HD
ATOM     35  C   UNL     1       5.510   0.905  -4.519  0.00  0.00    +0.234 C 
ATOM     36  O   UNL     1       6.215  -0.002  -4.068  0.00  0.00    -0.274 OA
BRANCH  35  37
ATOM     37  C   UNL     1       5.019   0.853  -6.001  0.00  0.00    +0.162 C 
BRANCH  37  38
ATOM     38  C   UNL     1       5.666   1.961  -6.888  0.00  0.00    +0.018 C 
ATOM     39  C   UNL     1       5.190   1.989  -8.355  0.00  0.00    +0.006 C 
ATOM     40  C   UNL     1       5.544   0.716  -9.121  0.00  0.00    +0.000 C 
ATOM     41  C   UNL     1       7.022   0.335  -9.017  0.00  0.00    +0.000 C 
ATOM     42  C   UNL     1       7.637   0.513  -7.630  0.00  0.00    +0.000 C 
ATOM     43  C   UNL     1       7.203   1.805  -6.940  0.00  0.00    +0.006 C 
ENDBRANCH  37  38
BRANCH  37  44
ATOM     44  N   UNL     1       3.567   0.710  -6.106  0.00  0.00    -0.298 N 
ATOM     45  H   UNL     1       3.192  -0.178  -6.432  0.00  0.00    +0.150 HD
ATOM     46  C   UNL     1       2.648   1.680  -5.801  0.00  0.00    +0.264 C 
ATOM     47  O   UNL     1       2.959   2.784  -5.361  0.00  0.00    -0.268 OA
BRANCH  46  48
ATOM     48  C   UNL     1       1.218   1.290  -6.015  0.00  0.00    +0.143 A 
ATOM     49  C   UNL     1       0.212   2.157  -5.619  0.00  0.00    +0.143 A 
ATOM     50  N   UNL     1      -1.104   1.871  -5.790  0.00  0.00    -0.259 NA
ATOM     51  C   UNL     1      -1.368   0.679  -6.373  0.00  0.00    +0.130 A 
ATOM     52  C   UNL     1      -0.367  -0.183  -6.770  0.00  0.00    +0.131 A 
ATOM     53  N   UNL     1       0.955   0.078  -6.597  0.00  0.00    -0.247 NA
ENDBRANCH  46  48
ENDBRANCH  37  44
ENDBRANCH  35  37
ENDBRANCH  28  33
ENDBRANCH   4  28
TORSDOF 14
