REMARK  Name = 
REMARK  18 active torsions:
REMARK  status: ('A' for Active; 'I' for Inactive)
REMARK    1  A    between atoms: C_1  and  C_2
REMARK    2  A    between atoms: C_2  and  C_3
REMARK    3  A    between atoms: C_2  and  C_4
REMARK    4  A    between atoms: C_2  and  C_19
REMARK    5  A    between atoms: C_4  and  C_5
REMARK    6  A    between atoms: C_5  and  C_6
REMARK    7  A    between atoms: C_6  and  C_7
REMARK    8  A    between atoms: C_7  and  O_8
REMARK    9  A    between atoms: O_8  and  C_9
REMARK   10  A    between atoms: C_9  and  C_10
REMARK   11  A    between atoms: C_10  and  C_11
REMARK   12  A    between atoms: C_11  and  C_12
REMARK   13  A    between atoms: C_12  and  C_13
REMARK   14  A    between atoms: C_13  and  C_14
REMARK   15  A    between atoms: C_13  and  C_15
REMARK   16  A    between atoms: C_13  and  C_16
REMARK   17  A    between atoms: C_16  and  O_17
REMARK   18  A    between atoms: C_19  and  O_20
REMARK                            x       y       z     vdW  Elec       q    Type
REMARK                         _______ _______ _______ _____ _____    ______ ____
ROOT
ATOM      1  O   UNL     1       3.076  -4.248   4.580  0.00  0.00    -0.380 OA
ENDROOT
BRANCH   1   2
ATOM      2  C   UNL     1       2.573  -3.042   4.020  0.00  0.00    +0.160 C 
BRANCH   2   3
ATOM      3  C   UNL     1       3.080  -2.906   2.588  0.00  0.00    +0.028 C 
BRANCH   3   4
ATOM      4  C   UNL     1       2.592  -1.586   2.000  0.00  0.00    +0.003 C 
BRANCH   4   5
ATOM      5  C   UNL     1       3.081  -1.349   0.567  0.00  0.00    +0.017 C 
BRANCH   5   7
ATOM      6  C   UNL     1       3.014   1.187   0.765  0.00  0.00    +0.022 C 
ATOM      7  C   UNL     1       2.543  -0.032  -0.057  0.00  0.00    +0.062 C 
ATOM      8  C   UNL     1       3.086   0.141  -1.486  0.00  0.00    +0.022 C 
BRANCH   7   9
ATOM      9  C   UNL     1       1.011  -0.042  -0.107  0.00  0.00    +0.310 C 
ATOM     10  O   UNL     1       0.294   0.762   0.470  0.00  0.00    -0.250 OA
BRANCH   9  11
ATOM     11  O   UNL     1       0.479  -1.049  -0.841  0.00  0.00    -0.480 OA
ATOM     12  H   UNL     1       1.127  -1.644  -1.258  0.00  0.00    +0.295 HD
ENDBRANCH   9  11
ENDBRANCH   7   9
ENDBRANCH   5   7
ENDBRANCH   4   5
ENDBRANCH   3   4
ENDBRANCH   2   3
ENDBRANCH   1   2
BRANCH   1  13
ATOM     13  C   UNL     1       2.600  -4.436   5.914  0.00  0.00    +0.160 C 
BRANCH  13  14
ATOM     14  C   UNL     1       3.088  -5.788   6.425  0.00  0.00    +0.028 C 
BRANCH  14  15
ATOM     15  C   UNL     1       2.552  -6.920   5.545  0.00  0.00    +0.003 C 
BRANCH  15  16
ATOM     16  C   UNL     1       3.019  -8.300   6.017  0.00  0.00    +0.017 C 
BRANCH  16  17
ATOM     17  C   UNL     1       2.520  -9.477   5.137  0.00  0.00    +0.062 C 
ATOM     18  C   UNL     1       3.019  -9.369   3.686  0.00  0.00    +0.022 C 
ATOM     19  C   UNL     1       0.977  -9.512   5.116  0.00  0.00    +0.022 C 
BRANCH  17  20
ATOM     20  C   UNL     1       3.016 -10.799   5.739  0.00  0.00    +0.310 C 
ATOM     21  O   UNL     1       2.287 -11.688   6.158  0.00  0.00    -0.250 OA
BRANCH  20  22
ATOM     22  O   UNL     1       4.363 -10.933   5.779  0.00  0.00    -0.480 OA
ATOM     23  H   UNL     1       4.861 -10.176   5.419  0.00  0.00    +0.295 HD
ENDBRANCH  20  22
ENDBRANCH  17  20
ENDBRANCH  16  17
ENDBRANCH  15  16
ENDBRANCH  14  15
ENDBRANCH  13  14
ENDBRANCH   1  13
TORSDOF 14
