REMARK  Name = 
REMARK  11 active torsions:
REMARK  status: ('A' for Active; 'I' for Inactive)
REMARK    1  A    between atoms: N_1  and  C_2
REMARK    2  A    between atoms: C_2  and  C_4
REMARK    3  A    between atoms: C_2  and  C_24
REMARK    4  A    between atoms: C_4  and  C_5
REMARK    5  A    between atoms: C_5  and  C_6
REMARK    6  A    between atoms: N_8  and  C_9
REMARK    7  A    between atoms: C_9  and  C_11
REMARK    8  A    between atoms: C_9  and  C_21
REMARK    9  A    between atoms: C_11  and  C_12
REMARK   10  A    between atoms: C_21  and  O_22
REMARK   11  A    between atoms: C_24  and  O_25
REMARK                            x       y       z     vdW  Elec       q    Type
REMARK                         _______ _______ _______ _____ _____    ______ ____
ROOT
ATOM      1  C   UNK     1       2.945   5.797   2.063  0.00  0.00    +0.186 C 
ENDROOT
BRANCH   1   3
ATOM      2  C   UNK     1       1.167   4.197   1.340  0.00  0.00    +0.214 C 
ATOM      3  N   UNK     1       2.384   4.808   1.087  0.00  0.00    -0.302 N 
ATOM      4  H   UNK     1       3.063   4.250   0.575  0.00  0.00    +0.150 HD
ATOM      5  O   UNK     1       0.466   4.524   2.288  0.00  0.00    -0.276 OA
BRANCH   2   6
ATOM      6  C   UNK     1       0.732   3.137   0.320  0.00  0.00    +0.098 C 
BRANCH   6   7
ATOM      7  C   UNK     1      -0.802   2.983   0.315  0.00  0.00    +0.039 C 
BRANCH   7   8
ATOM      8  C   UNK     1      -1.387   2.124  -0.818  0.00  0.00    +0.161 C 
BRANCH   8   9
ATOM      9  N   UNK     1      -1.048   0.683  -0.745  0.00  0.00    -0.318 NA
ATOM     10  H   UNK     1      -0.072   0.572  -0.467  0.00  0.00    +0.119 HD
ATOM     11  H   UNK     1      -1.578   0.261   0.027  0.00  0.00    +0.119 HD
ENDBRANCH   8   9
BRANCH   8  12
ATOM     12  C   UNK     1      -2.930   2.231  -0.870  0.00  0.00    +0.322 C 
ATOM     13  O   UNK     1      -3.613   3.059  -0.291  0.00  0.00    -0.249 OA
BRANCH  12  14
ATOM     14  O   UNK     1      -3.462   1.268  -1.668  0.00  0.00    -0.480 OA
ATOM     15  H   UNK     1      -2.731   0.678  -1.963  0.00  0.00    +0.295 HD
ENDBRANCH  12  14
ENDBRANCH   8  12
ENDBRANCH   7   8
ENDBRANCH   6   7
ENDBRANCH   2   6
ENDBRANCH   1   3
BRANCH   1  16
ATOM     16  C   UNK     1       2.370   7.208   1.829  0.00  0.00    +0.326 C 
ATOM     17  O   UNK     1       2.674   8.197   2.489  0.00  0.00    -0.249 OA
BRANCH  16  18
ATOM     18  O   UNK     1       1.535   7.291   0.761  0.00  0.00    -0.479 OA
ATOM     19  H   UNK     1       1.387   6.393   0.397  0.00  0.00    +0.295 HD
ENDBRANCH  16  18
ENDBRANCH   1  16
BRANCH   1  20
ATOM     20  C   UNK     1       4.484   5.948   2.006  0.00  0.00    +0.071 C 
BRANCH  20  21
ATOM     21  C   UNK     1       5.203   4.689   2.373  0.00  0.00    -0.020 A 
ATOM     22  C   UNK     1       5.632   3.670   1.470  0.00  0.00    +0.003 A 
ATOM     23  C   UNK     1       6.028   2.578   2.239  0.00  0.00    +0.047 A 
ATOM     24  C   UNK     1       6.335   1.335   1.677  0.00  0.00    +0.026 A 
ATOM     25  C   UNK     1       6.290   1.230   0.285  0.00  0.00    +0.002 A 
ATOM     26  C   UNK     1       5.995   2.334  -0.512  0.00  0.00    +0.001 A 
ATOM     27  N   UNK     1       6.048   2.996   3.550  0.00  0.00    -0.360 N 
ATOM     28  H   UNK     1       6.367   2.437   4.329  0.00  0.00    +0.165 HD
ATOM     29  C   UNK     1       5.662   3.557   0.065  0.00  0.00    +0.010 A 
ATOM     30  C   UNK     1       5.554   4.272   3.642  0.00  0.00    +0.087 A 
ENDBRANCH  20  21
ENDBRANCH   1  20
TORSDOF 11
