REMARK  Name = 
REMARK  8 active torsions:
REMARK  status: ('A' for Active; 'I' for Inactive)
REMARK    1  A    between atoms: N_6  and  C_10
REMARK    2  A    between atoms: C_13  and  C_15
REMARK    3  A    between atoms: C_15  and  O_16
REMARK    4  A    between atoms: O_16  and  P_17
REMARK    5  A    between atoms: P_17  and  O_18
REMARK    6  A    between atoms: P_17  and  O_19
REMARK    7  A    between atoms: C_21  and  O_23
REMARK    8  A    between atoms: C_24  and  O_26
REMARK                            x       y       z     vdW  Elec       q    Type
REMARK                         _______ _______ _______ _____ _____    ______ ____
ROOT
ATOM      1  C   UNL     1       6.793   0.102  -0.139  0.00  0.00    +0.255 C 
ATOM      2  C   UNL     1       7.479  -1.083   0.597  0.00  0.00    +0.195 C 
ATOM      3  C   UNL     1       8.525  -0.449   1.513  0.00  0.00    +0.178 C 
ATOM      4  C   UNL     1       8.509   1.034   1.165  0.00  0.00    +0.178 C 
ATOM      5  O   UNL     1       7.211   1.283   0.588  0.00  0.00    -0.346 OA
ENDROOT
BRANCH   1  13
ATOM      6  N   UNL     1       8.035   0.423  -5.506  0.00  0.00    -0.342 N 
ATOM      7  H   UNL     1       8.703   1.135  -5.782  0.00  0.00    +0.144 HD
ATOM      8  H   UNL     1       8.247  -0.507  -5.854  0.00  0.00    +0.144 HD
ATOM      9  C   UNL     1       7.589   0.432  -4.207  0.00  0.00    +0.137 A 
ATOM     10  C   UNL     1       7.589   1.690  -3.402  0.00  0.00    +0.074 A 
ATOM     11 BR   UNL     1       8.022   3.321  -4.160  0.00  0.00    -0.045 Br
ATOM     12  C   UNL     1       7.325   1.519  -2.107  0.00  0.00    +0.112 A 
ATOM     13  N   UNL     1       7.055   0.270  -1.572  0.00  0.00    -0.269 N 
ATOM     14  C   UNL     1       6.748  -0.794  -2.426  0.00  0.00    +0.352 A 
ATOM     15  O   UNL     1       6.098  -1.759  -2.037  0.00  0.00    -0.244 OA
ATOM     16  N   UNL     1       7.187  -0.709  -3.730  0.00  0.00    -0.177 NA
ENDBRANCH   1  13
BRANCH   2  17
ATOM     17  O   UNL     1       8.135  -2.036  -0.232  0.00  0.00    -0.385 OA
ATOM     18  H   UNL     1       7.997  -2.910   0.179  0.00  0.00    +0.210 HD
ENDBRANCH   2  17
BRANCH   3  19
ATOM     19  O   UNL     1       8.172  -0.670   2.882  0.00  0.00    -0.386 OA
ATOM     20  H   UNL     1       7.407  -0.108   3.098  0.00  0.00    +0.210 HD
ENDBRANCH   3  19
BRANCH   4  21
ATOM     21  C   UNL     1       9.644   1.385   0.191  0.00  0.00    +0.206 C 
BRANCH  21  22
ATOM     22  O   UNL     1       9.566   2.760  -0.205  0.00  0.00    -0.284 OA
BRANCH  22  23
ATOM     23  P   UNL     1      10.779   3.166  -1.369  0.00  0.00    +0.472 P 
ATOM     24  O   UNL     1      11.864   3.531  -2.412  0.00  0.00    -0.228 OA
BRANCH  23  25
ATOM     25  O   UNL     1      11.769   3.351  -0.079  0.00  0.00    -0.303 OA
ATOM     26  H   UNL     1      11.903   4.314   0.012  0.00  0.00    +0.222 HD
ENDBRANCH  23  25
BRANCH  23  27
ATOM     27  O   UNL     1      10.166   4.681  -1.246  0.00  0.00    -0.303 OA
ATOM     28  H   UNL     1       9.330   4.773  -1.734  0.00  0.00    +0.222 HD
ENDBRANCH  23  27
ENDBRANCH  22  23
ENDBRANCH  21  22
ENDBRANCH   4  21
TORSDOF 8
