REMARK  Name = 
REMARK  7 active torsions:
REMARK  status: ('A' for Active; 'I' for Inactive)
REMARK    1  A    between atoms: C_1  and  C_2
REMARK    2  A    between atoms: C_4  and  C_5
REMARK    3  A    between atoms: C_6  and  C_7
REMARK    4  A    between atoms: C_10  and  C_11
REMARK    5  A    between atoms: C_12  and  N_13
REMARK    6  A    between atoms: N_17  and  C_18
REMARK    7  A    between atoms: C_21  and  C_24
REMARK                            x       y       z     vdW  Elec       q    Type
REMARK                         _______ _______ _______ _____ _____    ______ ____
ROOT
ATOM      1  N   UNL     1       2.388  -2.409   0.062  0.00  0.00    -0.299 N 
ATOM      2  H   UNL     1       2.914  -3.240   0.295  0.00  0.00    +0.154 HD
ATOM      3  C   UNL     1       1.002  -2.622   0.168  0.00  0.00    +0.128 A 
ATOM      4  C   UNL     1       0.463  -3.747  -0.417  0.00  0.00    +0.063 A 
ATOM      5  C   UNL     1      -0.904  -3.870  -0.356  0.00  0.00    +0.118 A 
ATOM      6  N   UNL     1      -1.706  -2.966   0.236  0.00  0.00    -0.223 NA
ATOM      7  C   UNL     1      -1.108  -1.897   0.781  0.00  0.00    +0.221 A 
ATOM      8  N   UNL     1      -1.948  -0.939   1.353  0.00  0.00    -0.284 N 
ATOM      9  H   UNL     1      -2.909  -1.238   1.264  0.00  0.00    +0.155 HD
ATOM     10  N   UNL     1       0.220  -1.722   0.774  0.00  0.00    -0.199 NA
ENDROOT
BRANCH   1  13
ATOM     11  C   UNL     1       1.623   0.133  -1.417  0.00  0.00    +0.046 C 
ATOM     12  C   UNL     1       2.842  -0.054  -0.557  0.00  0.00    -0.028 A 
ATOM     13  C   UNL     1       3.144  -1.218   0.186  0.00  0.00    +0.038 A 
ATOM     14  C   UNL     1       4.281  -1.202   1.039  0.00  0.00    -0.028 A 
ATOM     15  C   UNL     1       4.548  -2.288   2.047  0.00  0.00    +0.046 C 
ATOM     16  C   UNL     1       5.202  -0.131   0.951  0.00  0.00    +0.013 A 
ATOM     17  C   UNL     1       4.970   0.958   0.102  0.00  0.00    -0.024 A 
ATOM     18  C   UNL     1       3.780   0.993  -0.609  0.00  0.00    +0.013 A 
BRANCH  17  19
ATOM     19  C   UNL     1       5.892   2.081  -0.098  0.00  0.00    +0.019 C 
ATOM     20  C   UNL     1       6.663   2.547   0.883  0.00  0.00    +0.089 C 
BRANCH  20  21
ATOM     21  C   UNL     1       7.504   3.808   0.774  0.00  0.00    +0.091 C 
ATOM     22  N   UNL     1       8.202   4.854   0.683  0.00  0.00    -0.191 NA
ENDBRANCH  20  21
ENDBRANCH  17  19
ENDBRANCH   1  13
BRANCH   8  23
ATOM     23  C   UNL     1      -1.709   0.375   1.779  0.00  0.00    +0.034 A 
ATOM     24  C   UNL     1      -2.787   1.163   2.211  0.00  0.00    +0.024 A 
ATOM     25  C   UNL     1      -2.602   2.492   2.623  0.00  0.00    +0.020 A 
ATOM     26  C   UNL     1      -1.325   3.060   2.615  0.00  0.00    +0.052 A 
ATOM     27  C   UNL     1      -0.240   2.285   2.216  0.00  0.00    +0.020 A 
ATOM     28  C   UNL     1      -0.432   0.958   1.816  0.00  0.00    +0.024 A 
BRANCH  26  29
ATOM     29  C   UNL     1      -1.128   4.426   3.000  0.00  0.00    +0.099 C 
ATOM     30  N   UNL     1      -0.962   5.533   3.303  0.00  0.00    -0.191 NA
ENDBRANCH  26  29
ENDBRANCH   8  23
TORSDOF 5
