REMARK  Name = 
REMARK  19 active torsions:
REMARK  status: ('A' for Active; 'I' for Inactive)
REMARK    1  A    between atoms: C_1  and  C_2
REMARK    2  A    between atoms: C_2  and  C_3
REMARK    3  A    between atoms: C_3  and  C_4
REMARK    4  A    between atoms: C_4  and  C_5
REMARK    5  A    between atoms: C_5  and  C_6
REMARK    6  A    between atoms: C_5  and  O_7
REMARK    7  A    between atoms: C_5  and  C_8
REMARK    8  A    between atoms: C_8  and  C_9
REMARK    9  A    between atoms: C_10  and  C_11
REMARK   10  A    between atoms: C_13  and  O_15
REMARK   11  A    between atoms: C_19  and  C_21
REMARK   12  A    between atoms: C_21  and  C_22
REMARK   13  A    between atoms: C_22  and  C_23
REMARK   14  A    between atoms: C_23  and  C_24
REMARK   15  A    between atoms: C_24  and  C_25
REMARK   16  A    between atoms: C_25  and  C_26
REMARK   17  A    between atoms: C_26  and  C_27
REMARK   18  A    between atoms: C_27  and  O_29
REMARK   19  A    between atoms: O_29  and  C_30
REMARK                            x       y       z     vdW  Elec       q    Type
REMARK                         _______ _______ _______ _____ _____    ______ ____
ROOT
ATOM      1  C   UNL     1       8.897  -4.143   4.588  0.00  0.00    +0.050 C 
ATOM      2  C   UNL     1       9.098  -5.592   4.091  0.00  0.00    +0.065 C 
ATOM      3  C   UNL     1       8.692  -6.399   5.308  0.00  0.00    +0.140 C 
ATOM      4  O   UNL     1       8.705  -7.623   5.361  0.00  0.00    -0.297 OA
ATOM      5  C   UNL     1       8.250  -5.549   6.457  0.00  0.00    +0.106 C 
ATOM      6  C   UNL     1       7.906  -4.246   5.761  0.00  0.00    +0.129 C 
ENDROOT
BRANCH   6   7
ATOM      7  O   UNL     1       8.032  -3.154   6.665  0.00  0.00    -0.391 OA
ATOM      8  H   UNL     1       8.965  -3.059   6.922  0.00  0.00    +0.210 HD
ENDBRANCH   6   7
BRANCH   1  10
ATOM      9  C   UNL     1       7.710  -3.437   2.448  0.00  0.00    -0.028 C 
ATOM     10  C   UNL     1       8.409  -3.154   3.559  0.00  0.00    -0.024 C 
BRANCH   9  11
ATOM     11  C   UNL     1       7.250  -2.402   1.458  0.00  0.00    +0.061 C 
BRANCH  11  12
ATOM     12  C   UNL     1       8.365  -1.640   0.696  0.00  0.00    +0.067 C 
ATOM     13  C   UNL     1       9.370  -2.607   0.052  0.00  0.00    +0.041 C 
BRANCH  12  14
ATOM     14  O   UNL     1       9.077  -0.804   1.618  0.00  0.00    -0.389 OA
ATOM     15  H   UNL     1       9.843  -0.427   1.154  0.00  0.00    +0.210 HD
ENDBRANCH  12  14
BRANCH  12  16
ATOM     16  C   UNL     1       7.750  -0.724  -0.391  0.00  0.00    +0.035 C 
BRANCH  16  17
ATOM     17  C   UNL     1       6.736   0.283   0.169  0.00  0.00    +0.003 C 
BRANCH  17  19
ATOM     18  C   UNL     1       5.159   2.166  -0.307  0.00  0.00    +0.004 C 
ATOM     19  C   UNL     1       6.177   1.208  -0.908  0.00  0.00    -0.003 C 
ENDBRANCH  17  19
ENDBRANCH  16  17
ENDBRANCH  12  16
ENDBRANCH  11  12
ENDBRANCH   9  11
ENDBRANCH   1  10
BRANCH   2  20
ATOM     20  C   UNL     1      10.543  -5.825   3.636  0.00  0.00    +0.012 C 
BRANCH  20  21
ATOM     21  C   UNL     1      10.760  -7.240   3.100  0.00  0.00    +0.001 C 
BRANCH  21  22
ATOM     22  C   UNL     1      12.208  -7.480   2.686  0.00  0.00    +0.000 C 
BRANCH  22  23
ATOM     23  C   UNL     1      12.399  -8.935   2.258  0.00  0.00    +0.001 C 
BRANCH  23  24
ATOM     24  C   UNL     1      13.847  -9.197   1.864  0.00  0.00    +0.011 C 
BRANCH  24  25
ATOM     25  C   UNL     1      14.061 -10.643   1.427  0.00  0.00    +0.120 C 
BRANCH  25  26
ATOM     26  C   UNL     1      15.499 -10.876   1.034  0.00  0.00    +0.307 C 
ATOM     27  O   UNL     1      16.390 -10.032   1.065  0.00  0.00    -0.251 OA
BRANCH  26  28
ATOM     28  O   UNL     1      15.667 -12.168   0.637  0.00  0.00    -0.468 OA
ATOM     29  C   UNL     1      17.006 -12.470   0.244  0.00  0.00    +0.280 C 
ENDBRANCH  26  28
ENDBRANCH  25  26
ENDBRANCH  24  25
ENDBRANCH  23  24
ENDBRANCH  22  23
ENDBRANCH  21  22
ENDBRANCH  20  21
ENDBRANCH   2  20
TORSDOF 16
