REMARK  Name = 
REMARK  8 active torsions:
REMARK  status: ('A' for Active; 'I' for Inactive)
REMARK    1  A    between atoms: C_1  and  N_2
REMARK    2  A    between atoms: C_3  and  C_5
REMARK    3  A    between atoms: C_5  and  C_6
REMARK    4  A    between atoms: C_6  and  O_8
REMARK    5  A    between atoms: C_6  and  C_9
REMARK    6  A    between atoms: C_18  and  C_20
REMARK    7  A    between atoms: C_20  and  C_21
REMARK    8  A    between atoms: C_21  and  C_23
REMARK                            x       y       z     vdW  Elec       q    Type
REMARK                         _______ _______ _______ _____ _____    ______ ____
ROOT
ATOM      1  C   UNL     1       6.387   2.602   3.118  0.00  0.00    +0.105 C 
ATOM      2  N   UNL     1       5.878   1.275   2.702  0.00  0.00    -0.299 NA
ATOM      3  C   UNL     1       7.018   0.406   2.498  0.00  0.00    +0.064 C 
ATOM      4  C   UNL     1       7.677   0.672   1.084  0.00  0.00    +0.019 C 
ATOM      5  C   UNL     1       6.872   1.403  -0.040  0.00  0.00    +0.003 C 
ATOM      6  C   UNL     1       5.604   2.100   0.394  0.00  0.00    +0.019 C 
ATOM      7  C   UNL     1       4.984   1.275   1.506  0.00  0.00    +0.059 C 
ENDROOT
BRANCH   3   8
ATOM      8  C   UNL     1       6.842  -0.956   3.269  0.00  0.00    +0.098 C 
BRANCH   8   9
ATOM      9  C   UNL     1       5.494  -1.751   3.420  0.00  0.00    +0.165 C 
ATOM     10  O   UNL     1       4.428  -1.270   3.792  0.00  0.00    -0.292 OA
BRANCH   9  11
ATOM     11  C   UNL     1       5.539  -3.240   3.213  0.00  0.00    +0.017 A 
ATOM     12  C   UNL     1       4.533  -3.905   2.494  0.00  0.00    +0.011 A 
ATOM     13  C   UNL     1       4.690  -5.256   2.145  0.00  0.00    +0.001 A 
ATOM     14  C   UNL     1       5.810  -5.963   2.567  0.00  0.00    +0.000 A 
ATOM     15  C   UNL     1       6.776  -5.320   3.355  0.00  0.00    +0.001 A 
ATOM     16  C   UNL     1       6.635  -3.974   3.680  0.00  0.00    +0.011 A 
ENDBRANCH   9  11
ENDBRANCH   8   9
ENDBRANCH   3   8
BRANCH   7  17
ATOM     17  C   UNL     1       4.396  -0.085   0.880  0.00  0.00    +0.055 C 
BRANCH  17  18
ATOM     18  C   UNL     1       5.131  -1.349   0.244  0.00  0.00    +0.146 C 
BRANCH  18  19
ATOM     19  C   UNL     1       5.481  -1.444  -1.234  0.00  0.00    -0.019 A 
ATOM     20  C   UNL     1       6.821  -1.447  -1.679  0.00  0.00    +0.006 A 
ATOM     21  C   UNL     1       7.149  -1.429  -3.033  0.00  0.00    +0.000 A 
ATOM     22  C   UNL     1       6.128  -1.518  -3.959  0.00  0.00    +0.000 A 
ATOM     23  C   UNL     1       4.816  -1.649  -3.538  0.00  0.00    +0.000 A 
ATOM     24  C   UNL     1       4.482  -1.628  -2.186  0.00  0.00    +0.006 A 
ENDBRANCH  18  19
BRANCH  18  25
ATOM     25  O   UNL     1       6.280  -1.804   0.926  0.00  0.00    -0.387 OA
ATOM     26  H   UNL     1       6.516  -2.676   0.560  0.00  0.00    +0.210 HD
ENDBRANCH  18  25
ENDBRANCH  17  18
ENDBRANCH   7  17
TORSDOF 7
