REMARK  Name = 
REMARK  13 active torsions:
REMARK  status: ('A' for Active; 'I' for Inactive)
REMARK    1  A    between atoms: C_1  and  O_2
REMARK    2  A    between atoms: O_2  and  C_3
REMARK    3  A    between atoms: C_5  and  C_13
REMARK    4  A    between atoms: C_7  and  O_8
REMARK    5  A    between atoms: O_8  and  C_9
REMARK    6  A    between atoms: C_10  and  O_11
REMARK    7  A    between atoms: O_11  and  C_12
REMARK    8  A    between atoms: C_13  and  O_15
REMARK    9  A    between atoms: C_13  and  C_16
REMARK   10  A    between atoms: C_16  and  C_17
REMARK   11  A    between atoms: C_19  and  O_20
REMARK   12  A    between atoms: C_21  and  O_22
REMARK   13  A    between atoms: O_22  and  C_23
REMARK                            x       y       z     vdW  Elec       q    Type
REMARK                         _______ _______ _______ _____ _____    ______ ____
ROOT
ATOM      1  C   UNL     1       5.723  -1.596   3.365  0.00  0.00    +0.149 C 
ENDROOT
BRANCH   1   6
ATOM      2  C   UNL     1       3.014  -0.998   0.734  0.00  0.00    +0.166 A 
ATOM      3  C   UNL     1       2.587  -2.307   0.417  0.00  0.00    +0.204 A 
ATOM      4  C   UNL     1       3.205  -3.395   1.070  0.00  0.00    +0.166 A 
ATOM      5  C   UNL     1       4.239  -3.158   1.998  0.00  0.00    +0.055 A 
ATOM      6  C   UNL     1       4.691  -1.867   2.287  0.00  0.00    -0.012 A 
ATOM      7  C   UNL     1       4.088  -0.798   1.617  0.00  0.00    +0.055 A 
BRANCH   2   9
ATOM      8  C   UNL     1       2.326   1.261   0.966  0.00  0.00    +0.277 C 
ATOM      9  O   UNL     1       2.349   0.071   0.181  0.00  0.00    -0.491 OA
ENDBRANCH   2   9
BRANCH   3  10
ATOM     10  O   UNL     1       1.539  -2.594  -0.419  0.00  0.00    -0.488 OA
ATOM     11  C   UNL     1       1.277  -1.721  -1.510  0.00  0.00    +0.277 C 
ENDBRANCH   3  10
BRANCH   4  12
ATOM     12  O   UNL     1       2.932  -4.735   0.954  0.00  0.00    -0.491 OA
ATOM     13  C   UNL     1       1.917  -5.171   0.063  0.00  0.00    +0.277 C 
ENDBRANCH   4  12
ENDBRANCH   1   6
BRANCH   1  14
ATOM     14  O   UNL     1       5.202  -2.122   4.589  0.00  0.00    -0.387 OA
ATOM     15  H   UNL     1       4.338  -1.697   4.730  0.00  0.00    +0.210 HD
ENDBRANCH   1  14
BRANCH   1  16
ATOM     16  C   UNL     1       7.108  -2.195   3.072  0.00  0.00    +0.071 C 
BRANCH  16  17
ATOM     17  C   UNL     1       8.138  -1.804   4.116  0.00  0.00    -0.041 A 
ATOM     18  C   UNL     1       8.910  -0.644   3.974  0.00  0.00    +0.007 A 
ATOM     19  C   UNL     1       9.842  -0.277   4.958  0.00  0.00    +0.049 A 
ATOM     20  C   UNL     1      10.010  -1.059   6.103  0.00  0.00    +0.161 A 
ATOM     21  C   UNL     1       9.235  -2.216   6.243  0.00  0.00    +0.159 A 
ATOM     22  C   UNL     1       8.305  -2.587   5.264  0.00  0.00    +0.053 A 
BRANCH  20  23
ATOM     23  O   UNL     1      10.880  -0.789   7.124  0.00  0.00    -0.491 OA
ATOM     24  C   UNL     1      11.673   0.385   7.023  0.00  0.00    +0.277 C 
ENDBRANCH  20  23
BRANCH  21  25
ATOM     25  O   UNL     1       9.391  -2.998   7.356  0.00  0.00    -0.503 OA
ATOM     26  H   UNL     1       8.792  -3.757   7.291  0.00  0.00    +0.292 HD
ENDBRANCH  21  25
ENDBRANCH  16  17
ENDBRANCH   1  16
TORSDOF 9
