REMARK  Name = 
REMARK  13 active torsions:
REMARK  status: ('A' for Active; 'I' for Inactive)
REMARK    1  A    between atoms: C_5  and  O_7
REMARK    2  A    between atoms: C_8  and  C_10
REMARK    3  A    between atoms: C_11  and  C_12
REMARK    4  A    between atoms: C_12  and  O_14
REMARK    5  A    between atoms: C_12  and  C_15
REMARK    6  A    between atoms: C_15  and  C_16
REMARK    7  A    between atoms: C_15  and  C_17
REMARK    8  A    between atoms: C_17  and  C_18
REMARK    9  A    between atoms: C_19  and  C_20
REMARK   10  A    between atoms: C_27  and  C_28
REMARK   11  A    between atoms: C_28  and  C_29
REMARK   12  A    between atoms: C_29  and  C_30
REMARK   13  A    between atoms: C_30  and  C_31
REMARK                            x       y       z     vdW  Elec       q    Type
REMARK                         _______ _______ _______ _____ _____    ______ ____
ROOT
ATOM      1 NA   UNL     1       0.402  -0.228   2.528  0.00  0.00    +0.000 Na
ENDROOT
TORSDOF 0
REMARK  Name = 
REMARK  13 active torsions:
REMARK  status: ('A' for Active; 'I' for Inactive)
REMARK    1  A    between atoms: C_5  and  O_7
REMARK    2  A    between atoms: C_8  and  C_10
REMARK    3  A    between atoms: C_11  and  C_12
REMARK    4  A    between atoms: C_12  and  O_14
REMARK    5  A    between atoms: C_12  and  C_15
REMARK    6  A    between atoms: C_15  and  C_16
REMARK    7  A    between atoms: C_15  and  C_17
REMARK    8  A    between atoms: C_17  and  C_18
REMARK    9  A    between atoms: C_19  and  C_20
REMARK   10  A    between atoms: C_27  and  C_28
REMARK   11  A    between atoms: C_28  and  C_29
REMARK   12  A    between atoms: C_29  and  C_30
REMARK   13  A    between atoms: C_30  and  C_31
REMARK                            x       y       z     vdW  Elec       q    Type
REMARK                         _______ _______ _______ _____ _____    ______ ____
ROOT
ATOM      1  C   UNL     1       2.211  -0.109  -0.281  0.00  0.00    +0.000 C 
ATOM      2  O   UNL     1       2.408  -1.116   0.726  0.00  0.00    +0.000 OA
ATOM      3  C   UNL     1       2.901  -2.201   0.048  0.00  0.00    +0.000 A 
ATOM      4  C   UNL     1       3.149  -1.929  -1.298  0.00  0.00    +0.000 A 
ATOM      5  C   UNL     1       3.544  -2.916  -2.168  0.00  0.00    +0.000 A 
ATOM      6  C   UNL     1       3.704  -4.210  -1.657  0.00  0.00    +0.000 A 
ATOM      7  C   UNL     1       3.536  -4.471  -0.278  0.00  0.00    +0.000 A 
ATOM      8  C   UNL     1       3.145  -3.443   0.610  0.00  0.00    +0.000 A 
ATOM      9  C   UNL     1       3.021  -0.465  -1.524  0.00  0.00    +0.000 C 
ATOM     10  C   UNL     1       4.368   0.294  -1.400  0.00  0.00    +0.000 C 
ATOM     11  C   UNL     1       4.163   1.334  -0.270  0.00  0.00    +0.000 C 
ATOM     12  C   UNL     1       2.707   1.251   0.173  0.00  0.00    +0.000 C 
ENDROOT
BRANCH  10  13
ATOM     13  C   UNL     1       4.733   0.864  -2.754  0.00  0.00    +0.000 C 
ATOM     14  C   UNL     1       5.347   2.036  -2.984  0.00  0.00    +0.000 C 
BRANCH  14  15
ATOM     15  C   UNL     1       5.469   2.692  -4.332  0.00  0.00    +0.000 C 
BRANCH  15  16
ATOM     16  C   UNL     1       4.256   3.601  -4.651  0.00  0.00    +0.000 C 
ATOM     17  C   UNL     1       2.940   2.808  -4.785  0.00  0.00    +0.000 C 
BRANCH  16  18
ATOM     18  C   UNL     1       4.140   4.728  -3.606  0.00  0.00    +0.000 C 
BRANCH  18  19
ATOM     19  C   UNL     1       2.963   5.640  -3.914  0.00  0.00    +0.000 C 
ATOM     20  C   UNL     1       1.954   6.422  -4.179  0.00  0.00    +0.000 C 
ATOM     21  C   UNL     1       0.822   7.301  -4.469  0.00  0.00    +0.000 C 
ENDBRANCH  18  19
ENDBRANCH  16  18
ENDBRANCH  15  16
BRANCH  15  22
ATOM     22  O   UNL     1       5.605   1.702  -5.345  0.00  0.00    +0.000 OA
ATOM     23  H   UNL     1       6.316   1.105  -5.052  0.00  0.00    +0.000 HD
ENDBRANCH  15  22
ENDBRANCH  14  15
ENDBRANCH  10  13
BRANCH  11  24
ATOM     24  O   UNL     1       5.074   1.064   0.790  0.00  0.00    +0.000 OA
ATOM     25  H   UNL     1       4.729   1.451   1.615  0.00  0.00    +0.000 HD
ENDBRANCH  11  24
BRANCH   8  26
ATOM     26  C   UNL     1       2.986  -3.729   2.079  0.00  0.00    +0.000 C 
BRANCH  26  27
ATOM     27  C   UNL     1       4.006  -3.063   3.025  0.00  0.00    +0.000 C 
BRANCH  27  28
ATOM     28  C   UNL     1       3.886  -1.555   3.246  0.00  0.00    +0.000 C 
BRANCH  28  29
ATOM     29  C   UNL     1       2.522  -1.014   3.612  0.00  0.00    +0.000 C 
ATOM     30  O   UNL     1       2.259   0.177   3.252  0.00  0.00    -0.500 OA
ATOM     31  O   UNL     1       1.632  -1.780   4.066  0.00  0.00    -0.500 OA
ENDBRANCH  28  29
ENDBRANCH  27  28
ENDBRANCH  26  27
ENDBRANCH   8  26
TORSDOF 11
