REMARK  Name = 
REMARK  55 active torsions:
REMARK  status: ('A' for Active; 'I' for Inactive)
REMARK    1  A    between atoms: CA_9  and  CB_11
REMARK    2  A    between atoms: CB_11  and  CG_12
REMARK    3  A    between atoms: CG_12  and  CD_13
REMARK    4  A    between atoms: CD_13  and  CE_14
REMARK    5  A    between atoms: CE_14  and  NZ_15
REMARK    6  A    between atoms: CA_19  and  CB_21
REMARK    7  A    between atoms: CB_21  and  CG_22
REMARK    8  A    between atoms: CG_22  and  CD_23
REMARK    9  A    between atoms: CD_23  and  CE_24
REMARK   10  A    between atoms: CE_24  and  NZ_25
REMARK   11  A    between atoms: CA_29  and  CB_31
REMARK   12  A    between atoms: CB_31  and  CG_32
REMARK   13  A    between atoms: CG_32  and  CD_33
REMARK   14  A    between atoms: CD_33  and  NE_34
REMARK   15  A    between atoms: CA_41  and  CB_43
REMARK   16  A    between atoms: CB_43  and  CG_44
REMARK   17  A    between atoms: CZ_47  and  OH_48
REMARK   18  A    between atoms: CA_54  and  N_115
REMARK   19  A    between atoms: CA_60  and  C_100
REMARK   20  A    between atoms: CA_65  and  CB_67
REMARK   21  A    between atoms: CB_67  and  CG_68
REMARK   22  A    between atoms: CG_68  and  CD_69
REMARK   23  A    between atoms: CD_69  and  CE_70
REMARK   24  A    between atoms: CE_70  and  NZ_71
REMARK   25  A    between atoms: CA_75  and  CB_77
REMARK   26  A    between atoms: CB_77  and  CG_78
REMARK   27  A    between atoms: CG_78  and  CD_79
REMARK   28  A    between atoms: CD_79  and  NE_80
REMARK   29  A    between atoms: CA_87  and  CB_89
REMARK   30  A    between atoms: CB_89  and  CG_90
REMARK   31  A    between atoms: CZ_93  and  OH_94
REMARK   32  A    between atoms: N_102  and  CA_103
REMARK   33  A    between atoms: CA_103  and  CB_105
REMARK   34  A    between atoms: CA_103  and  C_112
REMARK   35  A    between atoms: CB_105  and  CG_106
REMARK   36  A    between atoms: CG_106  and  CD_107
REMARK   37  A    between atoms: CD_107  and  NE_108
REMARK   38  A    between atoms: C_112  and  O_113
REMARK   39  A    between atoms: C_116  and  CA_118
REMARK   40  A    between atoms: CA_118  and  CB_120
REMARK   41  A    between atoms: CA_118  and  N_128
REMARK   42  A    between atoms: CB_120  and  CG_121
REMARK   43  A    between atoms: CZ_124  and  OH_125
REMARK   44  A    between atoms: C_129  and  CA_131
REMARK   45  A    between atoms: CA_131  and  CB_133
REMARK   46  A    between atoms: CA_131  and  N_140
REMARK   47  A    between atoms: CB_133  and  CG_134
REMARK   48  A    between atoms: CG_134  and  CD_135
REMARK   49  A    between atoms: CD_135  and  NE_136
REMARK   50  A    between atoms: C_141  and  CA_143
REMARK   51  A    between atoms: CA_143  and  N_145
REMARK   52  A    between atoms: CA_143  and  CB_146
REMARK   53  A    between atoms: CB_146  and  CG_147
REMARK   54  A    between atoms: CG_147  and  CD_148
REMARK   55  A    between atoms: CD_148  and  NE_149
REMARK                            x       y       z     vdW  Elec       q    Type
REMARK                         _______ _______ _______ _____ _____    ______ ____
ROOT
ATOM      1  CA  PRO A   9      -2.932  -9.318   5.834  0.00  0.00    +0.162 C 
ATOM      2  C   PRO A   9      -3.551 -11.005   5.503  0.00  0.00    +0.234 C 
ATOM      3  O   PRO A   9      -2.703 -11.811   5.071  0.00  0.00    -0.274 OA
ATOM      4  N   TYR A  10      -4.923 -11.453   5.238  0.00  0.00    -0.302 N 
ATOM      5  H   TYR A  10      -4.967 -12.219   4.577  0.00  0.00    +0.150 HD
ATOM      6  CA  TYR A  10      -6.269 -11.184   5.898  0.00  0.00    +0.163 C 
ATOM      7  C   TYR A  10      -5.794 -10.718   7.188  0.00  0.00    +0.234 C 
ATOM      8  O   TYR A  10      -5.576 -11.459   8.139  0.00  0.00    -0.274 OA
ATOM      9  N   ARG A  11      -5.283  -9.441   7.096  0.00  0.00    -0.302 N 
ATOM     10  H   ARG A  11      -5.025  -9.215   8.053  0.00  0.00    +0.150 HD
ATOM     11  CA  ARG A  11      -5.599  -8.243   6.252  0.00  0.00    +0.159 C 
ATOM     12  C   ARG A  11      -5.722  -8.139   4.753  0.00  0.00    +0.234 C 
ATOM     13  O   ARG A  11      -5.253  -7.245   4.067  0.00  0.00    -0.274 OA
ATOM     14  N   LYS A  12      -6.759  -8.710   4.142  0.00  0.00    -0.302 N 
ATOM     15  H   LYS A  12      -6.487  -8.669   3.166  0.00  0.00    +0.150 HD
ATOM     16  CA  LYS A  12      -7.977  -7.926   4.391  0.00  0.00    +0.159 C 
ATOM     17  C   LYS A  12      -8.779  -8.714   5.475  0.00  0.00    +0.234 C 
ATOM     18  O   LYS A  12      -9.354  -9.755   5.134  0.00  0.00    -0.274 OA
ATOM     19  N   CYS A  13      -8.648  -8.528   6.845  0.00  0.00    -0.302 N 
ATOM     20  H   CYS A  13      -8.970  -9.355   7.330  0.00  0.00    +0.150 HD
ATOM     21  CA  CYS A  13      -8.629  -7.318   7.751  0.00  0.00    +0.169 C 
ATOM     22  CB  CYS A  13      -7.295  -7.015   8.513  0.00  0.00    +0.112 C 
ATOM     23  SG  CYS A  13      -6.403  -8.559   9.409  0.00  0.00    -0.091 S 
ATOM     24  SG  CYS A   4      -4.199  -8.510   9.641  0.00  0.00    -0.091 S 
ATOM     25  CB  CYS A   4      -2.820  -9.959   8.769  0.00  0.00    +0.112 C 
ATOM     26  CA  CYS A   4      -1.070  -9.748   8.689  0.00  0.00    +0.169 C 
ATOM     27  C   CYS A   4       0.266  -8.948   7.450  0.00  0.00    +0.235 C 
ATOM     28  O   CYS A   4       1.266  -9.646   7.181  0.00  0.00    -0.274 OA
ATOM     29  N   TYR A   5       0.330  -7.342   6.648  0.00  0.00    -0.302 N 
ATOM     30  H   TYR A   5       1.210  -7.253   6.141  0.00  0.00    +0.150 HD
ATOM     31  CA  TYR A   5      -0.721  -5.716   6.614  0.00  0.00    +0.163 C 
ATOM     32  C   TYR A   5      -1.815  -5.080   8.063  0.00  0.00    +0.234 C 
ATOM     33  O   TYR A   5      -2.589  -4.128   7.914  0.00  0.00    -0.274 OA
ATOM     34  N   ARG A   6      -1.918  -5.620   9.380  0.00  0.00    -0.302 N 
ATOM     35  H   ARG A   6      -2.898  -5.603   9.666  0.00  0.00    +0.150 HD
ATOM     36  CA  ARG A   6      -1.037  -6.321  10.591  0.00  0.00    +0.159 C 
ATOM     37  C   ARG A   6       0.385  -7.658  10.409  0.00  0.00    +0.234 C 
ATOM     38  O   ARG A   6       0.816  -8.451  11.288  0.00  0.00    -0.274 OA
ATOM     39  N   LYS A   7       1.402  -8.039   9.540  0.00  0.00    -0.302 N 
ATOM     40  H   LYS A   7       1.694  -8.960   9.856  0.00  0.00    +0.150 HD
ATOM     41  CA  LYS A   7       2.775  -7.457   9.442  0.00  0.00    +0.159 C 
ATOM     42  C   LYS A   7       2.859  -6.892   8.039  0.00  0.00    +0.234 C 
ATOM     43  O   LYS A   7       3.731  -7.047   7.195  0.00  0.00    -0.274 OA
ATOM     44  N   LYS A   8       1.831  -6.089   7.739  0.00  0.00    -0.302 N 
ATOM     45  H   LYS A   8       1.944  -5.590   6.870  0.00  0.00    +0.150 HD
ATOM     46  CA  LYS A   8       0.533  -6.189   8.508  0.00  0.00    +0.159 C 
ATOM     47  C   LYS A   8      -1.131  -7.413   7.938  0.00  0.00    +0.237 C 
ATOM     48  O   LYS A   8      -1.930  -7.712   8.817  0.00  0.00    -0.274 OA
ATOM     49  N   PRO A   9      -1.580  -8.322   6.391  0.00  0.00    -0.288 N 
ATOM     50  CD  PRO A   9      -0.671  -8.764   5.096  0.00  0.00    +0.109 C 
ATOM     51  CG  PRO A   9      -1.496  -9.057   3.840  0.00  0.00    +0.021 C 
ATOM     52  CB  PRO A   9      -2.926  -9.117   4.247  0.00  0.00    +0.033 C 
ENDROOT
BRANCH  21  53
ATOM     53  C   CYS A  13      -9.368  -6.157   7.011  0.00  0.00    +0.235 C 
ATOM     54  N   ARG A  14      -9.174  -4.844   7.373  0.00  0.00    -0.301 N 
ATOM     55  H   ARG A  14      -8.393  -4.531   7.940  0.00  0.00    +0.150 HD
ATOM     56  O   CYS A  13     -10.227  -6.421   6.161  0.00  0.00    -0.274 OA
BRANCH  54  57
ATOM     57  CA  ARG A  14     -10.270  -3.880   7.106  0.00  0.00    +0.182 C 
BRANCH  57  58
ATOM     58  C   ARG A  14      -9.882  -2.390   7.090  0.00  0.00    +0.325 C 
ATOM     59  OXT ARG A  14      -8.766  -1.933   7.278  0.00  0.00    -0.249 OA
BRANCH  58  60
ATOM     60  O   ARG A  14     -10.965  -1.583   7.018  0.00  0.00    -0.479 OA
ATOM     61  H   ARG A  14     -10.688  -0.688   7.311  0.00  0.00    +0.295 HD
ENDBRANCH  58  60
ENDBRANCH  57  58
BRANCH  57  62
ATOM     62  CB  ARG A  14     -11.400  -4.120   8.147  0.00  0.00    +0.037 C 
BRANCH  62  63
ATOM     63  CG  ARG A  14     -10.967  -4.064   9.620  0.00  0.00    +0.039 C 
BRANCH  63  64
ATOM     64  CD  ARG A  14     -10.158  -2.814  10.013  0.00  0.00    +0.196 C 
BRANCH  64  65
ATOM     65  NE  ARG A  14      -9.899  -2.606  11.358  0.00  0.00    -0.276 N 
ATOM     66  HE  ARG A  14      -9.847  -3.456  11.892  0.00  0.00    +0.258 HD
ATOM     67  CZ  ARG A  14      -9.069  -1.626  11.735  0.00  0.00    +0.376 C 
ATOM     68  NH2 ARG A  14      -8.409  -0.788  11.019  0.00  0.00    -0.130 NA
ATOM     69  HH2 ARG A  14      -8.506  -0.984  10.004  0.00  0.00    +0.306 HD
ATOM     70  NH1 ARG A  14      -8.969  -1.509  13.071  0.00  0.00    -0.289 N 
ATOM     71 HH11 ARG A  14      -8.605  -0.588  13.305  0.00  0.00    +0.255 HD
ATOM     72 HH12 ARG A  14      -9.834  -1.702  13.541  0.00  0.00    +0.255 HD
ENDBRANCH  64  65
ENDBRANCH  63  64
ENDBRANCH  62  63
ENDBRANCH  57  62
ENDBRANCH  54  57
ENDBRANCH  21  53
BRANCH  26  73
ATOM     73  N   CYS A   4      -0.700  -9.773  10.315  0.00  0.00    -0.302 N 
ATOM     74  H   CYS A   4       0.288  -9.687  10.335  0.00  0.00    +0.150 HD
ATOM     75  C   TYR A   3      -1.300  -9.408  11.599  0.00  0.00    +0.234 C 
ATOM     76  O   TYR A   3      -2.418  -9.860  11.893  0.00  0.00    -0.274 OA
BRANCH  75  77
ATOM     77  CA  TYR A   3      -0.534  -8.287  12.925  0.00  0.00    +0.163 C 
BRANCH  77  78
ATOM     78  N   TYR A   3      -0.928  -8.621  14.320  0.00  0.00    -0.302 N 
ATOM     79  H   TYR A   3      -1.589  -9.390  14.359  0.00  0.00    +0.150 HD
ATOM     80  C   ARG A   2      -0.958  -7.695  15.363  0.00  0.00    +0.234 C 
ATOM     81  O   ARG A   2      -0.160  -6.783  15.542  0.00  0.00    -0.274 OA
BRANCH  80  82
ATOM     82  CA  ARG A   2      -2.060  -8.014  16.457  0.00  0.00    +0.159 C 
BRANCH  82  83
ATOM     83  N   ARG A   2      -1.332  -7.725  17.689  0.00  0.00    -0.303 N 
ATOM     84  H   ARG A   2      -0.721  -6.906  17.696  0.00  0.00    +0.149 HD
ATOM     85  C   ARG A   1      -0.966  -8.758  18.516  0.00  0.00    +0.230 C 
ATOM     86  O   ARG A   1      -1.456  -9.871  18.449  0.00  0.00    -0.274 OA
BRANCH  85  87
ATOM     87  CA  ARG A   1       0.018  -8.355  19.622  0.00  0.00    +0.138 C 
BRANCH  87  88
ATOM     88  N   ARG A   1       1.118  -7.544  19.070  0.00  0.00    -0.320 NA
ATOM     89  H1  ARG A   1       1.867  -7.510  19.765  0.00  0.00    +0.119 HD
ATOM     90  H2  ARG A   1       1.525  -8.039  18.273  0.00  0.00    +0.119 HD
ENDBRANCH  87  88
BRANCH  87  91
ATOM     91  CB  ARG A   1      -0.716  -7.589  20.730  0.00  0.00    +0.031 C 
BRANCH  91  92
ATOM     92  CG  ARG A   1      -1.929  -8.357  21.277  0.00  0.00    +0.039 C 
BRANCH  92  93
ATOM     93  CD  ARG A   1      -1.541  -9.738  21.809  0.00  0.00    +0.196 C 
BRANCH  93  94
ATOM     94  NE  ARG A   1      -2.716 -10.474  22.190  0.00  0.00    -0.276 N 
ATOM     95  HE  ARG A   1      -3.040 -10.305  23.132  0.00  0.00    +0.258 HD
ATOM     96  CZ  ARG A   1      -3.442 -11.315  21.425  0.00  0.00    +0.376 C 
ATOM     97  NH2 ARG A   1      -4.498 -11.902  21.866  0.00  0.00    -0.130 NA
ATOM     98  HH2 ARG A   1      -4.645 -11.627  22.838  0.00  0.00    +0.306 HD
ATOM     99  NH1 ARG A   1      -3.017 -11.584  20.180  0.00  0.00    -0.289 N 
ATOM    100 HH11 ARG A   1      -3.710 -12.071  19.626  0.00  0.00    +0.255 HD
ATOM    101 HH12 ARG A   1      -2.504 -10.887  19.646  0.00  0.00    +0.255 HD
ENDBRANCH  93  94
ENDBRANCH  92  93
ENDBRANCH  91  92
ENDBRANCH  87  91
ENDBRANCH  85  87
ENDBRANCH  82  83
BRANCH  82 102
ATOM    102  CB  ARG A   2      -3.408  -7.258  16.524  0.00  0.00    +0.035 C 
BRANCH 102 103
ATOM    103  CG  ARG A   2      -4.444  -7.377  15.389  0.00  0.00    +0.039 C 
BRANCH 103 104
ATOM    104  CD  ARG A   2      -4.848  -8.810  15.026  0.00  0.00    +0.196 C 
BRANCH 104 105
ATOM    105  NE  ARG A   2      -6.067  -8.895  14.241  0.00  0.00    -0.276 N 
ATOM    106  HE  ARG A   2      -6.679  -9.645  14.536  0.00  0.00    +0.258 HD
ATOM    107  CZ  ARG A   2      -6.234  -8.626  12.944  0.00  0.00    +0.376 C 
ATOM    108  NH2 ARG A   2      -7.186  -9.091  12.218  0.00  0.00    -0.130 NA
ATOM    109  HH2 ARG A   2      -7.775  -9.730  12.741  0.00  0.00    +0.306 HD
ATOM    110  NH1 ARG A   2      -5.303  -7.828  12.373  0.00  0.00    -0.289 N 
ATOM    111 HH11 ARG A   2      -5.397  -7.942  11.355  0.00  0.00    +0.255 HD
ATOM    112 HH12 ARG A   2      -4.373  -8.152  12.588  0.00  0.00    +0.255 HD
ENDBRANCH 104 105
ENDBRANCH 103 104
ENDBRANCH 102 103
ENDBRANCH  82 102
ENDBRANCH  80  82
ENDBRANCH  77  78
BRANCH  77 113
ATOM    113  CB  TYR A   3       0.516  -6.804  12.809  0.00  0.00    +0.067 C 
BRANCH 113 114
ATOM    114  CG  TYR A   3       1.838  -6.415  13.357  0.00  0.00    -0.045 A 
ATOM    115  CD2 TYR A   3       2.533  -5.274  12.840  0.00  0.00    +0.007 A 
ATOM    116  CE2 TYR A   3       3.905  -5.232  12.915  0.00  0.00    +0.045 A 
ATOM    117  CZ  TYR A   3       4.526  -6.265  13.598  0.00  0.00    +0.117 A 
ATOM    118  CE1 TYR A   3       3.816  -7.306  14.197  0.00  0.00    +0.045 A 
ATOM    119  CD1 TYR A   3       2.451  -7.394  14.076  0.00  0.00    +0.007 A 
BRANCH 117 120
ATOM    120  OH  TYR A   3       5.880  -6.317  13.603  0.00  0.00    -0.507 OA
ATOM    121  HH  TYR A   3       6.118  -7.113  14.105  0.00  0.00    +0.292 HD
ENDBRANCH 117 120
ENDBRANCH 113 114
ENDBRANCH  77 113
ENDBRANCH  75  77
ENDBRANCH  26  73
BRANCH  46 122
ATOM    122  CB  LYS A   8       1.320  -4.780   9.583  0.00  0.00    +0.032 C 
BRANCH 122 123
ATOM    123  CG  LYS A   8       2.714  -3.709   9.194  0.00  0.00    +0.003 C 
BRANCH 123 124
ATOM    124  CD  LYS A   8       2.986  -2.133   9.657  0.00  0.00    +0.015 C 
BRANCH 124 125
ATOM    125  CE  LYS A   8       4.504  -1.604   9.754  0.00  0.00    +0.077 C 
BRANCH 125 126
ATOM    126  NZ  LYS A   8       5.226  -1.888  11.005  0.00  0.00    -0.330 NA
ATOM    127  HZ1 LYS A   8       6.220  -1.657  10.885  0.00  0.00    +0.118 HD
ATOM    128  HZ2 LYS A   8       4.924  -1.225  11.726  0.00  0.00    +0.118 HD
ENDBRANCH 125 126
ENDBRANCH 124 125
ENDBRANCH 123 124
ENDBRANCH 122 123
ENDBRANCH  46 122
BRANCH  31 129
ATOM    129  CB  TYR A   5      -0.194  -4.316   5.812  0.00  0.00    +0.067 C 
BRANCH 129 130
ATOM    130  CG  TYR A   5      -0.950  -3.094   5.350  0.00  0.00    -0.045 A 
ATOM    131  CD2 TYR A   5      -0.242  -1.924   5.025  0.00  0.00    +0.007 A 
ATOM    132  CE2 TYR A   5      -0.832  -0.920   4.251  0.00  0.00    +0.045 A 
ATOM    133  CZ  TYR A   5      -2.087  -1.142   3.715  0.00  0.00    +0.117 A 
ATOM    134  CE1 TYR A   5      -2.844  -2.200   4.163  0.00  0.00    +0.045 A 
ATOM    135  CD1 TYR A   5      -2.299  -3.070   5.097  0.00  0.00    +0.007 A 
BRANCH 133 136
ATOM    136  OH  TYR A   5      -2.556  -0.323   2.738  0.00  0.00    -0.507 OA
ATOM    137  HH  TYR A   5      -3.210  -0.843   2.235  0.00  0.00    +0.292 HD
ENDBRANCH 133 136
ENDBRANCH 129 130
ENDBRANCH  31 129
BRANCH  36 138
ATOM    138  CB  ARG A   6      -2.194  -5.969  11.980  0.00  0.00    +0.035 C 
BRANCH 138 139
ATOM    139  CG  ARG A   6      -1.784  -5.137  13.317  0.00  0.00    +0.039 C 
BRANCH 139 140
ATOM    140  CD  ARG A   6      -1.073  -3.841  12.958  0.00  0.00    +0.196 C 
BRANCH 140 141
ATOM    141  NE  ARG A   6       0.034  -3.467  13.825  0.00  0.00    -0.276 N 
ATOM    142  HE  ARG A   6       0.522  -4.222  14.307  0.00  0.00    +0.258 HD
ATOM    143  CZ  ARG A   6       0.826  -2.411  13.513  0.00  0.00    +0.376 C 
ATOM    144  NH2 ARG A   6       0.846  -1.777  12.398  0.00  0.00    -0.130 NA
ATOM    145  HH2 ARG A   6       0.201  -2.205  11.736  0.00  0.00    +0.306 HD
ATOM    146  NH1 ARG A   6       1.621  -1.993  14.509  0.00  0.00    -0.289 N 
ATOM    147 HH11 ARG A   6       2.256  -1.270  14.187  0.00  0.00    +0.255 HD
ATOM    148 HH12 ARG A   6       2.083  -2.707  15.053  0.00  0.00    +0.255 HD
ENDBRANCH 140 141
ENDBRANCH 139 140
ENDBRANCH 138 139
ENDBRANCH  36 138
BRANCH  41 149
ATOM    149  CB  LYS A   7       4.071  -8.255   9.510  0.00  0.00    +0.032 C 
BRANCH 149 150
ATOM    150  CG  LYS A   7       4.565  -8.770  10.837  0.00  0.00    +0.003 C 
BRANCH 150 151
ATOM    151  CD  LYS A   7       3.741  -9.943  11.313  0.00  0.00    +0.015 C 
BRANCH 151 152
ATOM    152  CE  LYS A   7       4.325 -10.661  12.515  0.00  0.00    +0.077 C 
BRANCH 152 153
ATOM    153  NZ  LYS A   7       5.668 -11.153  12.266  0.00  0.00    -0.330 NA
ATOM    154  HZ1 LYS A   7       6.010 -11.640  13.091  0.00  0.00    +0.118 HD
ATOM    155  HZ2 LYS A   7       5.648 -11.837  11.510  0.00  0.00    +0.118 HD
ENDBRANCH 152 153
ENDBRANCH 151 152
ENDBRANCH 150 151
ENDBRANCH 149 150
ENDBRANCH  41 149
BRANCH   6 156
ATOM    156  CB  TYR A  10      -7.639 -11.980   6.082  0.00  0.00    +0.067 C 
BRANCH 156 157
ATOM    157  CG  TYR A  10      -7.959 -13.349   6.645  0.00  0.00    -0.045 A 
ATOM    158  CD2 TYR A  10      -7.392 -14.472   6.084  0.00  0.00    +0.007 A 
ATOM    159  CE2 TYR A  10      -7.859 -15.755   6.397  0.00  0.00    +0.045 A 
ATOM    160  CZ  TYR A  10      -8.904 -15.927   7.303  0.00  0.00    +0.117 A 
ATOM    161  CE1 TYR A  10      -9.511 -14.828   7.893  0.00  0.00    +0.045 A 
ATOM    162  CD1 TYR A  10      -9.056 -13.540   7.551  0.00  0.00    +0.007 A 
BRANCH 160 163
ATOM    163  OH  TYR A  10      -9.312 -17.203   7.560  0.00  0.00    -0.507 OA
ATOM    164  HH  TYR A  10      -9.948 -17.191   8.293  0.00  0.00    +0.292 HD
ENDBRANCH 160 163
ENDBRANCH 156 157
ENDBRANCH   6 156
BRANCH  11 165
ATOM    165  CB  ARG A  11      -4.984  -6.883   6.665  0.00  0.00    +0.035 C 
BRANCH 165 166
ATOM    166  CG  ARG A  11      -3.692  -6.235   6.304  0.00  0.00    +0.039 C 
BRANCH 166 167
ATOM    167  CD  ARG A  11      -3.102  -6.045   4.934  0.00  0.00    +0.196 C 
BRANCH 167 168
ATOM    168  NE  ARG A  11      -3.945  -5.244   4.117  0.00  0.00    -0.276 N 
ATOM    169  HE  ARG A  11      -4.913  -5.414   4.351  0.00  0.00    +0.258 HD
ATOM    170  CZ  ARG A  11      -3.784  -5.107   2.790  0.00  0.00    +0.376 C 
ATOM    171  NH2 ARG A  11      -4.779  -4.806   2.034  0.00  0.00    -0.130 NA
ATOM    172  HH2 ARG A  11      -5.599  -4.722   2.645  0.00  0.00    +0.306 HD
ATOM    173  NH1 ARG A  11      -2.558  -5.292   2.282  0.00  0.00    -0.289 N 
ATOM    174 HH11 ARG A  11      -2.614  -5.282   1.270  0.00  0.00    +0.255 HD
ATOM    175 HH12 ARG A  11      -2.089  -6.126   2.597  0.00  0.00    +0.255 HD
ENDBRANCH 167 168
ENDBRANCH 166 167
ENDBRANCH 165 166
ENDBRANCH  11 165
BRANCH  16 176
ATOM    176  CB  LYS A  12      -8.674  -7.842   3.039  0.00  0.00    +0.032 C 
BRANCH 176 177
ATOM    177  CG  LYS A  12      -7.870  -7.089   1.947  0.00  0.00    +0.003 C 
BRANCH 177 178
ATOM    178  CD  LYS A  12      -8.681  -6.942   0.658  0.00  0.00    +0.015 C 
BRANCH 178 179
ATOM    179  CE  LYS A  12     -10.025  -6.244   0.857  0.00  0.00    +0.077 C 
BRANCH 179 180
ATOM    180  NZ  LYS A  12      -9.848  -4.906   1.407  0.00  0.00    -0.330 NA
ATOM    181  HZ1 LYS A  12     -10.760  -4.480   1.558  0.00  0.00    +0.118 HD
ATOM    182  HZ2 LYS A  12      -9.407  -4.957   2.323  0.00  0.00    +0.118 HD
ENDBRANCH 179 180
ENDBRANCH 178 179
ENDBRANCH 177 178
ENDBRANCH 176 177
ENDBRANCH  16 176
TORSDOF 55
