REMARK  Name = 
REMARK  9 active torsions:
REMARK  status: ('A' for Active; 'I' for Inactive)
REMARK    1  A    between atoms: C_1  and  C_2
REMARK    2  A    between atoms: C_4  and  C_5
REMARK    3  A    between atoms: C_5  and  N_6
REMARK    4  A    between atoms: N_6  and  O_7
REMARK    5  A    between atoms: N_10  and  S_13
REMARK    6  A    between atoms: C_11  and  C_12
REMARK    7  A    between atoms: S_13  and  C_16
REMARK    8  A    between atoms: C_19  and  O_20
REMARK    9  A    between atoms: O_20  and  C_21
REMARK                            x       y       z     vdW  Elec       q    Type
REMARK                         _______ _______ _______ _____ _____    ______ ____
ROOT
ATOM      1  S   UNL     1       1.643   1.537  -3.287  0.00  0.00    +0.075 S 
ATOM      2  O   UNL     1       1.416   2.830  -2.673  0.00  0.00    -0.150 OA
ATOM      3  O   UNL     1       0.580   0.560  -3.392  0.00  0.00    -0.150 OA
ENDROOT
BRANCH   1   8
ATOM      4  C   UNL     1       1.018   0.060   0.072  0.00  0.00    +0.040 C 
ATOM      5  C   UNL     1       2.533   0.018  -0.110  0.00  0.00    +0.138 C 
ATOM      6  C   UNL     1       3.103   1.122  -1.033  0.00  0.00    +0.124 C 
ATOM      7  C   UNL     1       4.610   1.289  -0.783  0.00  0.00    +0.032 C 
ATOM      8  N   UNL     1       2.960   0.761  -2.492  0.00  0.00    -0.192 N 
ATOM      9  C   UNL     1       3.242  -0.610  -2.852  0.00  0.00    +0.103 C 
ATOM     10  S   UNL     1       4.181  -0.989  -4.191  0.00  0.00    -0.036 S 
ATOM     11  C   UNL     1       2.665  -1.645  -1.858  0.00  0.00    +0.187 C 
ATOM     12  O   UNL     1       2.981  -1.290  -0.496  0.00  0.00    -0.364 OA
BRANCH  11  13
ATOM     13  C   UNL     1       3.134  -3.101  -2.070  0.00  0.00    +0.149 C 
BRANCH  13  14
ATOM     14  N   UNL     1       2.482  -4.064  -1.160  0.00  0.00    -0.201 NA
ATOM     15  H   UNL     1       2.495  -3.655  -0.217  0.00  0.00    +0.154 HD
BRANCH  14  16
ATOM     16  O   UNL     1       1.067  -4.019  -1.496  0.00  0.00    -0.315 OA
ATOM     17  H   UNL     1       0.872  -4.960  -1.675  0.00  0.00    +0.236 HD
ENDBRANCH  14  16
ENDBRANCH  13  14
ENDBRANCH  11  13
ENDBRANCH   1   8
BRANCH   1  18
ATOM     18  C   UNL     1       2.279   1.855  -4.915  0.00  0.00    +0.109 A 
ATOM     19  C   UNL     1       3.406   2.673  -5.062  0.00  0.00    +0.032 A 
ATOM     20  C   UNL     1       3.992   2.830  -6.325  0.00  0.00    +0.048 A 
ATOM     21  C   UNL     1       3.428   2.200  -7.437  0.00  0.00    +0.129 A 
ATOM     22  C   UNL     1       2.276   1.417  -7.282  0.00  0.00    +0.048 A 
ATOM     23  C   UNL     1       1.693   1.245  -6.025  0.00  0.00    +0.032 A 
BRANCH  21  24
ATOM     24  O   UNL     1       3.976   2.161  -8.697  0.00  0.00    -0.456 OA
BRANCH  24  25
ATOM     25  C   UNL     1       4.767   3.170  -9.184  0.00  0.00    +0.131 A 
ATOM     26  C   UNL     1       4.528   4.526  -8.991  0.00  0.00    +0.066 A 
ATOM     27  C   UNL     1       5.342   5.427  -9.659  0.00  0.00    +0.114 A 
ATOM     28  N   UNL     1       6.342   5.068 -10.495  0.00  0.00    -0.263 NA
ATOM     29  C   UNL     1       6.537   3.746 -10.676  0.00  0.00    +0.114 A 
ATOM     30  C   UNL     1       5.784   2.770 -10.050  0.00  0.00    +0.066 A 
ENDBRANCH  24  25
ENDBRANCH  21  24
ENDBRANCH   1  18
TORSDOF 7
