REMARK  Name = 
REMARK  9 active torsions:
REMARK  status: ('A' for Active; 'I' for Inactive)
REMARK    1  A    between atoms: C_4  and  C_26
REMARK    2  A    between atoms: C_5  and  C_15
REMARK    3  A    between atoms: C_9  and  C_11
REMARK    4  A    between atoms: C_11  and  C_13
REMARK    5  A    between atoms: C_11  and  O_14
REMARK    6  A    between atoms: C_15  and  O_17
REMARK    7  A    between atoms: O_17  and  C_18
REMARK    8  A    between atoms: C_18  and  C_19
REMARK    9  A    between atoms: C_20  and  C_21
REMARK                            x       y       z     vdW  Elec       q    Type
REMARK                         _______ _______ _______ _____ _____    ______ ____
ROOT
ATOM      1  C   UNL     1       2.211  -0.079  -0.052  0.00  0.00    +0.158 C 
ATOM      2  C   UNL     1       2.958   1.012  -0.838  0.00  0.00    +0.135 C 
ATOM      3  C   UNL     1       3.776   1.187   0.446  0.00  0.00    +0.229 C 
ATOM      4  O   UNL     1       4.733   1.863   0.750  0.00  0.00    -0.275 OA
ATOM      5  N   UNL     1       3.166   0.115   1.054  0.00  0.00    -0.251 N 
ATOM      6  C   UNL     1       3.924  -1.026   1.364  0.00  0.00    +0.134 C 
ATOM      7  C   UNL     1       3.732  -2.091   0.544  0.00  0.00    +0.044 C 
ATOM      8  S   UNL     1       2.458  -1.766  -0.650  0.00  0.00    -0.101 S 
ENDROOT
BRANCH   7   9
ATOM      9  C   UNL     1       4.381  -3.464   0.457  0.00  0.00    +0.157 C 
ATOM     10  O   UNL     1       5.717  -3.487   0.965  0.00  0.00    -0.371 OA
ATOM     11  C   UNL     1       6.448  -4.549   0.346  0.00  0.00    +0.161 C 
ATOM     12  C   UNL     1       5.621  -5.059  -0.811  0.00  0.00    +0.031 C 
ATOM     13  C   UNL     1       4.554  -4.007  -0.965  0.00  0.00    +0.039 C 
ENDBRANCH   7   9
BRANCH   2  14
ATOM     14  C   UNL     1       2.112   2.180  -1.309  0.00  0.00    +0.126 C 
ATOM     15  C   UNL     1       2.978   3.378  -1.676  0.00  0.00    +0.038 C 
BRANCH  14  16
ATOM     16  O   UNL     1       1.396   1.746  -2.467  0.00  0.00    -0.391 OA
ATOM     17  H   UNL     1       1.061   2.530  -2.938  0.00  0.00    +0.210 HD
ENDBRANCH  14  16
ENDBRANCH   2  14
BRANCH   6  18
ATOM     18  C   UNL     1       4.799  -0.883   2.586  0.00  0.00    +0.355 C 
ATOM     19  O   UNL     1       4.830   0.135   3.272  0.00  0.00    -0.243 OA
BRANCH  18  20
ATOM     20  O   UNL     1       5.454  -2.016   2.909  0.00  0.00    -0.452 OA
BRANCH  20  21
ATOM     21  C   UNL     1       6.279  -1.988   4.085  0.00  0.00    +0.310 C 
BRANCH  21  22
ATOM     22  C   UNL     1       7.641  -1.440   3.797  0.00  0.00    +0.187 A 
ATOM     23  O   UNL     1       8.382  -2.041   2.793  0.00  0.00    -0.392 OA
ATOM     24  C   UNL     1       9.562  -1.320   2.845  0.00  0.00    +0.521 A 
ATOM     25  O   UNL     1      10.517  -1.545   2.111  0.00  0.00    -0.202 OA
ATOM     26  O   UNL     1       9.580  -0.336   3.821  0.00  0.00    -0.396 OA
ATOM     27  C   UNL     1       8.325  -0.481   4.386  0.00  0.00    +0.151 A 
ATOM     28  C   UNL     1       7.985   0.411   5.520  0.00  0.00    +0.090 C 
ENDBRANCH  21  22
ENDBRANCH  20  21
ENDBRANCH  18  20
ENDBRANCH   6  18
TORSDOF 7
