REMARK  Name = 
REMARK  7 active torsions:
REMARK  status: ('A' for Active; 'I' for Inactive)
REMARK    1  A    between atoms: C_1  and  C_2
REMARK    2  A    between atoms: C_2  and  C_3
REMARK    3  A    between atoms: C_2  and  C_4
REMARK    4  A    between atoms: C_4  and  C_6
REMARK    5  A    between atoms: C_14  and  C_15
REMARK    6  A    between atoms: C_15  and  C_16
REMARK    7  A    between atoms: C_15  and  C_17
REMARK                            x       y       z     vdW  Elec       q    Type
REMARK                         _______ _______ _______ _____ _____    ______ ____
ROOT
ATOM      1  C   UNL     1       4.334  -1.089   1.326  0.00  0.00    +0.066 A 
ATOM      2  C   UNL     1       5.016  -2.346   1.265  0.00  0.00    +0.077 A 
ATOM      3  N   UNL     1       6.342  -2.203   1.353  0.00  0.00    -0.170 NA
ATOM      4  N   UNL     1       6.557  -0.876   1.464  0.00  0.00    -0.239 N 
ATOM      5  C   UNL     1       7.804  -0.248   1.522  0.00  0.00    +0.113 A 
ATOM      6  C   UNL     1       7.888   1.086   1.634  0.00  0.00    +0.020 A 
ATOM      7  C   UNL     1       6.662   1.849   1.716  0.00  0.00    +0.004 A 
ATOM      8  C   UNL     1       5.453   1.258   1.655  0.00  0.00    +0.028 A 
ATOM      9  C   UNL     1       5.351  -0.162   1.505  0.00  0.00    +0.078 A 
ENDROOT
BRANCH   2  10
ATOM     10  C   UNL     1       4.417  -3.729   1.131  0.00  0.00    +0.034 C 
ATOM     11  C   UNL     1       5.181  -4.790   1.933  0.00  0.00    +0.014 C 
ATOM     12  C   UNL     1       4.317  -4.158  -0.334  0.00  0.00    +0.014 C 
ENDBRANCH   2  10
BRANCH   1  13
ATOM     13  C   UNL     1       2.889  -0.889   1.187  0.00  0.00    +0.170 C 
ATOM     14  O   UNL     1       2.230  -1.685   0.515  0.00  0.00    -0.292 OA
BRANCH  13  16
ATOM     15  C   UNL     1       0.729   0.395   1.435  0.00  0.00    +0.015 C 
ATOM     16  C   UNL     1       2.185   0.272   1.894  0.00  0.00    +0.054 C 
ATOM     17  C   UNL     1       2.244   0.078   3.407  0.00  0.00    +0.015 C 
ENDBRANCH  13  16
ENDBRANCH   1  13
TORSDOF 3
