REMARK  Name = 
REMARK  9 active torsions:
REMARK  status: ('A' for Active; 'I' for Inactive)
REMARK    1  A    between atoms: C_1  and  C_2
REMARK    2  A    between atoms: C_2  and  C_3
REMARK    3  A    between atoms: C_3  and  O_4
REMARK    4  A    between atoms: C_16  and  C_17
REMARK    5  A    between atoms: C_17  and  C_18
REMARK    6  A    between atoms: C_18  and  SI_19
REMARK    7  A    between atoms: SI_19  and  C_20
REMARK    8  A    between atoms: SI_19  and  C_21
REMARK    9  A    between atoms: SI_19  and  C_22
REMARK                            x       y       z     vdW  Elec       q    Type
REMARK                         _______ _______ _______ _____ _____    ______ ____
ROOT
ATOM      1  C   UNL     1       4.525   1.919  -1.885  0.00  0.00    +0.000 C 
ATOM      2  C   UNL     1       5.681   2.668  -2.776  0.00  0.00    +0.000 A 
ATOM      3  C   UNL     1       5.662   3.476  -4.105  0.00  0.00    +0.000 A 
ATOM      4  C   UNL     1       6.219   4.739  -4.160  0.00  0.00    +0.000 A 
ATOM      5  C   UNL     1       6.612   5.919  -5.098  0.00  0.00    +0.000 A 
ATOM      6  C   UNL     1       6.634   7.072  -4.297  0.00  0.00    +0.000 A 
ATOM      7  C   UNL     1       6.939   8.356  -4.772  0.00  0.00    +0.000 A 
ATOM      8  C   UNL     1       7.510   8.433  -6.052  0.00  0.00    +0.000 A 
ATOM      9  C   UNL     1       7.693   7.206  -6.768  0.00  0.00    +0.000 A 
ATOM     10  C   UNL     1       8.433   7.348  -7.964  0.00  0.00    +0.000 A 
ATOM     11  C   UNL     1       8.891   8.585  -8.482  0.00  0.00    +0.000 A 
ATOM     12  C   UNL     1       8.615   9.756  -7.807  0.00  0.00    +0.000 A 
ATOM     13  C   UNL     1       7.946   9.676  -6.601  0.00  0.00    +0.000 A 
ATOM     14  C   UNL     1       6.510   6.690  -2.868  0.00  0.00    +0.000 C 
ATOM     15  N   UNL     1       7.202   5.966  -6.314  0.00  0.00    +0.000 NA
ATOM     16  N   UNL     1       6.497   5.265  -2.908  0.00  0.00    +0.000 N 
ATOM     17  C   UNL     1       6.843   4.544  -1.837  0.00  0.00    +0.000 A 
ATOM     18  O   UNL     1       7.217   5.058  -0.781  0.00  0.00    +0.000 OA
ATOM     19  C   UNL     1       6.722   3.050  -1.969  0.00  0.00    +0.000 A 
ATOM     20  C   UNL     1       7.151   2.373  -0.702  0.00  0.00    +0.000 C 
ATOM     21  O   UNL     1       6.010   1.986   0.032  0.00  0.00    +0.000 OA
ATOM     22  C   UNL     1       5.371   1.134  -0.806  0.00  0.00    +0.000 C 
ATOM     23  O   UNL     1       5.659  -0.055  -0.806  0.00  0.00    +0.000 OA
ENDROOT
BRANCH   1  25
ATOM     24  C   UNL     1       3.326  -0.581  -2.000  0.00  0.00    +0.000 C 
ATOM     25  C   UNL     1       3.262   0.960  -2.076  0.00  0.00    +0.000 C 
ENDBRANCH   1  25
BRANCH   1  26
ATOM     26  O   UNL     1       3.879   3.118  -1.352  0.00  0.00    +0.000 OA
ATOM     27  H   UNL     1       3.304   2.875  -0.609  0.00  0.00    +0.000 HD
ENDBRANCH   1  26
BRANCH   7  28
ATOM     28  C   UNL     1       6.604   9.570  -3.917  0.00  0.00    +0.000 C 
BRANCH  28  29
ATOM     29  C   UNL     1       7.419   9.733  -2.632  0.00  0.00    +0.000 C 
BRANCH  29  30
ATOM     30 SI   UNL     1       7.004  11.291  -1.595  0.00  0.00    +0.000 Si
ATOM     31  C   UNL     1       7.979  11.130  -0.001  0.00  0.00    +0.000 C 
ATOM     32  C   UNL     1       5.165  11.294  -1.229  0.00  0.00    +0.000 C 
ATOM     33  C   UNL     1       7.496  12.828  -2.528  0.00  0.00    +0.000 C 
ENDBRANCH  29  30
ENDBRANCH  28  29
ENDBRANCH   7  28
TORSDOF 5
