REMARK  Name = 
REMARK  6 active torsions:
REMARK  status: ('A' for Active; 'I' for Inactive)
REMARK    1  A    between atoms: C_1  and  C_2
REMARK    2  A    between atoms: C_2  and  C_3
REMARK    3  A    between atoms: C_3  and  C_4
REMARK    4  A    between atoms: C_3  and  S_5
REMARK    5  A    between atoms: S_5  and  S_6
REMARK    6  A    between atoms: S_6  and  C_7
REMARK                            x       y       z     vdW  Elec       q    Type
REMARK                         _______ _______ _______ _____ _____    ______ ____
ROOT
ATOM      1  S   UNL     1       5.462   1.544   0.947  0.00  0.00    -0.019 S 
ENDROOT
BRANCH   1   2
ATOM      2  C   UNL     1       4.767   2.431   2.251  0.00  0.00    +0.177 A 
ATOM      3  N   UNL     1       5.444   2.618   3.419  0.00  0.00    -0.339 N 
ATOM      4  H   UNL     1       6.382   2.294   3.606  0.00  0.00    +0.167 HD
ATOM      5  C   UNL     1       4.594   3.259   4.279  0.00  0.00    +0.104 A 
ATOM      6  C   UNL     1       3.435   3.446   3.562  0.00  0.00    +0.131 A 
ATOM      7  N   UNL     1       3.555   2.932   2.298  0.00  0.00    -0.230 NA
ENDBRANCH   1   2
BRANCH   1   8
ATOM      8  S   UNL     1       4.967  -0.355   1.577  0.00  0.00    -0.082 S 
BRANCH   8   9
ATOM      9  C   UNL     1       3.122  -0.388   1.490  0.00  0.00    +0.055 C 
ATOM     10  C   UNL     1       2.672  -1.762   1.991  0.00  0.00    +0.020 C 
BRANCH   9  12
ATOM     11  C   UNL     1       1.077   0.014   0.022  0.00  0.00    +0.005 C 
ATOM     12  C   UNL     1       2.597  -0.075   0.081  0.00  0.00    +0.011 C 
ENDBRANCH   9  12
ENDBRANCH   8   9
ENDBRANCH   1   8
TORSDOF 4
