REMARK  Name = 
REMARK  13 active torsions:
REMARK  status: ('A' for Active; 'I' for Inactive)
REMARK    1  A    between atoms: C_14  and  O_15
REMARK    2  A    between atoms: O_15  and  C_16
REMARK    3  A    between atoms: C_17  and  O_18
REMARK    4  A    between atoms: C_27  and  O_29
REMARK    5  A    between atoms: C_35  and  C_36
REMARK    6  A    between atoms: C_37  and  O_38
REMARK    7  A    between atoms: O_38  and  C_39
REMARK    8  A    between atoms: C_40  and  O_41
REMARK    9  A    between atoms: N_45  and  C_46
REMARK   10  A    between atoms: C_53  and  C_54
REMARK   11  A    between atoms: C_55  and  O_56
REMARK   12  A    between atoms: O_56  and  C_57
REMARK   13  A    between atoms: C_57  and  C_58
REMARK                            x       y       z     vdW  Elec       q    Type
REMARK                         _______ _______ _______ _____ _____    ______ ____
ROOT
ATOM      1  C   UNL     1      -0.000  -0.000  -0.000  0.00  0.00    +0.099 C 
ATOM      2  C   UNL     1      -0.000  -0.000   0.000  0.00  0.00    +0.109 C 
ATOM      3  N   UNL     1      -0.000  -0.000  -0.000  0.00  0.00    -0.290 NA
ATOM      4  C   UNL     1      -0.000  -0.000   0.000  0.00  0.00    +0.106 C 
ATOM      5  C   UNL     1      -0.000  -0.000   0.000  0.00  0.00    +0.105 C 
ATOM      6  C   UNL     1      -0.000  -0.000   0.000  0.00  0.00    +0.058 C 
ATOM      7  C   UNL     1      -0.000  -0.000   0.000  0.00  0.00    -0.037 A 
ATOM      8  C   UNL     1      -0.000  -0.000  -0.000  0.00  0.00    +0.011 A 
ATOM      9  C   UNL     1      -0.000  -0.000   0.000  0.00  0.00    -0.005 A 
ATOM     10  C   UNL     1      -0.000  -0.000   0.000  0.00  0.00    +0.164 A 
ATOM     11  C   UNL     1      -0.000  -0.000  -0.000  0.00  0.00    +0.164 A 
ATOM     12  C   UNL     1      -0.000  -0.000  -0.000  0.00  0.00    +0.047 C 
ATOM     13  C   UNL     1      -0.000  -0.000  -0.000  0.00  0.00    +0.204 C 
ATOM     14  C   UNL     1      -0.000  -0.000   0.000  0.00  0.00    +0.020 A 
ATOM     15  N   UNL     1      -0.000  -0.000  -0.000  0.00  0.00    -0.260 NA
ATOM     16  C   UNL     1      -0.000  -0.000  -0.000  0.00  0.00    +0.131 C 
ATOM     17  C   UNL     1      -0.000  -0.000   0.000  0.00  0.00    +0.026 A 
ATOM     18  C   UNL     1      -0.000  -0.000  -0.000  0.00  0.00    +0.018 A 
ATOM     19  C   UNL     1      -0.000  -0.000  -0.000  0.00  0.00    +0.143 A 
ATOM     20  C   UNL     1      -0.000  -0.000  -0.000  0.00  0.00    +0.038 A 
ATOM     21  C   UNL     1      -0.000  -0.000  -0.000  0.00  0.00    +0.051 C 
ATOM     22  C   UNL     1      -0.000  -0.000  -0.000  0.00  0.00    +0.173 A 
ATOM     23  O   UNL     1      -0.000  -0.000  -0.000  0.00  0.00    -0.452 OA
ATOM     24  C   UNL     1      -0.000  -0.000  -0.000  0.00  0.00    +0.466 C 
ATOM     25  O   UNL     1      -0.000  -0.000  -0.000  0.00  0.00    -0.452 OA
ATOM     26  C   UNL     1      -0.000  -0.000  -0.000  0.00  0.00    +0.172 A 
ATOM     27  C   UNL     1      -0.000  -0.000   0.000  0.00  0.00    +0.256 C 
ATOM     28  O   UNL     1      -0.000  -0.000   0.000  0.00  0.00    -0.461 OA
ATOM     29  C   UNL     1      -0.000  -0.000   0.000  0.00  0.00    +0.333 C 
ATOM     30  O   UNL     1      -0.000  -0.000   0.000  0.00  0.00    -0.248 OA
ATOM     31  C   UNL     1      -0.000  -0.000  -0.000  0.00  0.00    +0.152 C 
ATOM     32  C   UNL     1      -0.000  -0.000   0.000  0.00  0.00    -0.009 A 
ATOM     33  C   UNL     1      -0.000  -0.000   0.000  0.00  0.00    +0.055 A 
ATOM     34  C   UNL     1      -0.000  -0.000   0.000  0.00  0.00    +0.162 A 
ATOM     35  C   UNL     1      -0.000  -0.000  -0.000  0.00  0.00    +0.159 A 
ATOM     36  C   UNL     1      -0.000  -0.000   0.000  0.00  0.00    +0.053 A 
ATOM     37  C   UNL     1      -0.000  -0.000   0.000  0.00  0.00    -0.037 A 
ATOM     38  C   UNL     1      -0.000  -0.000  -0.000  0.00  0.00    +0.051 C 
ATOM     39  C   UNL     1      -0.000  -0.000   0.000  0.00  0.00    +0.087 C 
ATOM     40  N   UNL     1      -0.000  -0.000   0.000  0.00  0.00    -0.297 NA
ATOM     41  H   UNL     1       0.000   0.000   0.000  0.00  0.00    +0.123 HD
ATOM     42  C   UNL     1      -0.000  -0.000  -0.000  0.00  0.00    +0.108 C 
ATOM     43  S   UNL     1      -0.000  -0.000   0.000  0.00  0.00    -0.148 S 
ATOM     44  C   UNL     1      -0.000  -0.000   0.000  0.00  0.00    +0.099 C 
ENDROOT
BRANCH  11  45
ATOM     45  O   UNL     1      -0.000  -0.000   0.000  0.00  0.00    -0.503 OA
ATOM     46  H   UNL     1       0.000   0.000   0.000  0.00  0.00    +0.292 HD
ENDBRANCH  11  45
BRANCH  10  47
ATOM     47  O   UNL     1      -0.000  -0.000   0.000  0.00  0.00    -0.491 OA
ATOM     48  C   UNL     1      -0.000  -0.000  -0.000  0.00  0.00    +0.277 C 
ENDBRANCH  10  47
BRANCH  13  49
ATOM     49  O   UNL     1      -0.000  -0.000  -0.000  0.00  0.00    -0.376 OA
ATOM     50  H   UNL     1       0.000   0.000   0.000  0.00  0.00    +0.212 HD
ENDBRANCH  13  49
BRANCH  35  51
ATOM     51  O   UNL     1      -0.000  -0.000  -0.000  0.00  0.00    -0.503 OA
ATOM     52  H   UNL     1       0.000   0.000   0.000  0.00  0.00    +0.292 HD
ENDBRANCH  35  51
BRANCH  34  53
ATOM     53  O   UNL     1      -0.000  -0.000   0.000  0.00  0.00    -0.491 OA
ATOM     54  C   UNL     1      -0.000  -0.000  -0.000  0.00  0.00    +0.277 C 
ENDBRANCH  34  53
BRANCH  19  55
ATOM     55  O   UNL     1      -0.000  -0.000   0.000  0.00  0.00    -0.425 OA
BRANCH  55  56
ATOM     56  C   UNL     1      -0.000  -0.000  -0.000  0.00  0.00    +0.309 C 
ATOM     57  O   UNL     1      -0.000  -0.000   0.000  0.00  0.00    -0.251 OA
ATOM     58  C   UNL     1      -0.000  -0.000  -0.000  0.00  0.00    +0.136 C 
ENDBRANCH  55  56
ENDBRANCH  19  55
TORSDOF 7
