REMARK  Name = 
REMARK  13 active torsions:
REMARK  status: ('A' for Active; 'I' for Inactive)
REMARK    1  A    between atoms: C_2  and  C_3
REMARK    2  A    between atoms: C_2  and  N_8
REMARK    3  A    between atoms: C_2  and  C_23
REMARK    4  A    between atoms: C_3  and  S_4
REMARK    5  A    between atoms: S_4  and  C_5
REMARK    6  A    between atoms: C_15  and  N_19
REMARK    7  A    between atoms: C_20  and  C_21
REMARK    8  A    between atoms: C_20  and  O_22
REMARK    9  A    between atoms: C_25  and  O_26
REMARK   10  A    between atoms: O_26  and  C_27
REMARK   11  A    between atoms: C_27  and  C_28
REMARK   12  A    between atoms: C_29  and  O_30
REMARK   13  A    between atoms: O_30  and  C_31
REMARK                            x       y       z     vdW  Elec       q    Type
REMARK                         _______ _______ _______ _____ _____    ______ ____
ROOT
ATOM      1  C   UNL     1       2.199  -0.092  -0.260  0.00  0.00    +0.136 C 
ENDROOT
BRANCH   1   2
ATOM      2  N   UNL     1       2.788  -1.127  -1.133  0.00  0.00    -0.225 N 
ATOM      3  C   UNL     1       2.493  -1.412  -2.452  0.00  0.00    +0.256 C 
ATOM      4  O   UNL     1       1.771  -0.772  -3.201  0.00  0.00    -0.269 OA
ATOM      5  C   UNL     1       3.110  -2.729  -2.771  0.00  0.00    +0.075 A 
ATOM      6  C   UNL     1       3.252  -3.486  -3.939  0.00  0.00    +0.080 A 
ATOM      7  C   UNL     1       3.903  -4.731  -3.785  0.00  0.00    +0.028 A 
ATOM      8  C   UNL     1       4.310  -5.228  -2.531  0.00  0.00    +0.003 A 
ATOM      9  C   UNL     1       4.173  -4.450  -1.397  0.00  0.00    +0.014 A 
ATOM     10  C   UNL     1       3.605  -3.206  -1.567  0.00  0.00    +0.051 A 
ATOM     11  C   UNL     1       3.440  -2.184  -0.554  0.00  0.00    +0.254 C 
ATOM     12  O   UNL     1       3.828  -2.304   0.593  0.00  0.00    -0.270 OA
BRANCH   6  13
ATOM     13  N   UNL     1       2.932  -2.950  -5.198  0.00  0.00    -0.217 NA
ATOM     14  C   UNL     1       2.585  -3.609  -6.252  0.00  0.00    +0.184 C 
ATOM     15  C   UNL     1       2.365  -5.060  -6.544  0.00  0.00    +0.109 C 
BRANCH  14  16
ATOM     16  O   UNL     1       2.410  -2.870  -7.365  0.00  0.00    -0.496 OA
ATOM     17  H   UNL     1       2.575  -1.944  -7.117  0.00  0.00    +0.293 HD
ENDBRANCH  14  16
ENDBRANCH   6  13
ENDBRANCH   1   2
BRANCH   1  18
ATOM     18  C   UNL     1       2.677   1.346  -0.499  0.00  0.00    -0.021 A 
ATOM     19  C   UNL     1       2.308   2.068  -1.638  0.00  0.00    +0.009 A 
ATOM     20  C   UNL     1       2.567   3.441  -1.736  0.00  0.00    +0.050 A 
ATOM     21  C   UNL     1       3.198   4.128  -0.694  0.00  0.00    +0.162 A 
ATOM     22  C   UNL     1       3.649   3.412   0.431  0.00  0.00    +0.162 A 
ATOM     23  C   UNL     1       3.390   2.033   0.517  0.00  0.00    +0.055 A 
BRANCH  21  24
ATOM     24  O   UNL     1       3.406   5.486  -0.677  0.00  0.00    -0.491 OA
ATOM     25  C   UNL     1       2.811   6.255  -1.714  0.00  0.00    +0.277 C 
ENDBRANCH  21  24
BRANCH  22  26
ATOM     26  O   UNL     1       4.289   4.160   1.392  0.00  0.00    -0.489 OA
BRANCH  26  27
ATOM     27  C   UNL     1       4.838   3.501   2.529  0.00  0.00    +0.226 C 
ATOM     28  C   UNL     1       5.526   4.544   3.400  0.00  0.00    +0.048 C 
ENDBRANCH  26  27
ENDBRANCH  22  26
ENDBRANCH   1  18
BRANCH   1  29
ATOM     29  C   UNL     1       0.663  -0.142  -0.166  0.00  0.00    +0.193 C 
BRANCH  29  30
ATOM     30  S   UNL     1       0.114  -1.684   0.547  0.00  0.00    -0.032 S 
ATOM     31  O   UNL     1       0.581  -1.732   1.920  0.00  0.00    -0.175 OA
ATOM     32  O   UNL     1       0.411  -2.757  -0.380  0.00  0.00    -0.175 OA
ATOM     33  C   UNL     1      -1.653  -1.527   0.611  0.00  0.00    +0.194 C 
ENDBRANCH  29  30
ENDBRANCH   1  29
TORSDOF 9
