REMARK  Name = 
REMARK  4 active torsions:
REMARK  status: ('A' for Active; 'I' for Inactive)
REMARK    1  A    between atoms: N_2  and  C_3
REMARK    2  A    between atoms: C_6  and  S_9
REMARK    3  A    between atoms: S_9  and  N_12
REMARK    4  A    between atoms: N_12  and  C_13
REMARK                            x       y       z     vdW  Elec       q    Type
REMARK                         _______ _______ _______ _____ _____    ______ ____
ROOT
ATOM      1 AG   UNL     1       0.814   0.442  -2.236  0.00  0.00    +0.000 Ag
ENDROOT
TORSDOF 0
REMARK  Name = 
REMARK  4 active torsions:
REMARK  status: ('A' for Active; 'I' for Inactive)
REMARK    1  A    between atoms: N_2  and  C_3
REMARK    2  A    between atoms: C_6  and  S_9
REMARK    3  A    between atoms: S_9  and  N_12
REMARK    4  A    between atoms: N_12  and  C_13
REMARK                            x       y       z     vdW  Elec       q    Type
REMARK                         _______ _______ _______ _____ _____    ______ ____
ROOT
ATOM      1  S   UNL     1       7.032   0.015  -0.689  0.00  0.00    +0.000 S 
ATOM      2  O   UNL     1       7.596   1.433  -0.863  0.00  0.00    +0.000 OA
ATOM      3  O   UNL     1       7.375  -0.628  -2.042  0.00  0.00    +0.000 OA
ENDROOT
BRANCH   1   7
ATOM      4  C   UNL     1       2.536  -0.040   0.278  0.00  0.00    +0.000 A 
ATOM      5  C   UNL     1       3.242  -1.240   0.105  0.00  0.00    +0.000 A 
ATOM      6  C   UNL     1       4.607  -1.216  -0.193  0.00  0.00    +0.000 A 
ATOM      7  C   UNL     1       5.279   0.004  -0.318  0.00  0.00    +0.000 A 
ATOM      8  C   UNL     1       4.576   1.206  -0.151  0.00  0.00    +0.000 A 
ATOM      9  C   UNL     1       3.210   1.183   0.146  0.00  0.00    +0.000 A 
BRANCH   4  10
ATOM     10  N   UNL     1       1.153  -0.065   0.585  0.00  0.00    +0.000 N 
ATOM     11  H   UNL     1       0.652  -0.961   0.681  0.00  0.00    +0.000 HD
ATOM     12  H   UNL     1       0.626   0.811   0.713  0.00  0.00    +0.000 HD
ENDBRANCH   4  10
ENDBRANCH   1   7
BRANCH   1  13
ATOM     13  N   UNL     1       8.110  -0.735   0.471  0.00  0.00    -1.000 NA
BRANCH  13  14
ATOM     14  C   UNL     1       8.373  -2.121   0.439  0.00  0.00    +0.000 A 
ATOM     15  N   UNL     1       7.533  -2.994   1.056  0.00  0.00    +0.000 NA
ATOM     16  C   UNL     1       7.790  -4.330   1.050  0.00  0.00    +0.000 A 
ATOM     17  C   UNL     1       8.924  -4.817   0.402  0.00  0.00    +0.000 A 
ATOM     18  C   UNL     1       9.772  -3.906  -0.227  0.00  0.00    +0.000 A 
ATOM     19  N   UNL     1       9.484  -2.579  -0.193  0.00  0.00    +0.000 NA
ENDBRANCH  13  14
ENDBRANCH   1  13
TORSDOF 4
