REMARK  Name = 
REMARK  8 active torsions:
REMARK  status: ('A' for Active; 'I' for Inactive)
REMARK    1  A    between atoms: C_1  and  N_2
REMARK    2  A    between atoms: C_3  and  C_5
REMARK    3  A    between atoms: C_8  and  N_16
REMARK    4  A    between atoms: C_10  and  O_12
REMARK    5  A    between atoms: C_13  and  O_15
REMARK    6  A    between atoms: C_20  and  N_21
REMARK    7  A    between atoms: N_21  and  C_22
REMARK    8  A    between atoms: C_22  and  C_23
REMARK                            x       y       z     vdW  Elec       q    Type
REMARK                         _______ _______ _______ _____ _____    ______ ____
ROOT
ATOM      1  N   UNL     1       7.207  -0.754  -3.020  0.00  0.00    -0.285 N 
ATOM      2  C   UNL     1       8.066  -1.812  -2.870  0.00  0.00    +0.167 A 
ATOM      3  C   UNL     1       8.330  -2.241  -4.162  0.00  0.00    +0.147 A 
ATOM      4  C   UNL     1       9.241  -3.305  -4.323  0.00  0.00    +0.150 A 
ATOM      5  N   UNL     1       9.748  -3.865  -3.193  0.00  0.00    -0.219 NA
ATOM      6  C   UNL     1       9.395  -3.349  -1.993  0.00  0.00    +0.225 A 
ATOM      7  N   UNL     1       7.622  -1.493  -5.079  0.00  0.00    -0.231 NA
ATOM      8  N   UNL     1       8.575  -2.305  -1.726  0.00  0.00    -0.216 NA
ATOM      9  C   UNL     1       6.947  -0.622  -4.358  0.00  0.00    +0.203 A 
ENDROOT
BRANCH   1  13
ATOM     10  C   UNL     1       5.828   2.171  -1.552  0.00  0.00    +0.237 C 
ATOM     11  C   UNL     1       7.203   2.191  -0.892  0.00  0.00    +0.185 C 
ATOM     12  C   UNL     1       7.799   0.814  -1.177  0.00  0.00    +0.196 C 
ATOM     13  C   UNL     1       6.696   0.072  -1.940  0.00  0.00    +0.254 C 
ATOM     14  O   UNL     1       5.823   1.077  -2.472  0.00  0.00    -0.339 OA
BRANCH  10  18
ATOM     15  C   UNL     1       5.179   5.921  -1.732  0.00  0.00    +0.128 C 
ATOM     16  N   UNL     1       5.447   4.574  -1.299  0.00  0.00    -0.316 N 
ATOM     17  H   UNL     1       5.671   4.403  -0.322  0.00  0.00    +0.148 HD
ATOM     18  C   UNL     1       5.534   3.531  -2.203  0.00  0.00    +0.244 C 
ATOM     19  O   UNL     1       5.377   3.679  -3.411  0.00  0.00    -0.273 OA
ENDBRANCH  10  18
BRANCH  11  20
ATOM     20  O   UNL     1       7.093   2.474   0.505  0.00  0.00    -0.386 OA
ATOM     21  H   UNL     1       7.739   1.880   0.945  0.00  0.00    +0.210 HD
ENDBRANCH  11  20
BRANCH  12  22
ATOM     22  O   UNL     1       8.187   0.166   0.040  0.00  0.00    -0.385 OA
ATOM     23  H   UNL     1       8.498  -0.732  -0.208  0.00  0.00    +0.210 HD
ENDBRANCH  12  22
ENDBRANCH   1  13
BRANCH   4  24
ATOM     24  N   UNL     1       9.659  -3.707  -5.588  0.00  0.00    -0.323 N 
ATOM     25  H   UNL     1       9.075  -3.301  -6.316  0.00  0.00    +0.148 HD
BRANCH  24  26
ATOM     26  C   UNL     1      10.024  -5.093  -5.794  0.00  0.00    +0.138 C 
BRANCH  26  27
ATOM     27  C   UNL     1      11.008  -5.189  -6.942  0.00  0.00    -0.029 A 
ATOM     28  C   UNL     1      12.252  -4.542  -6.852  0.00  0.00    +0.005 A 
ATOM     29  C   UNL     1      13.196  -4.654  -7.874  0.00  0.00    +0.001 A 
ATOM     30  C   UNL     1      12.914  -5.421  -9.002  0.00  0.00    +0.014 A 
ATOM     31  C   UNL     1      11.681  -6.064  -9.106  0.00  0.00    +0.014 A 
ATOM     32  I   UNL     1      11.269  -7.222 -10.787  0.00  0.00    -0.044 I 
ATOM     33  C   UNL     1      10.727  -5.950  -8.089  0.00  0.00    +0.019 A 
ENDBRANCH  26  27
ENDBRANCH  24  26
ENDBRANCH   4  24
TORSDOF 7
