REMARK  Name = 
REMARK  20 active torsions:
REMARK  status: ('A' for Active; 'I' for Inactive)
REMARK    1  A    between atoms: C_1  and  C_2
REMARK    2  A    between atoms: C_2  and  O_3
REMARK    3  A    between atoms: O_3  and  C_4
REMARK    4  A    between atoms: C_4  and  C_6
REMARK    5  A    between atoms: C_7  and  C_8
REMARK    6  A    between atoms: C_8  and  C_10
REMARK    7  A    between atoms: C_8  and  N_18
REMARK    8  A    between atoms: C_10  and  C_11
REMARK    9  A    between atoms: C_19  and  C_21
REMARK   10  A    between atoms: C_21  and  C_23
REMARK   11  A    between atoms: C_21  and  C_40
REMARK   12  A    between atoms: C_23  and  C_24
REMARK   13  A    between atoms: C_24  and  C_26
REMARK   14  A    between atoms: C_26  and  C_28
REMARK   15  A    between atoms: C_26  and  N_31
REMARK   16  A    between atoms: C_28  and  C_29
REMARK   17  A    between atoms: C_28  and  C_30
REMARK   18  A    between atoms: C_32  and  C_34
REMARK   19  A    between atoms: C_37  and  C_38
REMARK   20  A    between atoms: C_40  and  C_41
REMARK                            x       y       z     vdW  Elec       q    Type
REMARK                         _______ _______ _______ _____ _____    ______ ____
ROOT
ATOM      1  C   UNL     1      11.707  12.329   0.759  0.00  0.00    +0.086 C 
ENDROOT
BRANCH   1   4
ATOM      2  N   UNL     1      13.383  12.640  -1.010  0.00  0.00    -0.309 N 
ATOM      3  H   UNL     1      13.495  13.549  -0.598  0.00  0.00    +0.149 HD
ATOM      4  C   UNL     1      12.656  11.718  -0.292  0.00  0.00    +0.217 C 
ATOM      5  O   UNL     1      12.666  10.514  -0.535  0.00  0.00    -0.275 OA
BRANCH   2   6
ATOM      6  C   UNL     1      14.408  12.313  -1.987  0.00  0.00    +0.097 C 
BRANCH   6   8
ATOM      7  C   UNL     1      15.742  14.362  -1.353  0.00  0.00    +0.089 C 
ATOM      8  C   UNL     1      15.117  13.617  -2.282  0.00  0.00    +0.002 C 
BRANCH   7   9
ATOM      9  C   UNL     1      16.458  15.598  -1.728  0.00  0.00    +0.332 C 
ATOM     10  O   UNL     1      16.570  16.034  -2.860  0.00  0.00    -0.246 OA
BRANCH   9  11
ATOM     11  O   UNL     1      17.035  16.079  -0.600  0.00  0.00    -0.462 OA
BRANCH  11  13
ATOM     12  C   UNL     1      19.392  16.108  -0.952  0.00  0.00    +0.048 C 
ATOM     13  C   UNL     1      18.143  16.961  -0.815  0.00  0.00    +0.229 C 
ENDBRANCH  11  13
ENDBRANCH   9  11
ENDBRANCH   7   9
ENDBRANCH   6   8
BRANCH   6  14
ATOM     14  C   UNL     1      13.764  11.692  -3.238  0.00  0.00    +0.039 C 
BRANCH  14  15
ATOM     15  C   UNL     1      14.738  11.371  -4.376  0.00  0.00    +0.078 C 
ATOM     16  C   UNL     1      15.722  10.294  -3.968  0.00  0.00    +0.216 C 
ATOM     17  O   UNL     1      16.713  10.447  -3.277  0.00  0.00    -0.276 OA
ATOM     18  N   UNL     1      15.273   9.090  -4.467  0.00  0.00    -0.315 N 
ATOM     19  H   UNL     1      15.728   8.223  -4.214  0.00  0.00    +0.149 HD
ATOM     20  C   UNL     1      14.032   9.219  -5.166  0.00  0.00    +0.105 C 
ATOM     21  C   UNL     1      14.007  10.689  -5.543  0.00  0.00    +0.031 C 
ENDBRANCH  14  15
ENDBRANCH   6  14
ENDBRANCH   2   6
ENDBRANCH   1   4
BRANCH   1  22
ATOM     22  C   UNL     1      12.174  13.707   1.275  0.00  0.00    +0.048 C 
BRANCH  22  23
ATOM     23  C   UNL     1      11.318  14.325   2.341  0.00  0.00    -0.046 A 
ATOM     24  C   UNL     1       9.994  14.693   2.066  0.00  0.00    +0.006 A 
ATOM     25  C   UNL     1       9.211  15.270   3.061  0.00  0.00    +0.038 A 
ATOM     26  C   UNL     1       9.756  15.487   4.322  0.00  0.00    +0.123 A 
ATOM     27  F   UNL     1       9.000  16.037   5.280  0.00  0.00    -0.205 F 
ATOM     28  C   UNL     1      11.073  15.143   4.604  0.00  0.00    +0.038 A 
ATOM     29  C   UNL     1      11.856  14.560   3.613  0.00  0.00    +0.006 A 
ENDBRANCH  22  23
ENDBRANCH   1  22
BRANCH   1  30
ATOM     30  C   UNL     1      11.441  11.314   1.891  0.00  0.00    +0.089 C 
BRANCH  30  31
ATOM     31  C   UNL     1      12.695  10.947   2.671  0.00  0.00    +0.154 C 
ATOM     32  O   UNL     1      13.806  11.367   2.314  0.00  0.00    -0.295 OA
BRANCH  31  33
ATOM     33  C   UNL     1      12.593   9.959   3.845  0.00  0.00    +0.142 C 
BRANCH  33  34
ATOM     34  N   UNL     1      11.369  10.148   4.616  0.00  0.00    -0.300 N 
ATOM     35  H   UNL     1      10.524   9.617   4.428  0.00  0.00    +0.150 HD
ATOM     36  C   UNL     1      11.280  11.160   5.560  0.00  0.00    +0.266 C 
ATOM     37  O   UNL     1      12.213  11.927   5.793  0.00  0.00    -0.268 OA
BRANCH  36  38
ATOM     38  C   UNL     1       9.994  11.277   6.241  0.00  0.00    +0.168 A 
ATOM     39  C   UNL     1       9.629  12.273   7.181  0.00  0.00    +0.080 A 
ATOM     40  C   UNL     1       8.333  11.979   7.514  0.00  0.00    +0.135 A 
ATOM     41  C   UNL     1       7.344  12.616   8.404  0.00  0.00    +0.089 C 
ATOM     42  O   UNL     1       7.941  10.864   6.840  0.00  0.00    -0.359 OA
ATOM     43  N   UNL     1       8.978  10.420   6.032  0.00  0.00    -0.073 NA
ENDBRANCH  36  38
ENDBRANCH  33  34
BRANCH  33  44
ATOM     44  C   UNL     1      12.820   8.483   3.434  0.00  0.00    +0.010 C 
ATOM     45  C   UNL     1      14.191   8.292   2.774  0.00  0.00    +0.009 C 
ATOM     46  C   UNL     1      11.735   7.884   2.538  0.00  0.00    +0.009 C 
ENDBRANCH  33  44
ENDBRANCH  31  33
ENDBRANCH  30  31
ENDBRANCH   1  30
TORSDOF 16
