REMARK  Name = 
REMARK  14 active torsions:
REMARK  status: ('A' for Active; 'I' for Inactive)
REMARK    1  A    between atoms: C_5  and  O_6
REMARK    2  A    between atoms: O_6  and  C_7
REMARK    3  A    between atoms: C_9  and  C_10
REMARK    4  A    between atoms: C_11  and  C_12
REMARK    5  A    between atoms: C_13  and  O_14
REMARK    6  A    between atoms: O_14  and  P_15
REMARK    7  A    between atoms: C_19  and  O_20
REMARK    8  A    between atoms: O_20  and  P_21
REMARK    9  A    between atoms: C_25  and  O_26
REMARK   10  A    between atoms: O_26  and  C_27
REMARK   11  A    between atoms: C_31  and  O_32
REMARK   12  A    between atoms: O_32  and  C_33
REMARK   13  A    between atoms: C_34  and  O_35
REMARK   14  A    between atoms: O_35  and  C_36
REMARK                            x       y       z     vdW  Elec       q    Type
REMARK                         _______ _______ _______ _____ _____    ______ ____
ROOT
ATOM      1 NA   UNL     1       2.048  -3.000  -2.278  0.00  0.00    +0.000 Na
ENDROOT
TORSDOF 0
REMARK  Name = 
REMARK  14 active torsions:
REMARK  status: ('A' for Active; 'I' for Inactive)
REMARK    1  A    between atoms: C_5  and  O_6
REMARK    2  A    between atoms: O_6  and  C_7
REMARK    3  A    between atoms: C_9  and  C_10
REMARK    4  A    between atoms: C_11  and  C_12
REMARK    5  A    between atoms: C_13  and  O_14
REMARK    6  A    between atoms: O_14  and  P_15
REMARK    7  A    between atoms: C_19  and  O_20
REMARK    8  A    between atoms: O_20  and  P_21
REMARK    9  A    between atoms: C_25  and  O_26
REMARK   10  A    between atoms: O_26  and  C_27
REMARK   11  A    between atoms: C_31  and  O_32
REMARK   12  A    between atoms: O_32  and  C_33
REMARK   13  A    between atoms: C_34  and  O_35
REMARK   14  A    between atoms: O_35  and  C_36
REMARK                            x       y       z     vdW  Elec       q    Type
REMARK                         _______ _______ _______ _____ _____    ______ ____
ROOT
ATOM      1 NA   UNL     1       6.105   2.941   1.689  0.00  0.00    +0.000 Na
ENDROOT
TORSDOF 0
REMARK  Name = 
REMARK  14 active torsions:
REMARK  status: ('A' for Active; 'I' for Inactive)
REMARK    1  A    between atoms: C_5  and  O_6
REMARK    2  A    between atoms: O_6  and  C_7
REMARK    3  A    between atoms: C_9  and  C_10
REMARK    4  A    between atoms: C_11  and  C_12
REMARK    5  A    between atoms: C_13  and  O_14
REMARK    6  A    between atoms: O_14  and  P_15
REMARK    7  A    between atoms: C_19  and  O_20
REMARK    8  A    between atoms: O_20  and  P_21
REMARK    9  A    between atoms: C_25  and  O_26
REMARK   10  A    between atoms: O_26  and  C_27
REMARK   11  A    between atoms: C_31  and  O_32
REMARK   12  A    between atoms: O_32  and  C_33
REMARK   13  A    between atoms: C_34  and  O_35
REMARK   14  A    between atoms: O_35  and  C_36
REMARK                            x       y       z     vdW  Elec       q    Type
REMARK                         _______ _______ _______ _____ _____    ______ ____
ROOT
ATOM      1 NA   UNL     1      -0.374   2.718  -3.904  0.00  0.00    +0.000 Na
ENDROOT
TORSDOF 0
REMARK  Name = 
REMARK  14 active torsions:
REMARK  status: ('A' for Active; 'I' for Inactive)
REMARK    1  A    between atoms: C_5  and  O_6
REMARK    2  A    between atoms: O_6  and  C_7
REMARK    3  A    between atoms: C_9  and  C_10
REMARK    4  A    between atoms: C_11  and  C_12
REMARK    5  A    between atoms: C_13  and  O_14
REMARK    6  A    between atoms: O_14  and  P_15
REMARK    7  A    between atoms: C_19  and  O_20
REMARK    8  A    between atoms: O_20  and  P_21
REMARK    9  A    between atoms: C_25  and  O_26
REMARK   10  A    between atoms: O_26  and  C_27
REMARK   11  A    between atoms: C_31  and  O_32
REMARK   12  A    between atoms: O_32  and  C_33
REMARK   13  A    between atoms: C_34  and  O_35
REMARK   14  A    between atoms: O_35  and  C_36
REMARK                            x       y       z     vdW  Elec       q    Type
REMARK                         _______ _______ _______ _____ _____    ______ ____
ROOT
ATOM      1 NA   UNL     1      -1.699   2.124   3.622  0.00  0.00    +0.000 Na
ENDROOT
TORSDOF 0
REMARK  Name = 
REMARK  14 active torsions:
REMARK  status: ('A' for Active; 'I' for Inactive)
REMARK    1  A    between atoms: C_5  and  O_6
REMARK    2  A    between atoms: O_6  and  C_7
REMARK    3  A    between atoms: C_9  and  C_10
REMARK    4  A    between atoms: C_11  and  C_12
REMARK    5  A    between atoms: C_13  and  O_14
REMARK    6  A    between atoms: O_14  and  P_15
REMARK    7  A    between atoms: C_19  and  O_20
REMARK    8  A    between atoms: O_20  and  P_21
REMARK    9  A    between atoms: C_25  and  O_26
REMARK   10  A    between atoms: O_26  and  C_27
REMARK   11  A    between atoms: C_31  and  O_32
REMARK   12  A    between atoms: O_32  and  C_33
REMARK   13  A    between atoms: C_34  and  O_35
REMARK   14  A    between atoms: O_35  and  C_36
REMARK                            x       y       z     vdW  Elec       q    Type
REMARK                         _______ _______ _______ _____ _____    ______ ____
ROOT
ATOM      1  C   UNL     1       5.001   5.317  -2.898  0.00  0.00    +0.000 A 
ATOM      2  C   UNL     1       4.509   6.061  -3.992  0.00  0.00    +0.000 A 
ATOM      3  C   UNL     1       5.285   6.291  -5.127  0.00  0.00    +0.000 A 
ATOM      4  C   UNL     1       6.549   5.718  -5.226  0.00  0.00    +0.000 A 
ATOM      5  C   UNL     1       7.016   4.900  -4.174  0.00  0.00    +0.000 A 
ATOM      6  C   UNL     1       6.324   4.762  -2.941  0.00  0.00    +0.000 A 
ENDROOT
BRANCH   1   8
ATOM      7  C   UNL     1       3.098   4.390  -1.407  0.00  0.00    +0.000 C 
ATOM      8  C   UNL     1       4.011   5.297  -1.798  0.00  0.00    +0.000 C 
BRANCH   7  13
ATOM      9  C   UNL     1       3.769   1.007  -2.861  0.00  0.00    +0.000 A 
ATOM     10  C   UNL     1       2.578   0.320  -2.709  0.00  0.00    +0.000 A 
ATOM     11  C   UNL     1       1.587   0.947  -1.947  0.00  0.00    +0.000 A 
ATOM     12  C   UNL     1       1.746   2.285  -1.521  0.00  0.00    +0.000 A 
ATOM     13  C   UNL     1       2.869   3.032  -1.922  0.00  0.00    +0.000 A 
ATOM     14  C   UNL     1       3.850   2.369  -2.616  0.00  0.00    +0.000 A 
BRANCH   9  16
ATOM     15  C   UNL     1       5.912   0.594  -2.126  0.00  0.00    +0.000 C 
ATOM     16  O   UNL     1       4.900   0.291  -3.100  0.00  0.00    +0.000 OA
ENDBRANCH   9  16
BRANCH  10  17
ATOM     17  O   UNL     1       2.360  -0.956  -3.192  0.00  0.00    +0.000 OA
ATOM     18  C   UNL     1       3.314  -1.395  -4.197  0.00  0.00    +0.000 C 
ENDBRANCH  10  17
BRANCH  11  19
ATOM     19  O   UNL     1       0.468   0.207  -1.634  0.00  0.00    +0.000 OA
ATOM     20  C   UNL     1       0.017   0.410  -0.296  0.00  0.00    +0.000 C 
ENDBRANCH  11  19
ENDBRANCH   7  13
ENDBRANCH   1   8
BRANCH   4  21
ATOM     21  O   UNL     1       7.173   6.042  -6.409  0.00  0.00    +0.000 OA
ATOM     22  C   UNL     1       8.320   5.278  -6.782  0.00  0.00    +0.000 C 
ENDBRANCH   4  21
BRANCH   5  23
ATOM     23  O   UNL     1       8.123   4.165  -4.456  0.00  0.00    +0.000 OA
BRANCH  23  24
ATOM     24  P   UNL     1       8.133   2.523  -3.910  0.00  0.00    +0.000 P 
ATOM     25  O   UNL     1       8.142   1.054  -3.421  0.00  0.00    -0.660 OA
ATOM     26  O   UNL     1       9.663   2.569  -4.150  0.00  0.00    -0.660 OA
ATOM     27  O   UNL     1       7.181   2.208  -5.106  0.00  0.00    -0.660 OA
ENDBRANCH  23  24
ENDBRANCH   5  23
BRANCH   6  28
ATOM     28  O   UNL     1       7.029   4.104  -1.861  0.00  0.00    +0.000 OA
BRANCH  28  29
ATOM     29  P   UNL     1       6.636   4.499  -0.223  0.00  0.00    +0.000 P 
ATOM     30  O   UNL     1       6.285   4.852   1.243  0.00  0.00    -0.660 OA
ATOM     31  O   UNL     1       5.643   3.305  -0.147  0.00  0.00    -0.660 OA
ATOM     32  O   UNL     1       6.348   5.952  -0.594  0.00  0.00    -0.660 OA
ENDBRANCH  28  29
ENDBRANCH   6  28
TORSDOF 10
