REMARK  Name = 
REMARK  0 active torsions:
REMARK  status: ('A' for Active; 'I' for Inactive)
REMARK                            x       y       z     vdW  Elec       q    Type
REMARK                         _______ _______ _______ _____ _____    ______ ____
ROOT
ATOM      1  O   UNL     1       1.129   0.102   0.204  0.00  0.00    -0.245 OA
ATOM      2  C   UNL     1       2.353   0.115   0.103  0.00  0.00    +0.350 A 
ATOM      3  N   UNL     1       3.067   1.290   0.047  0.00  0.00    -0.174 NA
ATOM      4  C   UNL     1       4.351   1.223  -0.011  0.00  0.00    +0.165 A 
ATOM      5  C   UNL     1       5.089  -0.055   0.032  0.00  0.00    +0.100 A 
ATOM      6  C   UNL     1       6.370   0.335   0.072  0.00  0.00    +0.118 A 
ATOM      7  N   UNL     1       6.507   1.719   0.103  0.00  0.00    -0.305 N 
ATOM      8  H   UNL     1       7.264   2.072  -0.489  0.00  0.00    +0.186 HD
ATOM      9  C   UNL     1       4.363  -1.304   0.032  0.00  0.00    +0.265 A 
ATOM     10  O   UNL     1       4.897  -2.403   0.041  0.00  0.00    -0.267 OA
ATOM     11  N   UNL     1       5.253   2.275  -0.084  0.00  0.00    -0.283 N 
ATOM     12  H   UNL     1       4.992   3.112   0.436  0.00  0.00    +0.188 HD
ATOM     13  N   UNL     1       3.009  -1.099   0.044  0.00  0.00    -0.273 N 
ATOM     14  H   UNL     1       2.416  -1.913   0.084  0.00  0.00    +0.174 HD
ENDROOT
TORSDOF 0
