REMARK  Name = 
REMARK  16 active torsions:
REMARK  status: ('A' for Active; 'I' for Inactive)
REMARK    1  A    between atoms: N_10  and  C_11
REMARK    2  A    between atoms: C_11  and  C_12
REMARK    3  A    between atoms: C_12  and  O_14
REMARK    4  A    between atoms: C_12  and  C_15
REMARK    5  A    between atoms: C_15  and  C_17
REMARK    6  A    between atoms: C_15  and  N_25
REMARK    7  A    between atoms: C_17  and  S_18
REMARK    8  A    between atoms: S_18  and  C_19
REMARK    9  A    between atoms: C_26  and  C_28
REMARK   10  A    between atoms: C_29  and  C_30
REMARK   11  A    between atoms: C_31  and  O_32
REMARK   12  A    between atoms: C_36  and  C_39
REMARK   13  A    between atoms: N_41  and  C_42
REMARK   14  A    between atoms: C_42  and  C_43
REMARK   15  A    between atoms: C_42  and  C_44
REMARK   16  A    between atoms: C_42  and  C_45
REMARK                            x       y       z     vdW  Elec       q    Type
REMARK                         _______ _______ _______ _____ _____    ______ ____
ROOT
ATOM      1  C   UNL     1       0.485  -5.735  -2.248  0.00  0.00    +0.149 C 
ENDROOT
BRANCH   1   2
ATOM      2  O   UNL     1       0.489  -4.358  -1.836  0.00  0.00    -0.389 OA
ATOM      3  H   UNL     1       1.197  -3.918  -2.339  0.00  0.00    +0.210 HD
ENDBRANCH   1   2
BRANCH   1   4
ATOM      4  C   UNL     1       0.008  -5.883  -3.729  0.00  0.00    +0.118 C 
BRANCH   4   8
ATOM      5  C   UNL     1      -3.126  -4.010  -6.022  0.00  0.00    -0.005 C 
ATOM      6  C   UNL     1      -2.582  -3.328  -4.760  0.00  0.00    +0.032 C 
ATOM      7  C   UNL     1      -1.797  -4.183  -3.744  0.00  0.00    +0.143 C 
ATOM      8  N   UNL     1      -1.386  -5.554  -4.096  0.00  0.00    -0.289 NA
ATOM      9  C   UNL     1      -1.677  -5.962  -5.473  0.00  0.00    +0.089 C 
ATOM     10  C   UNL     1      -3.061  -5.538  -5.983  0.00  0.00    +0.006 C 
ATOM     11  C   UNL     1      -4.213  -6.207  -5.217  0.00  0.00    +0.005 C 
ATOM     12  C   UNL     1      -5.589  -5.606  -5.508  0.00  0.00    +0.000 C 
ATOM     13  C   UNL     1      -5.595  -4.084  -5.456  0.00  0.00    +0.000 C 
ATOM     14  C   UNL     1      -4.529  -3.502  -6.377  0.00  0.00    +0.004 C 
BRANCH   7  15
ATOM     15  C   UNL     1      -2.616  -4.201  -2.417  0.00  0.00    +0.231 C 
ATOM     16  N   UNL     1      -2.392  -3.087  -1.624  0.00  0.00    -0.309 N 
ATOM     17  H   UNL     1      -1.495  -2.642  -1.771  0.00  0.00    +0.149 HD
ATOM     18  O   UNL     1      -3.438  -5.063  -2.126  0.00  0.00    -0.274 OA
BRANCH  16  19
ATOM     19  C   UNL     1      -3.023  -2.858  -0.316  0.00  0.00    +0.026 C 
ATOM     20  C   UNL     1      -4.558  -2.892  -0.403  0.00  0.00    +0.031 C 
ATOM     21  C   UNL     1      -2.599  -1.453   0.149  0.00  0.00    +0.031 C 
ATOM     22  C   UNL     1      -2.538  -3.882   0.718  0.00  0.00    +0.031 C 
ENDBRANCH  16  19
ENDBRANCH   7  15
ENDBRANCH   4   8
ENDBRANCH   1   4
BRANCH   1  23
ATOM     23  C   UNL     1      -0.283  -6.617  -1.230  0.00  0.00    +0.113 C 
BRANCH  23  24
ATOM     24  N   UNL     1      -0.198  -8.035  -1.583  0.00  0.00    -0.305 N 
ATOM     25  H   UNL     1       0.719  -8.463  -1.582  0.00  0.00    +0.149 HD
ATOM     26  C   UNL     1      -1.309  -8.852  -1.561  0.00  0.00    +0.245 C 
ATOM     27  O   UNL     1      -2.434  -8.468  -1.276  0.00  0.00    -0.270 OA
BRANCH  26  28
ATOM     28  C   UNL     1      -1.057 -10.279  -1.914  0.00  0.00    +0.043 A 
ATOM     29  C   UNL     1      -0.146 -10.535  -2.955  0.00  0.00    +0.013 A 
ATOM     30  C   UNL     1       0.118 -11.843  -3.361  0.00  0.00    +0.004 A 
ATOM     31  C   UNL     1      -0.548 -12.892  -2.750  0.00  0.00    +0.046 A 
ATOM     32  C   UNL     1      -1.473 -12.640  -1.737  0.00  0.00    +0.120 A 
ATOM     33  C   UNL     1      -1.732 -11.339  -1.274  0.00  0.00    +0.003 A 
ATOM     34  C   UNL     1      -2.682 -11.133  -0.125  0.00  0.00    +0.048 C 
BRANCH  32  35
ATOM     35  O   UNL     1      -2.108 -13.742  -1.234  0.00  0.00    -0.506 OA
ATOM     36  H   UNL     1      -2.903 -13.458  -0.755  0.00  0.00    +0.292 HD
ENDBRANCH  32  35
ENDBRANCH  26  28
ENDBRANCH  23  24
BRANCH  23  37
ATOM     37  C   UNL     1       0.188  -6.397   0.232  0.00  0.00    +0.099 C 
BRANCH  37  38
ATOM     38  S   UNL     1       1.920  -6.956   0.522  0.00  0.00    -0.123 S 
BRANCH  38  39
ATOM     39  C   UNL     1       2.152  -6.652   2.270  0.00  0.00    +0.008 A 
ATOM     40  C   UNL     1       1.538  -5.613   2.977  0.00  0.00    +0.015 A 
ATOM     41  C   UNL     1       1.824  -5.407   4.333  0.00  0.00    +0.001 A 
ATOM     42  C   UNL     1       2.729  -6.235   4.993  0.00  0.00    +0.000 A 
ATOM     43  C   UNL     1       3.349  -7.271   4.300  0.00  0.00    +0.001 A 
ATOM     44  C   UNL     1       3.063  -7.475   2.948  0.00  0.00    +0.015 A 
ENDBRANCH  38  39
ENDBRANCH  37  38
ENDBRANCH  23  37
ENDBRANCH   1  23
TORSDOF 12
