REMARK  Name = 
REMARK  6 active torsions:
REMARK  status: ('A' for Active; 'I' for Inactive)
REMARK    1  A    between atoms: C_1  and  C_2
REMARK    2  A    between atoms: C_3  and  C_4
REMARK    3  A    between atoms: C_4  and  O_5
REMARK    4  A    between atoms: C_7  and  C_8
REMARK    5  A    between atoms: C_12  and  C_13
REMARK    6  A    between atoms: C_12  and  O_14
REMARK                            x       y       z     vdW  Elec       q    Type
REMARK                         _______ _______ _______ _____ _____    ______ ____
ROOT
ATOM      1  C   UNL     1       0.812   0.042  -0.028  0.00  0.00    +0.044 C 
ATOM      2  C   UNL     1       2.293   0.213  -0.042  0.00  0.00    -0.044 C 
ATOM      3  C   UNL     1       3.144  -0.962   0.006  0.00  0.00    +0.015 C 
ATOM      4  C   UNL     1       4.424  -0.570   0.006  0.00  0.00    +0.028 C 
ATOM      5  C   UNL     1       4.473   0.873  -0.090  0.00  0.00    -0.009 C 
ATOM      6  C   UNL     1       5.666   1.510  -0.174  0.00  0.00    -0.055 C 
ATOM      7  C   UNL     1       7.000   0.753  -0.060  0.00  0.00    +0.028 C 
ATOM      8  C   UNL     1       6.965  -0.810  -0.137  0.00  0.00    +0.135 C 
ATOM      9  C   UNL     1       7.483  -1.330  -1.493  0.00  0.00    +0.051 C 
ATOM     10  C   UNL     1       8.004   1.413   0.902  0.00  0.00    +0.015 C 
ATOM     11  C   UNL     1       8.292   1.410  -0.561  0.00  0.00    +0.015 C 
ATOM     12  C   UNL     1       5.732   3.018  -0.328  0.00  0.00    +0.040 C 
ATOM     13  C   UNL     1       5.588  -1.458   0.049  0.00  0.00    +0.196 C 
ATOM     14  O   UNL     1       5.425  -2.675   0.171  0.00  0.00    -0.289 OA
ATOM     15  C   UNL     1       3.062   1.334  -0.066  0.00  0.00    -0.011 C 
ENDROOT
BRANCH   8  16
ATOM     16  O   UNL     1       7.795  -1.347   0.909  0.00  0.00    -0.380 OA
ATOM     17  H   UNL     1       8.699  -1.419   0.566  0.00  0.00    +0.211 HD
ENDBRANCH   8  16
BRANCH  15  18
ATOM     18  C   UNL     1       2.548   2.736  -0.018  0.00  0.00    +0.192 C 
BRANCH  18  19
ATOM     19  O   UNL     1       3.057   3.420   1.120  0.00  0.00    -0.390 OA
ATOM     20  H   UNL     1       2.939   2.829   1.884  0.00  0.00    +0.210 HD
ENDBRANCH  18  19
ENDBRANCH  15  18
TORSDOF 3
