REMARK  Name = 
REMARK  13 active torsions:
REMARK  status: ('A' for Active; 'I' for Inactive)
REMARK    1  A    between atoms: N_1  and  C_2
REMARK    2  A    between atoms: C_2  and  C_3
REMARK    3  A    between atoms: C_3  and  C_4
REMARK    4  A    between atoms: N_6  and  C_7
REMARK    5  A    between atoms: C_7  and  C_8
REMARK    6  A    between atoms: C_8  and  S_9
REMARK    7  A    between atoms: S_9  and  S_10
REMARK    8  A    between atoms: S_10  and  C_11
REMARK    9  A    between atoms: C_11  and  C_12
REMARK   10  A    between atoms: C_12  and  N_13
REMARK   11  A    between atoms: C_14  and  C_16
REMARK   12  A    between atoms: C_16  and  C_17
REMARK   13  A    between atoms: C_17  and  N_18
REMARK                            x       y       z     vdW  Elec       q    Type
REMARK                         _______ _______ _______ _____ _____    ______ ____
ROOT
ATOM      1  S   UNL     1       8.974  -3.073   2.792  0.00  0.00    -0.092 S 
ENDROOT
BRANCH   1   2
ATOM      2  C   UNL     1       7.152  -2.957   2.954  0.00  0.00    +0.099 C 
BRANCH   2   3
ATOM      3  C   UNL     1       6.669  -2.614   4.361  0.00  0.00    +0.115 C 
BRANCH   3   5
ATOM      4  C   UNL     1       4.487  -1.470   4.128  0.00  0.00    +0.214 C 
ATOM      5  N   UNL     1       5.218  -2.590   4.454  0.00  0.00    -0.314 N 
ATOM      6  H   UNL     1       4.738  -3.454   4.680  0.00  0.00    +0.149 HD
ATOM      7  O   UNL     1       4.997  -0.431   3.727  0.00  0.00    -0.276 OA
BRANCH   4   8
ATOM      8  C   UNL     1       2.995  -1.621   4.325  0.00  0.00    +0.110 C 
BRANCH   8   9
ATOM      9  C   UNL     1       2.270  -1.263   3.037  0.00  0.00    +0.087 C 
BRANCH   9  10
ATOM     10  N   UNL     1       0.822  -1.397   3.201  0.00  0.00    -0.330 NA
ATOM     11  H   UNL     1       0.494  -0.703   3.873  0.00  0.00    +0.118 HD
ATOM     12  H   UNL     1       0.366  -1.161   2.319  0.00  0.00    +0.118 HD
ENDBRANCH   9  10
ENDBRANCH   8   9
ENDBRANCH   4   8
ENDBRANCH   3   5
ENDBRANCH   2   3
ENDBRANCH   1   2
BRANCH   1  13
ATOM     13  S   UNL     1       9.521  -4.425   4.248  0.00  0.00    -0.092 S 
BRANCH  13  14
ATOM     14  C   UNL     1       8.840  -5.974   3.579  0.00  0.00    +0.099 C 
BRANCH  14  15
ATOM     15  C   UNL     1       9.082  -7.135   4.545  0.00  0.00    +0.115 C 
BRANCH  15  16
ATOM     16  N   UNL     1       8.504  -8.383   4.065  0.00  0.00    -0.314 N 
ATOM     17  H   UNL     1       9.108  -9.194   4.003  0.00  0.00    +0.149 HD
ATOM     18  C   UNL     1       7.138  -8.562   4.002  0.00  0.00    +0.214 C 
ATOM     19  O   UNL     1       6.329  -7.676   4.256  0.00  0.00    -0.276 OA
BRANCH  18  20
ATOM     20  C   UNL     1       6.713  -9.936   3.534  0.00  0.00    +0.110 C 
BRANCH  20  21
ATOM     21  C   UNL     1       6.670  -9.976   2.013  0.00  0.00    +0.087 C 
BRANCH  21  22
ATOM     22  N   UNL     1       6.252 -11.291   1.536  0.00  0.00    -0.330 NA
ATOM     23  H   UNL     1       6.196 -11.284   0.519  0.00  0.00    +0.118 HD
ATOM     24  H   UNL     1       6.947 -11.994   1.780  0.00  0.00    +0.118 HD
ENDBRANCH  21  22
ENDBRANCH  20  21
ENDBRANCH  18  20
ENDBRANCH  15  16
ENDBRANCH  14  15
ENDBRANCH  13  14
ENDBRANCH   1  13
TORSDOF 13
