REMARK  Name = 
REMARK  13 active torsions:
REMARK  status: ('A' for Active; 'I' for Inactive)
REMARK    1  A    between atoms: C_1  and  C_2
REMARK    2  A    between atoms: C_2  and  N_3
REMARK    3  A    between atoms: C_4  and  C_6
REMARK    4  A    between atoms: C_9  and  N_15
REMARK    5  A    between atoms: C_11  and  O_12
REMARK    6  A    between atoms: C_13  and  O_14
REMARK    7  A    between atoms: C_19  and  N_20
REMARK    8  A    between atoms: C_22  and  C_25
REMARK    9  A    between atoms: C_26  and  C_27
REMARK   10  A    between atoms: C_27  and  C_28
REMARK   11  A    between atoms: C_31  and  C_34
REMARK   12  A    between atoms: C_34  and  O_36
REMARK   13  A    between atoms: O_36  and  C_37
REMARK                            x       y       z     vdW  Elec       q    Type
REMARK                         _______ _______ _______ _____ _____    ______ ____
ROOT
ATOM      1  N   UNL     1       4.318   6.398   0.777  0.00  0.00    -0.285 N 
ATOM      2  C   UNL     1       4.661   7.287   1.765  0.00  0.00    +0.169 A 
ATOM      3  C   UNL     1       3.582   8.161   1.816  0.00  0.00    +0.147 A 
ATOM      4  C   UNL     1       3.637   9.202   2.758  0.00  0.00    +0.148 A 
ATOM      5  N   UNL     1       4.715   9.297   3.560  0.00  0.00    -0.203 NA
ATOM      6  C   UNL     1       5.707   8.398   3.391  0.00  0.00    +0.209 A 
ATOM      7  N   UNL     1       2.613   7.833   0.900  0.00  0.00    -0.231 NA
ATOM      8  N   UNL     1       5.775   7.350   2.524  0.00  0.00    -0.200 NA
ATOM      9  C   UNL     1       3.097   6.781   0.279  0.00  0.00    +0.203 A 
ENDROOT
BRANCH   1  13
ATOM     10  C   UNL     1       6.238   3.401   0.557  0.00  0.00    +0.237 C 
ATOM     11  C   UNL     1       7.190   4.315  -0.228  0.00  0.00    +0.185 C 
ATOM     12  C   UNL     1       6.403   5.618  -0.408  0.00  0.00    +0.196 C 
ATOM     13  C   UNL     1       5.059   5.285   0.229  0.00  0.00    +0.254 C 
ATOM     14  O   UNL     1       5.316   4.271   1.221  0.00  0.00    -0.339 OA
BRANCH  10  17
ATOM     15  N   UNL     1       6.747   2.433   2.760  0.00  0.00    -0.313 N 
ATOM     16  H   UNL     1       6.112   3.149   3.106  0.00  0.00    +0.149 HD
ATOM     17  C   UNL     1       7.033   2.414   1.416  0.00  0.00    +0.245 C 
ATOM     18  O   UNL     1       7.836   1.638   0.901  0.00  0.00    -0.273 OA
BRANCH  15  20
ATOM     19  C   UNL     1       8.672   1.997   4.239  0.00  0.00    +0.024 C 
ATOM     20  C   UNL     1       7.351   1.495   3.684  0.00  0.00    +0.101 C 
ENDBRANCH  15  20
ENDBRANCH  10  17
BRANCH  11  21
ATOM     21  O   UNL     1       7.529   3.815  -1.531  0.00  0.00    -0.386 OA
ATOM     22  H   UNL     1       7.476   2.840  -1.518  0.00  0.00    +0.210 HD
ENDBRANCH  11  21
BRANCH  12  23
ATOM     23  O   UNL     1       6.235   5.937  -1.795  0.00  0.00    -0.385 OA
ATOM     24  H   UNL     1       6.837   5.323  -2.274  0.00  0.00    +0.210 HD
ENDBRANCH  12  23
ENDBRANCH   1  13
BRANCH   4  25
ATOM     25  N   UNL     1       2.615  10.135   2.906  0.00  0.00    -0.341 N 
ATOM     26  H   UNL     1       2.601  10.550   3.823  0.00  0.00    +0.144 HD
ATOM     27  H   UNL     1       1.732   9.818   2.511  0.00  0.00    +0.144 HD
ENDBRANCH   4  25
BRANCH   6  28
ATOM     28  C   UNL     1       6.829   8.589   4.266  0.00  0.00    -0.026 C 
ATOM     29  C   UNL     1       7.859   8.711   5.056  0.00  0.00    -0.094 C 
BRANCH  29  30
ATOM     30  C   UNL     1       9.060   8.853   5.977  0.00  0.00    +0.092 C 
BRANCH  30  31
ATOM     31  C   UNL     1       8.640   9.134   7.424  0.00  0.00    +0.001 C 
ATOM     32  C   UNL     1       7.758  10.386   7.565  0.00  0.00    +0.005 C 
ATOM     33  C   UNL     1       8.526  11.688   7.328  0.00  0.00    +0.015 C 
ATOM     34  C   UNL     1       9.792  11.795   8.187  0.00  0.00    +0.098 C 
ATOM     35  C   UNL     1      10.669  10.545   8.042  0.00  0.00    +0.015 C 
ATOM     36  C   UNL     1       9.888   9.257   8.312  0.00  0.00    +0.005 C 
BRANCH  34  37
ATOM     37  C   UNL     1       9.453  12.046   9.656  0.00  0.00    +0.310 C 
ATOM     38  O   UNL     1       8.324  12.167  10.107  0.00  0.00    -0.251 OA
BRANCH  37  39
ATOM     39  O   UNL     1      10.595  12.160  10.387  0.00  0.00    -0.468 OA
ATOM     40  C   UNL     1      10.365  12.320  11.787  0.00  0.00    +0.280 C 
ENDBRANCH  37  39
ENDBRANCH  34  37
ENDBRANCH  30  31
ENDBRANCH  29  30
ENDBRANCH   6  28
TORSDOF 11
