REMARK  Name = 
REMARK  3 active torsions:
REMARK  status: ('A' for Active; 'I' for Inactive)
REMARK    1  A    between atoms: C_9  and  C_10
REMARK    2  A    between atoms: C_22  and  O_24
REMARK    3  A    between atoms: C_27  and  C_28
REMARK                            x       y       z     vdW  Elec       q    Type
REMARK                         _______ _______ _______ _____ _____    ______ ____
ROOT
ATOM      1  C   UNL     1      -0.000  -0.000  -0.000  0.00  0.00    +0.007 C 
ATOM      2  C   UNL     1      -0.000  -0.000  -0.000  0.00  0.00    -0.003 C 
ATOM      3  C   UNL     1      -0.000  -0.000  -0.000  0.00  0.00    +0.004 C 
ATOM      4  C   UNL     1      -0.000  -0.000   0.000  0.00  0.00    +0.004 C 
ATOM      5  C   UNL     1      -0.000  -0.000   0.000  0.00  0.00    -0.002 C 
ATOM      6  C   UNL     1      -0.000  -0.000   0.000  0.00  0.00    -0.026 C 
ATOM      7  C   UNL     1      -0.000  -0.000   0.000  0.00  0.00    +0.012 C 
ATOM      8  C   UNL     1      -0.000  -0.000   0.000  0.00  0.00    +0.010 C 
ATOM      9  C   UNL     1      -0.000  -0.000  -0.000  0.00  0.00    +0.032 C 
ATOM     10  C   UNL     1      -0.000  -0.000   0.000  0.00  0.00    +0.115 C 
ATOM     11  C   UNL     1      -0.000  -0.000  -0.000  0.00  0.00    +0.035 C 
ATOM     12  C   UNL     1      -0.000  -0.000   0.000  0.00  0.00    -0.001 C 
ATOM     13  C   UNL     1      -0.000  -0.000   0.000  0.00  0.00    +0.005 C 
ATOM     14  C   UNL     1      -0.000  -0.000  -0.000  0.00  0.00    +0.015 C 
ATOM     15  C   UNL     1      -0.000  -0.000  -0.000  0.00  0.00    +0.030 C 
ATOM     16  C   UNL     1      -0.000  -0.000   0.000  0.00  0.00    +0.019 C 
ATOM     17  C   UNL     1      -0.000  -0.000  -0.000  0.00  0.00    +0.153 C 
ATOM     18  O   UNL     1      -0.000  -0.000   0.000  0.00  0.00    -0.296 OA
ATOM     19  C   UNL     1      -0.000  -0.000   0.000  0.00  0.00    +0.123 C 
ATOM     20 BR   UNL     1      -0.000  -0.000  -0.000  0.00  0.00    -0.080 Br
ATOM     21  C   UNL     1      -0.000  -0.000   0.000  0.00  0.00    +0.027 C 
ENDROOT
BRANCH  10  22
ATOM     22  O   UNL     1      -0.000  -0.000  -0.000  0.00  0.00    -0.392 OA
ATOM     23  H   UNL     1       0.000   0.000   0.000  0.00  0.00    +0.210 HD
ENDBRANCH  10  22
TORSDOF 1
