REMARK  Name = 
REMARK  8 active torsions:
REMARK  status: ('A' for Active; 'I' for Inactive)
REMARK    1  A    between atoms: C_6  and  N_7
REMARK    2  A    between atoms: C_14  and  O_15
REMARK    3  A    between atoms: O_15  and  C_16
REMARK    4  A    between atoms: C_16  and  C_17
REMARK    5  A    between atoms: C_17  and  C_18
REMARK    6  A    between atoms: C_18  and  N_19
REMARK    7  A    between atoms: C_25  and  N_26
REMARK    8  A    between atoms: C_27  and  C_29
REMARK                            x       y       z     vdW  Elec       q    Type
REMARK                         _______ _______ _______ _____ _____    ______ ____
ROOT
ATOM      1  N   UNL     1       6.523  -0.072  -0.500  0.00  0.00    -0.299 N 
ATOM      2  H   UNL     1       7.024  -0.916  -0.741  0.00  0.00    +0.154 HD
ATOM      3  C   UNL     1       7.332   1.083  -0.642  0.00  0.00    +0.134 A 
ATOM      4  C   UNL     1       8.737   0.969  -0.760  0.00  0.00    +0.042 A 
ATOM      5  C   UNL     1       9.402   2.197  -0.879  0.00  0.00    +0.080 A 
ATOM      6  C   UNL     1      10.773   2.226  -1.013  0.00  0.00    +0.076 A 
ATOM      7  C   UNL     1      11.550   1.066  -1.034  0.00  0.00    +0.144 A 
ATOM      8  C   UNL     1      10.919  -0.173  -0.908  0.00  0.00    +0.077 A 
ATOM      9  N   UNL     1       8.801   3.384  -0.884  0.00  0.00    -0.235 NA
ATOM     10  C   UNL     1       7.481   3.375  -0.753  0.00  0.00    +0.223 A 
ATOM     11  C   UNL     1       9.522  -0.227  -0.783  0.00  0.00    +0.040 A 
ATOM     12  N   UNL     1       6.728   2.287  -0.626  0.00  0.00    -0.220 NA
ENDROOT
BRANCH   1  17
ATOM     13  F   UNL     1       1.128  -0.874  -1.627  0.00  0.00    -0.204 F 
ATOM     14  C   UNL     1       2.411  -0.648  -1.306  0.00  0.00    +0.142 A 
ATOM     15  C   UNL     1       3.273  -1.732  -1.191  0.00  0.00    +0.041 A 
ATOM     16  C   UNL     1       4.622  -1.512  -0.902  0.00  0.00    +0.026 A 
ATOM     17  C   UNL     1       5.131  -0.217  -0.738  0.00  0.00    +0.034 A 
ATOM     18  C   UNL     1       4.224   0.851  -0.795  0.00  0.00    +0.046 A 
ATOM     19  C   UNL     1       2.878   0.643  -1.100  0.00  0.00    +0.078 A 
ATOM     20 CL   UNL     1       1.818   1.994  -1.241  0.00  0.00    -0.081 Cl
ENDBRANCH   1  17
BRANCH   8  21
ATOM     21  N   UNL     1      11.722  -1.334  -0.881  0.00  0.00    -0.279 N 
ATOM     22  H   UNL     1      12.698  -1.172  -0.657  0.00  0.00    +0.155 HD
ATOM     23  C   UNL     1      11.405  -2.501  -1.542  0.00  0.00    +0.241 C 
ATOM     24  O   UNL     1      10.425  -2.678  -2.254  0.00  0.00    -0.271 OA
BRANCH  23  25
ATOM     25  C   UNL     1      12.451  -3.548  -1.364  0.00  0.00    +0.060 C 
ATOM     26  C   UNL     1      12.518  -4.599  -2.191  0.00  0.00    +0.013 C 
ENDBRANCH  23  25
ENDBRANCH   8  21
BRANCH   7  27
ATOM     27  O   UNL     1      12.914   1.063  -1.240  0.00  0.00    -0.490 OA
BRANCH  27  28
ATOM     28  C   UNL     1      13.429   2.317  -1.708  0.00  0.00    +0.230 C 
BRANCH  28  29
ATOM     29  C   UNL     1      14.888   2.175  -2.101  0.00  0.00    +0.056 C 
BRANCH  29  30
ATOM     30  C   UNL     1      15.480   3.527  -2.516  0.00  0.00    +0.088 C 
BRANCH  30  31
ATOM     31  N   UNL     1      15.414   4.576  -1.479  0.00  0.00    -0.298 NA
ATOM     32  C   UNL     1      16.009   5.844  -1.972  0.00  0.00    +0.112 C 
ATOM     33  C   UNL     1      17.540   5.778  -2.124  0.00  0.00    +0.175 C 
ATOM     34  O   UNL     1      18.179   5.383  -0.902  0.00  0.00    -0.377 OA
ATOM     35  C   UNL     1      17.649   4.148  -0.404  0.00  0.00    +0.175 C 
ATOM     36  C   UNL     1      16.125   4.225  -0.229  0.00  0.00    +0.112 C 
ENDBRANCH  30  31
ENDBRANCH  29  30
ENDBRANCH  28  29
ENDBRANCH  27  28
ENDBRANCH   7  27
TORSDOF 8
