REMARK  Name = 
REMARK  7 active torsions:
REMARK  status: ('A' for Active; 'I' for Inactive)
REMARK    1  A    between atoms: C_1  and  O_2
REMARK    2  A    between atoms: O_2  and  C_3
REMARK    3  A    between atoms: C_4  and  O_5
REMARK    4  A    between atoms: O_5  and  C_6
REMARK    5  A    between atoms: C_6  and  C_7
REMARK    6  A    between atoms: N_10  and  C_11
REMARK    7  A    between atoms: N_20  and  C_21
REMARK                            x       y       z     vdW  Elec       q    Type
REMARK                         _______ _______ _______ _____ _____    ______ ____
ROOT
ATOM      1  C   UNL     1       2.813  -1.213  -0.056  0.00  0.00    +0.162 A 
ATOM      2  C   UNL     1       2.209  -2.448  -0.311  0.00  0.00    +0.062 A 
ATOM      3  C   UNL     1       3.000  -3.601  -0.565  0.00  0.00    +0.044 A 
ATOM      4  C   UNL     1       4.390  -3.472  -0.648  0.00  0.00    +0.080 A 
ATOM      5  N   UNL     1       5.201  -4.497  -0.924  0.00  0.00    -0.235 NA
ATOM      6  C   UNL     1       4.630  -5.694  -1.070  0.00  0.00    +0.223 A 
ATOM      7  N   UNL     1       3.332  -5.962  -0.931  0.00  0.00    -0.220 NA
ATOM      8  C   UNL     1       4.972  -2.243  -0.375  0.00  0.00    +0.078 A 
ATOM      9  C   UNL     1       2.520  -4.920  -0.666  0.00  0.00    +0.134 A 
ATOM     10  N   UNL     1       1.177  -5.207  -0.355  0.00  0.00    -0.297 N 
ATOM     11  H   UNL     1       0.495  -4.787  -0.972  0.00  0.00    +0.154 HD
ATOM     12  C   UNL     1       4.214  -1.121  -0.028  0.00  0.00    +0.164 A 
ENDROOT
BRANCH  10  13
ATOM     13  C   UNL     1       0.702  -6.262   0.450  0.00  0.00    +0.068 A 
ATOM     14  C   UNL     1       1.519  -6.889   1.404  0.00  0.00    +0.027 A 
ATOM     15  C   UNL     1       1.015  -7.870   2.258  0.00  0.00    +0.017 A 
ATOM     16  C   UNL     1      -0.327  -8.231   2.170  0.00  0.00    +0.021 A 
ATOM     17 BR   UNL     1      -1.020  -9.526   3.360  0.00  0.00    -0.050 Br
ATOM     18  C   UNL     1      -1.155  -7.643   1.220  0.00  0.00    +0.055 A 
ATOM     19  C   UNL     1      -0.637  -6.667   0.375  0.00  0.00    +0.145 A 
ATOM     20  F   UNL     1      -1.453  -6.085  -0.521  0.00  0.00    -0.204 F 
ENDBRANCH  10  13
BRANCH   1  22
ATOM     21  C   UNL     1       0.885   0.109  -0.435  0.00  0.00    +0.277 C 
ATOM     22  O   UNL     1       2.098  -0.091   0.283  0.00  0.00    -0.491 OA
ENDBRANCH   1  22
BRANCH  12  23
ATOM     23  O   UNL     1       4.748   0.087   0.342  0.00  0.00    -0.488 OA
BRANCH  23  24
ATOM     24  C   UNL     1       6.157   0.166   0.607  0.00  0.00    +0.232 C 
BRANCH  24  25
ATOM     25  C   UNL     1       6.419   1.419   1.470  0.00  0.00    +0.029 C 
ATOM     26  C   UNL     1       7.911   1.684   1.723  0.00  0.00    +0.022 C 
ATOM     27  C   UNL     1       8.544   0.726   2.743  0.00  0.00    +0.084 C 
ATOM     28  N   UNL     1       7.779   0.514   3.978  0.00  0.00    -0.305 NA
ATOM     29  C   UNL     1       7.983   1.571   4.964  0.00  0.00    +0.104 C 
ATOM     30  C   UNL     1       6.353   0.275   3.728  0.00  0.00    +0.084 C 
ATOM     31  C   UNL     1       5.706   1.330   2.826  0.00  0.00    +0.022 C 
ENDBRANCH  24  25
ENDBRANCH  23  24
ENDBRANCH  12  23
TORSDOF 5
