REMARK  Name = 
REMARK  3 active torsions:
REMARK  status: ('A' for Active; 'I' for Inactive)
REMARK    1  A    between atoms: C_1  and  N_2
REMARK    2  A    between atoms: C_6  and  C_7
REMARK    3  A    between atoms: C_6  and  C_10
REMARK                            x       y       z     vdW  Elec       q    Type
REMARK                         _______ _______ _______ _____ _____    ______ ____
ROOT
ATOM      1  C   UNL     1       1.125  -0.115   0.350  0.00  0.00    +0.141 C 
ATOM      2  N   UNL     1       2.514  -0.025  -0.038  0.00  0.00    -0.245 N 
ATOM      3  C   UNL     1       3.312  -1.120  -0.167  0.00  0.00    +0.232 C 
ATOM      4  O   UNL     1       2.981  -2.263   0.121  0.00  0.00    -0.274 OA
ATOM      5  C   UNL     1       4.701  -0.692  -0.665  0.00  0.00    +0.078 C 
ATOM      6  C   UNL     1       5.749  -1.087   0.396  0.00  0.00    +0.026 C 
ATOM      7  C   UNL     1       4.576   0.850  -0.669  0.00  0.00    +0.117 C 
ATOM      8  C   UNL     1       3.211   1.135  -0.117  0.00  0.00    +0.223 C 
ATOM      9  O   UNL     1       2.824   2.249   0.202  0.00  0.00    -0.275 OA
ENDROOT
BRANCH   5  10
ATOM     10  C   UNL     1       4.991  -1.377  -2.012  0.00  0.00    -0.032 A 
ATOM     11  C   UNL     1       5.036  -2.787  -2.073  0.00  0.00    +0.004 A 
ATOM     12  C   UNL     1       5.175  -3.469  -3.285  0.00  0.00    +0.000 A 
ATOM     13  C   UNL     1       5.283  -2.758  -4.472  0.00  0.00    +0.000 A 
ATOM     14  C   UNL     1       5.283  -1.368  -4.439  0.00  0.00    +0.000 A 
ATOM     15  C   UNL     1       5.150  -0.686  -3.224  0.00  0.00    +0.004 A 
ENDBRANCH   5  10
TORSDOF 1
