REMARK  Name = 
REMARK  1 active torsions:
REMARK  status: ('A' for Active; 'I' for Inactive)
REMARK    1  A    between atoms: C_2  and  C_4
REMARK                            x       y       z     vdW  Elec       q    Type
REMARK                         _______ _______ _______ _____ _____    ______ ____
ROOT
ATOM      1  C   UNL     1       3.073  -0.949  -0.853  0.00  0.00    +0.055 A 
ATOM      2  C   UNL     1       2.781  -2.298  -0.718  0.00  0.00    +0.124 A 
ATOM      3  N   UNL     1       3.282  -3.267  -1.525  0.00  0.00    -0.254 NA
ATOM      4  C   UNL     1       4.086  -2.892  -2.536  0.00  0.00    +0.071 A 
ATOM      5  C   UNL     1       4.440  -1.541  -2.757  0.00  0.00    +0.001 A 
ATOM      6  C   UNL     1       5.272  -1.196  -3.836  0.00  0.00    +0.010 A 
ATOM      7  C   UNL     1       5.744  -2.178  -4.704  0.00  0.00    +0.001 A 
ATOM      8  C   UNL     1       5.396  -3.507  -4.493  0.00  0.00    +0.002 A 
ATOM      9  C   UNL     1       4.579  -3.850  -3.410  0.00  0.00    +0.028 A 
ATOM     10  C   UNL     1       3.922  -0.568  -1.890  0.00  0.00    +0.024 A 
ENDROOT
BRANCH   1  14
ATOM     11  N   UNL     1       3.055   1.218   0.255  0.00  0.00    -0.325 N 
ATOM     12  H   UNL     1       4.015   1.388  -0.008  0.00  0.00    +0.145 HD
ATOM     13  H   UNL     1       2.639   1.834   0.940  0.00  0.00    +0.145 HD
ATOM     14  C   UNL     1       2.432   0.017   0.062  0.00  0.00    +0.243 C 
ATOM     15  O   UNL     1       1.389  -0.253   0.644  0.00  0.00    -0.270 OA
ENDBRANCH   1  14
TORSDOF 1
