REMARK  Name = 
REMARK  13 active torsions:
REMARK  status: ('A' for Active; 'I' for Inactive)
REMARK    1  A    between atoms: C_1  and  O_2
REMARK    2  A    between atoms: O_2  and  C_3
REMARK    3  A    between atoms: C_4  and  O_5
REMARK    4  A    between atoms: C_8  and  C_9
REMARK    5  A    between atoms: C_9  and  N_10
REMARK    6  A    between atoms: C_11  and  C_13
REMARK    7  A    between atoms: C_13  and  C_14
REMARK    8  A    between atoms: C_14  and  C_15
REMARK    9  A    between atoms: C_15  and  C_16
REMARK   10  A    between atoms: C_16  and  C_17
REMARK   11  A    between atoms: C_18  and  C_19
REMARK   12  A    between atoms: C_19  and  C_20
REMARK   13  A    between atoms: C_19  and  C_21
REMARK                            x       y       z     vdW  Elec       q    Type
REMARK                         _______ _______ _______ _____ _____    ______ ____
ROOT
ATOM      1  N   UNL     1       2.377  -5.175   0.585  0.00  0.00    -0.311 N 
ATOM      2  H   UNL     1       2.534  -4.586   1.391  0.00  0.00    +0.149 HD
ATOM      3  C   UNL     1       1.330  -6.063   0.573  0.00  0.00    +0.213 C 
ATOM      4  O   UNL     1       1.056  -6.774  -0.391  0.00  0.00    -0.276 OA
ENDROOT
BRANCH   1   5
ATOM      5  C   UNL     1       3.258  -5.035  -0.546  0.00  0.00    +0.139 C 
BRANCH   5   8
ATOM      6  C   UNL     1       7.024  -4.597  -0.284  0.00  0.00    +0.162 A 
ATOM      7  C   UNL     1       5.671  -4.329  -0.487  0.00  0.00    +0.054 A 
ATOM      8  C   UNL     1       4.698  -5.295  -0.184  0.00  0.00    -0.027 A 
ATOM      9  C   UNL     1       5.101  -6.523   0.367  0.00  0.00    +0.009 A 
ATOM     10  C   UNL     1       6.453  -6.778   0.614  0.00  0.00    +0.049 A 
ATOM     11  C   UNL     1       7.399  -5.817   0.285  0.00  0.00    +0.158 A 
BRANCH   6  13
ATOM     12  C   UNL     1       7.774  -2.892  -1.721  0.00  0.00    +0.277 C 
ATOM     13  O   UNL     1       8.044  -3.732  -0.599  0.00  0.00    -0.491 OA
ENDBRANCH   6  13
BRANCH  11  14
ATOM     14  O   UNL     1       8.719  -6.103   0.500  0.00  0.00    -0.503 OA
ATOM     15  H   UNL     1       9.204  -5.313   0.193  0.00  0.00    +0.292 HD
ENDBRANCH  11  14
ENDBRANCH   5   8
ENDBRANCH   1   5
BRANCH   3  16
ATOM     16  C   UNL     1       0.519  -6.063   1.852  0.00  0.00    +0.096 C 
BRANCH  16  17
ATOM     17  C   UNL     1      -0.079  -7.436   2.153  0.00  0.00    +0.009 C 
BRANCH  17  18
ATOM     18  C   UNL     1       1.004  -8.483   2.427  0.00  0.00    +0.004 C 
BRANCH  18  19
ATOM     19  C   UNL     1       0.388  -9.849   2.732  0.00  0.00    +0.027 C 
BRANCH  19  20
ATOM     20  C   UNL     1       1.457 -10.872   2.985  0.00  0.00    -0.031 C 
ATOM     21  C   UNL     1       1.587 -11.544   4.139  0.00  0.00    -0.028 C 
BRANCH  21  22
ATOM     22  C   UNL     1       2.660 -12.571   4.396  0.00  0.00    +0.005 C 
ATOM     23  C   UNL     1       2.030 -13.941   4.641  0.00  0.00    +0.011 C 
ATOM     24  C   UNL     1       3.515 -12.149   5.590  0.00  0.00    +0.011 C 
ENDBRANCH  21  22
ENDBRANCH  19  20
ENDBRANCH  18  19
ENDBRANCH  17  18
ENDBRANCH  16  17
ENDBRANCH   3  16
TORSDOF 10
