REMARK  Name = 
REMARK  5 active torsions:
REMARK  status: ('A' for Active; 'I' for Inactive)
REMARK    1  A    between atoms: C_1  and  C_2
REMARK    2  A    between atoms: C_2  and  C_3
REMARK    3  A    between atoms: C_3  and  N_5
REMARK    4  A    between atoms: C_3  and  C_16
REMARK    5  A    between atoms: C_7  and  C_12
REMARK                            x       y       z     vdW  Elec       q    Type
REMARK                         _______ _______ _______ _____ _____    ______ ____
ROOT
ATOM      1  N   UNL     1       2.640   2.458   0.874  0.00  0.00    -0.289 N 
ATOM      2  C   UNL     1       3.159   3.721   1.103  0.00  0.00    +0.217 C 
ATOM      3  O   UNL     1       4.217   4.157   0.673  0.00  0.00    -0.276 OA
ATOM      4  C   UNL     1       2.206   4.470   2.004  0.00  0.00    +0.105 C 
ATOM      5  C   UNL     1       0.919   3.637   1.929  0.00  0.00    +0.043 C 
ATOM      6  C   UNL     1       1.439   2.229   1.643  0.00  0.00    +0.116 C 
ENDROOT
BRANCH   5   7
ATOM      7  C   UNL     1       0.001   4.105   0.821  0.00  0.00    +0.048 C 
ATOM      8  C   UNL     1      -1.283   4.431   0.995  0.00  0.00    +0.267 C 
ATOM      9  F   UNL     1      -2.022   4.806  -0.069  0.00  0.00    -0.173 F 
ATOM     10  F   UNL     1      -1.845   4.372   2.219  0.00  0.00    -0.173 F 
ENDBRANCH   5   7
BRANCH   1  11
ATOM     11  C   UNL     1       3.099   1.510  -0.156  0.00  0.00    +0.161 C 
BRANCH  11  12
ATOM     12  C   UNL     1       4.453   0.855   0.180  0.00  0.00    +0.231 C 
ATOM     13  O   UNL     1       4.617  -0.363   0.175  0.00  0.00    -0.274 OA
ATOM     14  N   UNL     1       5.512   1.688   0.370  0.00  0.00    -0.328 N 
ATOM     15  H   UNL     1       6.416   1.286   0.580  0.00  0.00    +0.145 HD
ATOM     16  H   UNL     1       5.386   2.698   0.451  0.00  0.00    +0.145 HD
ENDBRANCH  11  12
BRANCH  11  18
ATOM     17  C   UNL     1       3.472   1.252  -2.677  0.00  0.00    +0.006 C 
ATOM     18  C   UNL     1       3.083   2.181  -1.539  0.00  0.00    +0.028 C 
ENDBRANCH  11  18
ENDBRANCH   1  11
TORSDOF 4
