REMARK  Name = 
REMARK  10 active torsions:
REMARK  status: ('A' for Active; 'I' for Inactive)
REMARK    1  A    between atoms: C_1  and  C_2
REMARK    2  A    between atoms: C_2  and  C_3
REMARK    3  A    between atoms: C_4  and  C_5
REMARK    4  A    between atoms: C_5  and  C_6
REMARK    5  A    between atoms: C_10  and  N_14
REMARK    6  A    between atoms: N_14  and  C_15
REMARK    7  A    between atoms: C_15  and  C_16
REMARK    8  A    between atoms: C_16  and  O_18
REMARK    9  A    between atoms: C_16  and  C_19
REMARK   10  A    between atoms: C_27  and  O_28
REMARK                            x       y       z     vdW  Elec       q    Type
REMARK                         _______ _______ _______ _____ _____    ______ ____
ROOT
ATOM      1  C   UNL     1       6.658   4.380   6.630  0.00  0.00    +0.159 C 
ENDROOT
BRANCH   1   2
ATOM      2  C   UNL     1       6.340   4.150   5.157  0.00  0.00    -0.009 A 
ATOM      3  C   UNL     1       5.266   4.861   4.579  0.00  0.00    +0.010 A 
ATOM      4  C   UNL     1       4.915   4.692   3.237  0.00  0.00    +0.048 A 
ATOM      5  C   UNL     1       5.613   3.789   2.454  0.00  0.00    +0.141 A 
ATOM      6  C   UNL     1       6.688   3.068   2.987  0.00  0.00    +0.091 A 
ATOM      7  N   UNL     1       7.395   2.158   2.190  0.00  0.00    -0.319 N 
ATOM      8  H   UNL     1       7.168   1.988   1.221  0.00  0.00    +0.169 HD
ATOM      9  C   UNL     1       8.448   1.411   2.636  0.00  0.00    +0.249 A 
ATOM     10  O   UNL     1       9.032   0.600   1.922  0.00  0.00    -0.268 OA
ATOM     11  C   UNL     1       8.879   1.631   4.024  0.00  0.00    +0.071 A 
ATOM     12  C   UNL     1       8.240   2.500   4.819  0.00  0.00    +0.016 A 
ATOM     13  C   UNL     1       7.069   3.252   4.340  0.00  0.00    +0.008 A 
BRANCH   5  14
ATOM     14  O   UNL     1       5.189   3.666   1.162  0.00  0.00    -0.505 OA
ATOM     15  H   UNL     1       5.556   2.860   0.774  0.00  0.00    +0.292 HD
ENDBRANCH   5  14
ENDBRANCH   1   2
BRANCH   1  16
ATOM     16  O   UNL     1       6.308   5.721   7.023  0.00  0.00    -0.386 OA
ATOM     17  H   UNL     1       6.749   6.313   6.387  0.00  0.00    +0.210 HD
ENDBRANCH   1  16
BRANCH   1  18
ATOM     18  C   UNL     1       6.017   3.363   7.632  0.00  0.00    +0.117 C 
BRANCH  18  19
ATOM     19  N   UNL     1       4.536   3.355   7.642  0.00  0.00    -0.310 NA
ATOM     20  H   UNL     1       4.273   4.348   7.610  0.00  0.00    +0.122 HD
BRANCH  19  26
ATOM     21  C   UNL     1       2.000   1.014  12.607  0.00  0.00    -0.044 A 
ATOM     22  C   UNL     1       2.577   0.487  11.426  0.00  0.00    +0.007 A 
ATOM     23  C   UNL     1       2.827   1.353  10.364  0.00  0.00    -0.042 A 
ATOM     24  C   UNL     1       2.288   2.641  10.380  0.00  0.00    -0.042 A 
ATOM     25  C   UNL     1       2.549   3.333   9.085  0.00  0.00    +0.054 C 
ATOM     26  C   UNL     1       3.979   2.808   8.891  0.00  0.00    +0.062 C 
ATOM     27  C   UNL     1       1.877   3.216  11.558  0.00  0.00    +0.007 A 
ATOM     28  C   UNL     1       3.775   1.262   9.168  0.00  0.00    +0.054 C 
ATOM     29  C   UNL     1       1.833   2.426  12.710  0.00  0.00    -0.044 A 
BRANCH  21  31
ATOM     30  C   UNL     1       1.446  -1.337  13.615  0.00  0.00    +0.009 C 
ATOM     31  C   UNL     1       1.561   0.169  13.790  0.00  0.00    +0.032 C 
ENDBRANCH  21  31
BRANCH  29  32
ATOM     32  C   UNL     1       1.769   3.153  14.040  0.00  0.00    +0.032 C 
ATOM     33  C   UNL     1       3.172   3.408  14.599  0.00  0.00    +0.009 C 
ENDBRANCH  29  32
ENDBRANCH  19  26
ENDBRANCH  18  19
ENDBRANCH   1  18
TORSDOF 8
