REMARK  Name = 
REMARK  14 active torsions:
REMARK  status: ('A' for Active; 'I' for Inactive)
REMARK    1  A    between atoms: C_1  and  C_2
REMARK    2  A    between atoms: C_2  and  O_3
REMARK    3  A    between atoms: O_3  and  C_4
REMARK    4  A    between atoms: C_4  and  C_6
REMARK    5  A    between atoms: C_6  and  C_8
REMARK    6  A    between atoms: C_6  and  C_16
REMARK    7  A    between atoms: C_8  and  C_9
REMARK    8  A    between atoms: C_9  and  C_10
REMARK    9  A    between atoms: C_16  and  C_17
REMARK   10  A    between atoms: C_17  and  C_22
REMARK   11  A    between atoms: N_24  and  C_25
REMARK   12  A    between atoms: N_35  and  C_36
REMARK   13  A    between atoms: C_36  and  C_37
REMARK   14  A    between atoms: C_37  and  O_38
REMARK                            x       y       z     vdW  Elec       q    Type
REMARK                         _______ _______ _______ _____ _____    ______ ____
ROOT
ATOM      1  C   UNL     1       6.821  -1.519  -4.952  0.00  0.00    +0.220 C 
ATOM      2  N   UNL     1       7.267  -0.218  -4.826  0.00  0.00    -0.304 N 
ATOM      3  H   UNL     1       7.850   0.049  -4.038  0.00  0.00    +0.149 HD
ATOM      4  O   UNL     1       6.288  -1.920  -5.987  0.00  0.00    -0.275 OA
ENDROOT
BRANCH   2   5
ATOM      5  C   UNL     1       7.193   0.741  -5.942  0.00  0.00    +0.160 C 
ATOM      6  C   UNL     1       8.209   1.886  -5.701  0.00  0.00    +0.241 C 
ATOM      7  O   UNL     1       9.153   1.708  -4.912  0.00  0.00    -0.273 OA
ATOM      8  N   UNL     1       8.244   3.006  -6.515  0.00  0.00    -0.259 N 
ATOM      9  C   UNL     1       7.137   3.884  -6.695  0.00  0.00    +0.040 A 
ATOM     10  C   UNL     1       5.861   3.426  -7.047  0.00  0.00    -0.026 A 
ATOM     11  C   UNL     1       4.779   4.323  -7.087  0.00  0.00    +0.005 A 
ATOM     12  C   UNL     1       4.962   5.672  -6.807  0.00  0.00    +0.000 A 
ATOM     13  C   UNL     1       6.238   6.145  -6.520  0.00  0.00    +0.002 A 
ATOM     14  C   UNL     1       5.613   1.995  -7.412  0.00  0.00    +0.039 C 
ATOM     15  C   UNL     1       7.322   5.260  -6.478  0.00  0.00    +0.024 A 
ATOM     16  C   UNL     1       5.747   1.145  -6.169  0.00  0.00    +0.036 C 
BRANCH   8  17
ATOM     17  C   UNL     1       9.429   3.237  -7.359  0.00  0.00    +0.234 C 
BRANCH  17  18
ATOM     18  C   UNL     1      10.768   3.674  -6.770  0.00  0.00    +0.323 C 
ATOM     19  O   UNL     1      11.605   4.272  -7.439  0.00  0.00    -0.249 OA
BRANCH  18  20
ATOM     20  O   UNL     1      11.058   3.238  -5.530  0.00  0.00    -0.480 OA
ATOM     21  H   UNL     1      10.371   2.651  -5.133  0.00  0.00    +0.295 HD
ENDBRANCH  18  20
ENDBRANCH  17  18
ENDBRANCH   8  17
ENDBRANCH   2   5
BRANCH   1  22
ATOM     22  C   UNL     1       7.053  -2.427  -3.727  0.00  0.00    +0.048 C 
ATOM     23  C   UNL     1       6.624  -3.896  -3.977  0.00  0.00    +0.016 C 
ATOM     24  C   UNL     1       7.842  -4.693  -4.426  0.00  0.00    +0.001 C 
ATOM     25  C   UNL     1       8.971  -3.689  -4.518  0.00  0.00    +0.001 C 
ATOM     26  C   UNL     1       8.581  -2.591  -3.527  0.00  0.00    +0.016 C 
BRANCH  22  27
ATOM     27  C   UNL     1       6.326  -1.812  -2.486  0.00  0.00    +0.030 C 
BRANCH  27  28
ATOM     28  C   UNL     1       4.771  -1.630  -2.564  0.00  0.00    +0.099 C 
BRANCH  28  29
ATOM     29  C   UNL     1       4.298  -0.925  -1.299  0.00  0.00    +0.310 C 
ATOM     30  O   UNL     1       4.433  -1.381  -0.171  0.00  0.00    -0.251 OA
BRANCH  29  31
ATOM     31  O   UNL     1       3.663   0.244  -1.598  0.00  0.00    -0.465 OA
BRANCH  31  33
ATOM     32  C   UNL     1       1.686   0.481  -0.206  0.00  0.00    +0.048 C 
ATOM     33  C   UNL     1       3.104   0.954  -0.478  0.00  0.00    +0.229 C 
ENDBRANCH  31  33
ENDBRANCH  29  31
ENDBRANCH  28  29
BRANCH  28  34
ATOM     34  C   UNL     1       4.005  -2.960  -2.682  0.00  0.00    +0.019 C 
BRANCH  34  35
ATOM     35  C   UNL     1       2.475  -2.895  -2.645  0.00  0.00    +0.036 C 
BRANCH  35  36
ATOM     36  C   UNL     1       1.912  -4.289  -2.847  0.00  0.00    -0.047 A 
ATOM     37  C   UNL     1       1.717  -4.803  -4.137  0.00  0.00    +0.003 A 
ATOM     38  C   UNL     1       1.268  -6.114  -4.320  0.00  0.00    +0.000 A 
ATOM     39  C   UNL     1       1.014  -6.926  -3.216  0.00  0.00    +0.000 A 
ATOM     40  C   UNL     1       1.213  -6.429  -1.930  0.00  0.00    +0.000 A 
ATOM     41  C   UNL     1       1.662  -5.119  -1.745  0.00  0.00    +0.003 A 
ENDBRANCH  35  36
ENDBRANCH  34  35
ENDBRANCH  28  34
ENDBRANCH  27  28
ENDBRANCH  22  27
ENDBRANCH   1  22
TORSDOF 13
