REMARK  Name = 
REMARK  6 active torsions:
REMARK  status: ('A' for Active; 'I' for Inactive)
REMARK    1  A    between atoms: C_9  and  O_10
REMARK    2  A    between atoms: C_17  and  O_18
REMARK    3  A    between atoms: C_19  and  O_21
REMARK    4  A    between atoms: C_22  and  O_23
REMARK    5  A    between atoms: C_22  and  C_24
REMARK    6  A    between atoms: C_24  and  O_25
REMARK                            x       y       z     vdW  Elec       q    Type
REMARK                         _______ _______ _______ _____ _____    ______ ____
ROOT
ATOM      1  C   UNL     1       2.034  -0.014  -0.255  0.00  0.00    +0.189 C 
ATOM      2  C   UNL     1       3.431  -0.189  -0.881  0.00  0.00    +0.144 C 
ATOM      3  C   UNL     1       3.782   1.163  -1.547  0.00  0.00    +0.169 C 
ATOM      4  C   UNL     1       2.769   1.722  -2.587  0.00  0.00    +0.129 C 
ATOM      5  C   UNL     1       1.404   1.814  -1.890  0.00  0.00    +0.148 C 
ATOM      6  C   UNL     1       1.510   2.813  -0.729  0.00  0.00    +0.198 C 
ATOM      7  C   UNL     1       2.584   2.240   0.221  0.00  0.00    +0.131 C 
ATOM      8  O   UNL     1       2.782   3.076   1.203  0.00  0.00    -0.807 OA
ATOM      9  N   UNL     1       0.342   2.227  -2.829  0.00  0.00    -0.230 N 
ATOM     10  H   UNL     1      -0.384   2.843  -2.489  0.00  0.00    +0.245 HD
ATOM     11  C   UNL     1       0.162   1.422  -3.861  0.00  0.00    +0.329 C 
ATOM     12  N   UNL     1      -1.075   1.147  -4.278  0.00  0.00    -0.254 N 
ATOM     13  H   UNL     1      -1.848   1.449  -3.700  0.00  0.00    +0.241 HD
ATOM     14  H   UNL     1      -1.263   0.436  -4.972  0.00  0.00    +0.241 HD
ATOM     15  N   UNL     1       1.233   0.823  -4.413  0.00  0.00    -0.256 N 
ATOM     16  H   UNL     1       1.123   0.170  -5.175  0.00  0.00    +0.260 HD
ATOM     17  C   UNL     1       2.594   1.118  -3.990  0.00  0.00    +0.284 C 
ATOM     18  O   UNL     1       3.838   2.112  -0.470  0.00  0.00    -0.353 OA
ATOM     19  C   UNL     1       1.073   0.373  -1.382  0.00  0.00    +0.187 C 
ATOM     20  O   UNL     1       2.104   1.003   0.744  0.00  0.00    -0.351 OA
ENDROOT
BRANCH   2  21
ATOM     21  O   UNL     1       3.406  -1.244  -1.862  0.00  0.00    -0.381 OA
ATOM     22  H   UNL     1       3.545  -2.056  -1.322  0.00  0.00    +0.210 HD
ENDBRANCH   2  21
BRANCH   6  23
ATOM     23  O   UNL     1       1.905   4.101  -1.248  0.00  0.00    -0.384 OA
ATOM     24  H   UNL     1       2.564   4.373  -0.560  0.00  0.00    +0.210 HD
ENDBRANCH   6  23
BRANCH  17  25
ATOM     25  O   UNL     1       3.303  -0.063  -4.272  0.00  0.00    -0.360 OA
ATOM     26  H   UNL     1       3.411  -0.589  -3.453  0.00  0.00    +0.213 HD
ENDBRANCH  17  25
BRANCH  19  27
ATOM     27  O   UNL     1      -0.318   0.245  -1.073  0.00  0.00    -0.385 OA
ATOM     28  H   UNL     1      -0.457  -0.690  -0.828  0.00  0.00    +0.210 HD
ENDBRANCH  19  27
BRANCH   2  29
ATOM     29  C   UNL     1       4.429  -0.583   0.236  0.00  0.00    +0.195 C 
BRANCH  29  30
ATOM     30  O   UNL     1       4.085  -1.903   0.694  0.00  0.00    -0.392 OA
ATOM     31  H   UNL     1       4.291  -1.903   1.654  0.00  0.00    +0.210 HD
ENDBRANCH  29  30
ENDBRANCH   2  29
TORSDOF 6
