REMARK  Name = 
REMARK  6 active torsions:
REMARK  status: ('A' for Active; 'I' for Inactive)
REMARK    1  A    between atoms: C_1  and  C_2
REMARK    2  A    between atoms: C_2  and  C_3
REMARK    3  A    between atoms: C_6  and  O_7
REMARK    4  A    between atoms: C_24  and  O_25
REMARK    5  A    between atoms: C_24  and  C_26
REMARK    6  A    between atoms: C_26  and  C_27
REMARK                            x       y       z     vdW  Elec       q    Type
REMARK                         _______ _______ _______ _____ _____    ______ ____
ROOT
ATOM      1  C   UNL     1       2.859  -1.308  -0.752  0.00  0.00    -0.031 A 
ATOM      2  C   UNL     1       2.453  -2.557  -0.298  0.00  0.00    +0.003 A 
ATOM      3  C   UNL     1       1.610  -2.883   0.888  0.00  0.00    +0.163 C 
ATOM      4  N   UNL     1       1.555  -4.333   0.854  0.00  0.00    -0.302 N 
ATOM      5  C   UNL     1       0.844  -5.047   1.771  0.00  0.00    +0.259 A 
ATOM      6  O   UNL     1       0.206  -4.538   2.687  0.00  0.00    -0.267 OA
ATOM      7  C   UNL     1       0.880  -6.524   1.587  0.00  0.00    +0.061 A 
ATOM      8  C   UNL     1       0.064  -7.264   2.578  0.00  0.00    +0.273 C 
ATOM      9  O   UNL     1       0.171  -8.691   2.511  0.00  0.00    -0.457 OA
ATOM     10  C   UNL     1       0.767  -9.372   1.515  0.00  0.00    +0.344 C 
ATOM     11  C   UNL     1       1.526  -8.589   0.395  0.00  0.00    +0.188 C 
ATOM     12  O   UNL     1       0.663 -10.599   1.491  0.00  0.00    -0.247 OA
ATOM     13  C   UNL     1       1.572  -7.082   0.577  0.00  0.00    +0.008 A 
ATOM     14  C   UNL     1       2.274  -6.203  -0.388  0.00  0.00    +0.035 A 
ATOM     15  C   UNL     1       2.252  -4.868  -0.216  0.00  0.00    +0.071 A 
ATOM     16  C   UNL     1       2.829  -3.724  -0.961  0.00  0.00    +0.093 A 
ATOM     17  N   UNL     1       3.592  -3.744  -2.062  0.00  0.00    -0.245 NA
ATOM     18  C   UNL     1       4.020  -2.538  -2.518  0.00  0.00    +0.072 A 
ATOM     19  C   UNL     1       4.818  -2.493  -3.661  0.00  0.00    +0.032 A 
ATOM     20  C   UNL     1       5.319  -1.294  -4.178  0.00  0.00    +0.047 A 
ATOM     21  C   UNL     1       5.025  -0.099  -3.547  0.00  0.00    +0.118 A 
ATOM     22  C   UNL     1       4.223  -0.087  -2.417  0.00  0.00    +0.055 A 
ATOM     23  C   UNL     1       3.696  -1.290  -1.886  0.00  0.00    +0.007 A 
ENDROOT
BRANCH   1  25
ATOM     24  C   UNL     1       3.373   0.343   1.087  0.00  0.00    +0.009 C 
ATOM     25  C   UNL     1       2.406  -0.069  -0.013  0.00  0.00    +0.033 C 
ENDBRANCH   1  25
BRANCH  11  26
ATOM     26  O   UNL     1       0.836  -8.808  -0.852  0.00  0.00    -0.373 OA
ATOM     27  H   UNL     1      -0.093  -9.016  -0.645  0.00  0.00    +0.211 HD
ENDBRANCH  11  26
BRANCH  11  28
ATOM     28  C   UNL     1       2.909  -9.274   0.233  0.00  0.00    +0.048 C 
ATOM     29  C   UNL     1       3.793  -9.302   1.474  0.00  0.00    +0.007 C 
ENDBRANCH  11  28
BRANCH  21  30
ATOM     30  O   UNL     1       5.541   1.053  -4.067  0.00  0.00    -0.507 OA
ATOM     31  H   UNL     1       5.259   1.806  -3.522  0.00  0.00    +0.292 HD
ENDBRANCH  21  30
TORSDOF 4
