REMARK  Name = 
REMARK  42 active torsions:
REMARK  status: ('A' for Active; 'I' for Inactive)
REMARK    1  A    between atoms: C_1  and  C_2
REMARK    2  A    between atoms: C_2  and  C_3
REMARK    3  A    between atoms: C_3  and  C_4
REMARK    4  A    between atoms: C_4  and  N_6
REMARK    5  A    between atoms: C_4  and  C_46
REMARK    6  A    between atoms: C_7  and  C_9
REMARK    7  A    between atoms: C_9  and  N_11
REMARK    8  A    between atoms: C_9  and  C_42
REMARK    9  A    between atoms: C_12  and  C_14
REMARK   10  A    between atoms: C_14  and  N_16
REMARK   11  A    between atoms: C_14  and  C_37
REMARK   12  A    between atoms: C_17  and  C_19
REMARK   13  A    between atoms: C_19  and  N_21
REMARK   14  A    between atoms: C_19  and  C_34
REMARK   15  A    between atoms: C_22  and  C_24
REMARK   16  A    between atoms: C_24  and  N_25
REMARK   17  A    between atoms: C_26  and  C_28
REMARK   18  A    between atoms: C_28  and  N_29
REMARK   19  A    between atoms: N_29  and  C_30
REMARK   20  A    between atoms: C_31  and  C_32
REMARK   21  A    between atoms: C_34  and  C_35
REMARK   22  A    between atoms: C_34  and  C_36
REMARK   23  A    between atoms: C_37  and  C_39
REMARK   24  A    between atoms: C_37  and  C_40
REMARK   25  A    between atoms: C_40  and  C_41
REMARK   26  A    between atoms: C_42  and  C_44
REMARK   27  A    between atoms: C_42  and  O_45
REMARK   28  A    between atoms: N_48  and  C_49
REMARK   29  A    between atoms: C_49  and  C_51
REMARK   30  A    between atoms: C_49  and  C_56
REMARK   31  A    between atoms: C_51  and  C_53
REMARK   32  A    between atoms: C_51  and  C_54
REMARK   33  A    between atoms: C_54  and  C_55
REMARK   34  A    between atoms: N_58  and  C_59
REMARK   35  A    between atoms: C_59  and  C_61
REMARK   36  A    between atoms: C_59  and  C_68
REMARK   37  A    between atoms: C_61  and  C_62
REMARK   38  A    between atoms: C_62  and  C_63
REMARK   39  A    between atoms: C_63  and  N_64
REMARK   40  A    between atoms: C_74  and  C_76
REMARK   41  A    between atoms: N_78  and  C_79
REMARK   42  A    between atoms: C_79  and  C_80
REMARK                            x       y       z     vdW  Elec       q    Type
REMARK                         _______ _______ _______ _____ _____    ______ ____
ROOT
ATOM      1  C   UNL     1      13.065   0.431   1.998  0.00  0.00    +0.159 C 
ENDROOT
BRANCH   1   2
ATOM      2  N   UNL     1      11.591   0.529   1.930  0.00  0.00    -0.302 N 
ATOM      3  H   UNL     1      11.165   0.202   1.066  0.00  0.00    +0.150 HD
ATOM      4  C   UNL     1      10.819   1.231   2.836  0.00  0.00    +0.236 C 
ATOM      5  O   UNL     1      11.305   1.743   3.846  0.00  0.00    -0.274 OA
BRANCH   4   6
ATOM      6  C   UNL     1       9.281   1.242   2.565  0.00  0.00    +0.187 C 
BRANCH   6   7
ATOM      7  N   UNL     1       8.702   0.052   3.176  0.00  0.00    -0.300 N 
ATOM      8  H   UNL     1       8.935  -0.081   4.163  0.00  0.00    +0.150 HD
ATOM      9  C   UNL     1       7.549  -0.558   2.746  0.00  0.00    +0.234 C 
ATOM     10  O   UNL     1       7.013  -0.275   1.676  0.00  0.00    -0.274 OA
BRANCH   9  11
ATOM     11  C   UNL     1       7.046  -1.743   3.628  0.00  0.00    +0.162 C 
BRANCH  11  12
ATOM     12  N   UNL     1       6.627  -1.401   5.010  0.00  0.00    -0.302 N 
ATOM     13  H   UNL     1       5.634  -1.343   5.200  0.00  0.00    +0.150 HD
ATOM     14  C   UNL     1       7.478  -0.861   5.946  0.00  0.00    +0.234 C 
ATOM     15  O   UNL     1       8.657  -0.662   5.641  0.00  0.00    -0.274 OA
BRANCH  14  16
ATOM     16  C   UNL     1       6.955  -0.549   7.361  0.00  0.00    +0.161 C 
BRANCH  16  17
ATOM     17  N   UNL     1       6.914  -1.775   8.162  0.00  0.00    -0.302 N 
ATOM     18  H   UNL     1       7.765  -2.323   8.250  0.00  0.00    +0.150 HD
ATOM     19  C   UNL     1       5.757  -2.258   8.732  0.00  0.00    +0.231 C 
ATOM     20  O   UNL     1       4.646  -1.783   8.510  0.00  0.00    -0.274 OA
BRANCH  19  21
ATOM     21  C   UNL     1       5.938  -3.511   9.594  0.00  0.00    +0.200 C 
BRANCH  21  22
ATOM     22  N   UNL     1       5.761  -4.707   8.790  0.00  0.00    -0.305 N 
ATOM     23  H   UNL     1       4.824  -4.906   8.459  0.00  0.00    +0.149 HD
ATOM     24  C   UNL     1       6.843  -5.374   8.249  0.00  0.00    +0.231 C 
ATOM     25  O   UNL     1       7.992  -4.972   8.413  0.00  0.00    -0.274 OA
BRANCH  24  26
ATOM     26  C   UNL     1       6.460  -6.593   7.376  0.00  0.00    +0.203 C 
BRANCH  26  27
ATOM     27  N   UNL     1       7.464  -7.662   7.274  0.00  0.00    -0.296 N 
ATOM     28  C   UNL     1       7.289  -9.008   7.556  0.00  0.00    +0.213 C 
ATOM     29  O   UNL     1       8.205  -9.823   7.395  0.00  0.00    -0.276 OA
ATOM     30  C   UNL     1       5.954  -9.532   8.022  0.00  0.00    +0.109 C 
ATOM     31  C   UNL     1       8.756  -7.307   6.702  0.00  0.00    +0.132 C 
ENDBRANCH  26  27
ENDBRANCH  24  26
ENDBRANCH  21  22
ENDBRANCH  19  21
ENDBRANCH  16  17
BRANCH  16  32
ATOM     32  C   UNL     1       7.840   0.552   8.036  0.00  0.00    +0.012 C 
ATOM     33  C   UNL     1       9.324   0.193   8.233  0.00  0.00    +0.009 C 
ATOM     34  C   UNL     1       7.288   0.980   9.399  0.00  0.00    +0.009 C 
ENDBRANCH  16  32
ENDBRANCH  14  16
ENDBRANCH  11  12
BRANCH  11  35
ATOM     35  C   UNL     1       8.028  -2.944   3.444  0.00  0.00    +0.015 C 
ATOM     36  C   UNL     1       9.381  -2.855   4.162  0.00  0.00    +0.010 C 
BRANCH  35  37
ATOM     37  C   UNL     1       7.339  -4.290   3.741  0.00  0.00    +0.002 C 
ATOM     38  C   UNL     1       8.284  -5.472   3.546  0.00  0.00    +0.004 C 
ENDBRANCH  35  37
ENDBRANCH  11  35
ENDBRANCH   9  11
ENDBRANCH   6   7
BRANCH   6  39
ATOM     39  C   UNL     1       8.632   2.518   3.173  0.00  0.00    +0.141 C 
ATOM     40  C   UNL     1       7.132   2.615   2.903  0.00  0.00    +0.040 C 
BRANCH  39  41
ATOM     41  O   UNL     1       8.785   2.566   4.601  0.00  0.00    -0.390 OA
ATOM     42  H   UNL     1       9.743   2.454   4.785  0.00  0.00    +0.210 HD
ENDBRANCH  39  41
ENDBRANCH   6  39
ENDBRANCH   4   6
ENDBRANCH   1   2
BRANCH   1  43
ATOM     43  C   UNL     1      13.627   0.194   0.559  0.00  0.00    +0.234 C 
ATOM     44  N   UNL     1      14.994   0.069   0.437  0.00  0.00    -0.302 N 
ATOM     45  H   UNL     1      15.594   0.098   1.256  0.00  0.00    +0.150 HD
ATOM     46  O   UNL     1      12.879   0.151  -0.420  0.00  0.00    -0.274 OA
BRANCH  44  47
ATOM     47  C   UNL     1      15.683  -0.171  -0.850  0.00  0.00    +0.162 C 
BRANCH  47  48
ATOM     48  C   UNL     1      16.957  -0.998  -0.539  0.00  0.00    +0.234 C 
ATOM     49  N   UNL     1      17.396  -1.872  -1.516  0.00  0.00    -0.302 N 
ATOM     50  H   UNL     1      16.893  -1.966  -2.393  0.00  0.00    +0.150 HD
ATOM     51  O   UNL     1      17.568  -0.838   0.519  0.00  0.00    -0.274 OA
BRANCH  49  52
ATOM     52  C   UNL     1      18.678  -2.587  -1.398  0.00  0.00    +0.159 C 
BRANCH  52  53
ATOM     53  C   UNL     1      19.125  -3.187  -2.770  0.00  0.00    +0.237 C 
ATOM     54  N   UNL     1      20.434  -3.617  -2.920  0.00  0.00    -0.288 N 
ATOM     55  C   UNL     1      20.980  -4.027  -4.236  0.00  0.00    +0.162 C 
ATOM     56  C   UNL     1      22.428  -3.489  -4.233  0.00  0.00    +0.033 C 
ATOM     57  C   UNL     1      22.591  -2.735  -2.918  0.00  0.00    +0.021 C 
ATOM     58  C   UNL     1      21.534  -3.334  -2.013  0.00  0.00    +0.109 C 
ATOM     59  O   UNL     1      18.302  -3.306  -3.687  0.00  0.00    -0.274 OA
BRANCH  55  60
ATOM     60  C   UNL     1      21.029  -5.551  -4.523  0.00  0.00    +0.234 C 
ATOM     61  N   UNL     1      20.059  -6.313  -3.925  0.00  0.00    -0.314 N 
ATOM     62  H   UNL     1      19.231  -5.840  -3.594  0.00  0.00    +0.149 HD
ATOM     63  O   UNL     1      21.847  -6.040  -5.310  0.00  0.00    -0.274 OA
BRANCH  61  64
ATOM     64  C   UNL     1      20.041  -7.761  -4.036  0.00  0.00    +0.101 C 
ATOM     65  C   UNL     1      19.227  -8.242  -5.222  0.00  0.00    +0.024 C 
ENDBRANCH  61  64
ENDBRANCH  55  60
ENDBRANCH  52  53
BRANCH  52  66
ATOM     66  C   UNL     1      18.682  -3.621  -0.252  0.00  0.00    +0.035 C 
BRANCH  66  67
ATOM     67  C   UNL     1      17.543  -4.649  -0.251  0.00  0.00    +0.043 C 
BRANCH  67  68
ATOM     68  C   UNL     1      17.627  -5.664  -1.382  0.00  0.00    +0.243 C 
BRANCH  68  69
ATOM     69  N   UNL     1      16.471  -6.549  -1.364  0.00  0.00    -0.114 NA
ATOM     70  C   UNL     1      15.416  -6.199  -1.998  0.00  0.00    +0.376 C 
ATOM     71  N   UNL     1      14.340  -7.014  -1.989  0.00  0.00    -0.289 N 
ATOM     72  H   UNL     1      13.482  -6.518  -1.779  0.00  0.00    +0.255 HD
ATOM     73  H   UNL     1      14.489  -7.764  -1.321  0.00  0.00    +0.255 HD
ATOM     74  N   UNL     1      15.142  -5.088  -2.718  0.00  0.00    -0.289 N 
ATOM     75  H   UNL     1      14.527  -5.274  -3.499  0.00  0.00    +0.255 HD
ATOM     76  H   UNL     1      15.950  -4.556  -3.022  0.00  0.00    +0.255 HD
ENDBRANCH  68  69
ENDBRANCH  67  68
ENDBRANCH  66  67
ENDBRANCH  52  66
ENDBRANCH  49  52
ENDBRANCH  47  48
BRANCH  47  77
ATOM     77  C   UNL     1      16.017   1.170  -1.569  0.00  0.00    +0.015 C 
ATOM     78  C   UNL     1      16.942   2.070  -0.729  0.00  0.00    +0.010 C 
BRANCH  77  79
ATOM     79  C   UNL     1      16.636   1.002  -2.974  0.00  0.00    +0.002 C 
ATOM     80  C   UNL     1      15.719   0.323  -3.979  0.00  0.00    +0.004 C 
ENDBRANCH  77  79
ENDBRANCH  47  77
ENDBRANCH  44  47
ENDBRANCH   1  43
BRANCH   1  81
ATOM     81  C   UNL     1      13.537  -0.632   3.011  0.00  0.00    +0.031 C 
BRANCH  81  83
ATOM     82  C   UNL     1      13.600  -3.074   3.681  0.00  0.00    +0.004 C 
ATOM     83  C   UNL     1      13.096  -2.058   2.665  0.00  0.00    -0.001 C 
ENDBRANCH  81  83
ENDBRANCH   1  81
TORSDOF 31
