REMARK  Name = 
REMARK  12 active torsions:
REMARK  status: ('A' for Active; 'I' for Inactive)
REMARK    1  A    between atoms: C_1  and  C_2
REMARK    2  A    between atoms: C_2  and  C_3
REMARK    3  A    between atoms: C_4  and  C_5
REMARK    4  A    between atoms: C_6  and  C_7
REMARK    5  A    between atoms: C_11  and  C_12
REMARK    6  A    between atoms: C_11  and  C_13
REMARK    7  A    between atoms: C_14  and  C_15
REMARK    8  A    between atoms: C_16  and  C_17
REMARK    9  A    between atoms: C_17  and  C_18
REMARK   10  A    between atoms: C_19  and  C_20
REMARK   11  A    between atoms: N_22  and  C_23
REMARK   12  A    between atoms: C_26  and  O_27
REMARK                            x       y       z     vdW  Elec       q    Type
REMARK                         _______ _______ _______ _____ _____    ______ ____
ROOT
ATOM      1  C   UNL     1       2.306  -2.526  -0.590  0.00  0.00    +0.001 C 
ATOM      2  C   UNL     1       2.934  -3.686  -0.840  0.00  0.00    +0.003 C 
ENDROOT
BRANCH   1   5
ATOM      3  C   UNL     1       0.802  -0.060  -0.052  0.00  0.00    +0.044 C 
ATOM      4  C   UNL     1       2.314  -0.097  -0.045  0.00  0.00    -0.050 C 
ATOM      5  C   UNL     1       2.964  -1.258  -0.299  0.00  0.00    +0.003 C 
BRANCH   4   6
ATOM      6  C   UNL     1       3.073   1.136   0.233  0.00  0.00    +0.003 C 
ATOM      7  C   UNL     1       2.569   2.345   0.547  0.00  0.00    +0.004 C 
BRANCH   7   8
ATOM      8  C   UNL     1       3.334   3.577   0.806  0.00  0.00    -0.043 C 
ATOM      9  C   UNL     1       3.019   4.766  -0.130  0.00  0.00    -0.010 C 
ATOM     10  C   UNL     1       3.209   4.332  -1.607  0.00  0.00    +0.016 C 
ATOM     11  C   UNL     1       1.549   5.224   0.053  0.00  0.00    +0.016 C 
ATOM     12  C   UNL     1       3.920   6.024   0.056  0.00  0.00    +0.011 C 
ATOM     13  C   UNL     1       4.720   6.173   1.337  0.00  0.00    +0.005 C 
ATOM     14  C   UNL     1       4.958   4.930   2.174  0.00  0.00    +0.031 C 
ATOM     15  C   UNL     1       4.193   3.677   1.844  0.00  0.00    -0.069 C 
ATOM     16  C   UNL     1       4.484   2.578   2.844  0.00  0.00    +0.039 C 
ENDBRANCH   7   8
ENDBRANCH   4   6
ENDBRANCH   1   5
BRANCH   2  17
ATOM     17  C   UNL     1       2.230  -4.943  -1.087  0.00  0.00    -0.046 C 
ATOM     18  C   UNL     1       1.326  -5.079  -2.085  0.00  0.00    +0.071 C 
ATOM     19  C   UNL     1       2.600  -6.058  -0.135  0.00  0.00    +0.044 C 
BRANCH  18  20
ATOM     20  C   UNL     1       0.698  -6.400  -2.393  0.00  0.00    +0.241 C 
ATOM     21  N   UNL     1      -0.542  -6.316  -3.004  0.00  0.00    -0.282 N 
ATOM     22  H   UNL     1      -0.850  -5.422  -3.357  0.00  0.00    +0.155 HD
ATOM     23  O   UNL     1       1.295  -7.437  -2.145  0.00  0.00    -0.270 OA
BRANCH  21  24
ATOM     24  C   UNL     1      -1.362  -7.440  -3.291  0.00  0.00    +0.034 A 
ATOM     25  C   UNL     1      -2.401  -7.304  -4.210  0.00  0.00    +0.027 A 
ATOM     26  C   UNL     1      -3.194  -8.413  -4.551  0.00  0.00    +0.047 A 
ATOM     27  C   UNL     1      -2.964  -9.645  -3.950  0.00  0.00    +0.117 A 
ATOM     28  C   UNL     1      -1.970  -9.785  -2.997  0.00  0.00    +0.047 A 
ATOM     29  C   UNL     1      -1.178  -8.683  -2.667  0.00  0.00    +0.027 A 
BRANCH  27  30
ATOM     30  O   UNL     1      -3.736 -10.704  -4.324  0.00  0.00    -0.507 OA
ATOM     31  H   UNL     1      -3.400 -11.502  -3.877  0.00  0.00    +0.292 HD
ENDBRANCH  27  30
ENDBRANCH  21  24
ENDBRANCH  18  20
ENDBRANCH   2  17
TORSDOF 7
