REMARK  Name = 
REMARK  13 active torsions:
REMARK  status: ('A' for Active; 'I' for Inactive)
REMARK    1  A    between atoms: C_7  and  C_8
REMARK    2  A    between atoms: C_8  and  C_9
REMARK    3  A    between atoms: C_9  and  C_10
REMARK    4  A    between atoms: C_9  and  C_13
REMARK    5  A    between atoms: C_10  and  C_11
REMARK    6  A    between atoms: C_16  and  C_19
REMARK    7  A    between atoms: N_21  and  CA_22
REMARK    8  A    between atoms: CA_22  and  CB_24
REMARK    9  A    between atoms: CA_22  and  C_29
REMARK   10  A    between atoms: CB_24  and  CG_25
REMARK   11  A    between atoms: CG_25  and  CD_26
REMARK   12  A    between atoms: CD_26  and  OE1_27
REMARK   13  A    between atoms: C_29  and  O_30
REMARK                            x       y       z     vdW  Elec       q    Type
REMARK                         _______ _______ _______ _____ _____    ______ ____
ROOT
ATOM      1  C   UNK A   0       9.354  -0.251   0.248  0.00  0.00    +0.037 C 
ENDROOT
BRANCH   1   2
ATOM      2  C   UNK A   0      10.882  -0.260   0.166  0.00  0.00    -0.043 A 
ATOM      3  C   UNK A   0      11.635  -1.443   0.201  0.00  0.00    +0.005 A 
ATOM      4  C   UNK A   0      12.996  -1.436  -0.114  0.00  0.00    +0.013 A 
ATOM      5  C   UNK A   0      13.633  -0.234  -0.423  0.00  0.00    +0.037 A 
ATOM      6  C   UNK A   0      12.926   0.969  -0.325  0.00  0.00    +0.013 A 
ATOM      7  C   UNK A   0      11.558   0.953  -0.037  0.00  0.00    +0.005 A 
BRANCH   5   8
ATOM      8  C   UNK A   0      15.059  -0.268  -0.833  0.00  0.00    +0.245 C 
ATOM      9  N   GLU A   1      15.464   0.707  -1.731  0.00  0.00    -0.298 N 
ATOM     10  H   GLU A   1      14.741   1.175  -2.270  0.00  0.00    +0.150 HD
ATOM     11  O   UNK A   0      15.822  -1.110  -0.381  0.00  0.00    -0.270 OA
BRANCH   9  12
ATOM     12  CA  GLU A   1      16.831   0.685  -2.297  0.00  0.00    +0.182 C 
BRANCH  12  13
ATOM     13  C   GLU A   1      17.807   1.402  -1.336  0.00  0.00    +0.325 C 
ATOM     14  OXT GLU A   1      19.012   1.500  -1.529  0.00  0.00    -0.249 OA
BRANCH  13  15
ATOM     15  O   GLU A   1      17.209   1.982  -0.272  0.00  0.00    -0.479 OA
ATOM     16  H   GLU A   1      16.268   1.720  -0.262  0.00  0.00    +0.295 HD
ENDBRANCH  13  15
ENDBRANCH  12  13
BRANCH  12  17
ATOM     17  CB  GLU A   1      16.837   1.326  -3.696  0.00  0.00    +0.045 C 
BRANCH  17  18
ATOM     18  CG  GLU A   1      18.206   1.290  -4.385  0.00  0.00    +0.123 C 
BRANCH  18  19
ATOM     19  CD  GLU A   1      18.167   1.846  -5.788  0.00  0.00    +0.305 C 
ATOM     20  OE2 GLU A   1      17.167   2.269  -6.348  0.00  0.00    -0.251 OA
BRANCH  19  21
ATOM     21  OE1 GLU A   1      19.386   1.842  -6.373  0.00  0.00    -0.481 OA
ATOM     22  HE1 GLU A   1      20.100   1.504  -5.795  0.00  0.00    +0.295 HD
ENDBRANCH  19  21
ENDBRANCH  18  19
ENDBRANCH  17  18
ENDBRANCH  12  17
ENDBRANCH   9  12
ENDBRANCH   5   8
ENDBRANCH   1   2
BRANCH   1  23
ATOM     23  C   UNK A   0       8.668  -1.531  -0.348  0.00  0.00    +0.066 C 
BRANCH  23  37
ATOM     24  N   UNK A   0      12.677  -2.736  -6.691  0.00  0.00    -0.327 N 
ATOM     25  H   UNK A   0      13.252  -3.550  -6.849  0.00  0.00    +0.145 HD
ATOM     26  H   UNK A   0      12.135  -2.373  -7.462  0.00  0.00    +0.145 HD
ATOM     27  C   UNK A   0      11.924  -2.855  -5.546  0.00  0.00    +0.216 A 
ATOM     28  N   UNK A   0      12.353  -3.709  -4.622  0.00  0.00    -0.198 NA
ATOM     29  C   UNK A   0      11.682  -3.718  -3.462  0.00  0.00    +0.149 A 
ATOM     30  N   UNK A   0      12.149  -4.634  -2.504  0.00  0.00    -0.341 N 
ATOM     31  H   UNK A   0      13.043  -5.006  -2.809  0.00  0.00    +0.144 HD
ATOM     32  H   UNK A   0      12.159  -4.218  -1.578  0.00  0.00    +0.144 HD
ATOM     33  C   UNK A   0      10.591  -2.901  -3.185  0.00  0.00    +0.148 A 
ATOM     34  C   UNK A   0      10.216  -2.084  -4.255  0.00  0.00    +0.185 A 
ATOM     35  N   UNK A   0       9.220  -1.205  -4.084  0.00  0.00    -0.232 NA
ATOM     36  C   UNK A   0       8.688  -1.076  -2.843  0.00  0.00    +0.136 A 
ATOM     37  C   UNK A   0       9.095  -1.843  -1.768  0.00  0.00    +0.061 A 
ATOM     38  N   UNK A   0      10.010  -2.820  -1.948  0.00  0.00    -0.243 NA
ATOM     39  N   UNK A   0      10.852  -2.080  -5.423  0.00  0.00    -0.193 NA
ENDBRANCH  23  37
ENDBRANCH   1  23
BRANCH   1  40
ATOM     40  C   UNK A   0       8.874   0.086   1.693  0.00  0.00    +0.097 C 
BRANCH  40  41
ATOM     41  C   UNK A   0       7.361   0.223   1.682  0.00  0.00    -0.105 C 
ATOM     42  C   UNK A   0       6.062   0.340   1.673  0.00  0.00    +0.004 C 
ENDBRANCH  40  41
ENDBRANCH   1  40
TORSDOF 13
