REMARK  Name = 
REMARK  10 active torsions:
REMARK  status: ('A' for Active; 'I' for Inactive)
REMARK    1  A    between atoms: C_1  and  C_2
REMARK    2  A    between atoms: C_2  and  C_3
REMARK    3  A    between atoms: C_8  and  N_9
REMARK    4  A    between atoms: C_10  and  C_11
REMARK    5  A    between atoms: C_16  and  C_17
REMARK    6  A    between atoms: C_16  and  C_18
REMARK    7  A    between atoms: N_21  and  C_22
REMARK    8  A    between atoms: C_22  and  C_23
REMARK    9  A    between atoms: C_23  and  N_24
REMARK   10  A    between atoms: C_25  and  C_26
REMARK                            x       y       z     vdW  Elec       q    Type
REMARK                         _______ _______ _______ _____ _____    ______ ____
ROOT
ATOM      1  C   UNL     1       3.843  -1.132  -2.543  0.00  0.00    -0.011 A 
ATOM      2  C   UNL     1       5.094  -1.625  -2.995  0.00  0.00    +0.033 A 
ATOM      3  C   UNL     1       5.383  -2.993  -3.184  0.00  0.00    +0.050 A 
ATOM      4  C   UNL     1       4.433  -3.907  -2.705  0.00  0.00    +0.030 A 
ATOM      5  S   UNL     1       4.693  -5.660  -2.626  0.00  0.00    -0.108 S 
ATOM      6  C   UNL     1       5.872  -5.821  -3.989  0.00  0.00    +0.092 C 
ATOM      7  C   UNL     1       6.993  -4.781  -3.862  0.00  0.00    +0.236 C 
ATOM      8  O   UNL     1       8.175  -5.100  -4.032  0.00  0.00    -0.274 OA
ATOM      9  C   UNL     1       6.430  -7.249  -3.926  0.00  0.00    +0.032 C 
ATOM     10  C   UNL     1       5.168  -5.623  -5.343  0.00  0.00    +0.032 C 
ATOM     11  C   UNL     1       3.187  -3.459  -2.257  0.00  0.00    +0.017 A 
ATOM     12  N   UNL     1       6.614  -3.430  -3.793  0.00  0.00    -0.268 N 
ATOM     13  C   UNL     1       2.877  -2.100  -2.251  0.00  0.00    +0.010 A 
ENDROOT
BRANCH   1  15
ATOM     14  C   UNL     1       2.809   0.906  -1.356  0.00  0.00    +0.056 A 
ATOM     15  C   UNL     1       3.582   0.339  -2.388  0.00  0.00    +0.043 A 
ATOM     16  C   UNL     1       4.113   1.302  -3.265  0.00  0.00    +0.129 A 
ATOM     17  N   UNL     1       3.928   2.628  -3.144  0.00  0.00    -0.199 NA
ATOM     18  C   UNL     1       3.180   3.044  -2.132  0.00  0.00    +0.214 A 
ATOM     19  N   UNL     1       2.958   4.397  -1.995  0.00  0.00    -0.327 N 
ATOM     20  H   UNL     1       3.069   4.854  -2.886  0.00  0.00    +0.145 HD
ATOM     21  H   UNL     1       2.090   4.546  -1.496  0.00  0.00    +0.145 HD
ATOM     22  N   UNL     1       2.588   2.240  -1.260  0.00  0.00    -0.219 NA
BRANCH  16  23
ATOM     23  N   UNL     1       4.939   0.979  -4.342  0.00  0.00    -0.343 N 
ATOM     24  H   UNL     1       4.537   0.289  -4.967  0.00  0.00    +0.144 HD
ATOM     25  H   UNL     1       5.165   1.839  -4.835  0.00  0.00    +0.144 HD
ENDBRANCH  16  23
BRANCH  14  27
ATOM     26  C   UNL     1       1.834   0.872   1.016  0.00  0.00    +0.010 C 
ATOM     27  C   UNL     1       2.096   0.110  -0.282  0.00  0.00    +0.053 C 
ENDBRANCH  14  27
ENDBRANCH   1  15
BRANCH  12  28
ATOM     28  C   UNL     1       7.489  -2.506  -4.542  0.00  0.00    +0.132 C 
BRANCH  28  29
ATOM     29  C   UNL     1       7.517  -2.850  -6.053  0.00  0.00    +0.123 C 
BRANCH  29  30
ATOM     30  N   UNL     1       8.308  -1.935  -6.855  0.00  0.00    -0.314 N 
ATOM     31  H   UNL     1       9.271  -2.179  -7.048  0.00  0.00    +0.149 HD
ATOM     32  C   UNL     1       7.759  -0.813  -7.430  0.00  0.00    +0.210 C 
ATOM     33  O   UNL     1       6.595  -0.465  -7.255  0.00  0.00    -0.276 OA
ATOM     34  C   UNL     1       8.703  -0.038  -8.312  0.00  0.00    +0.109 C 
ENDBRANCH  29  30
ENDBRANCH  28  29
ENDBRANCH  12  28
TORSDOF 6
