REMARK  Name = 
REMARK  20 active torsions:
REMARK  status: ('A' for Active; 'I' for Inactive)
REMARK    1  A    between atoms: NZ_1  and  CE_2
REMARK    2  A    between atoms: CE_2  and  CD_3
REMARK    3  A    between atoms: CD_3  and  CG_4
REMARK    4  A    between atoms: CG_4  and  CB_5
REMARK    5  A    between atoms: CB_5  and  CA_6
REMARK    6  A    between atoms: CA_11  and  CB_13
REMARK    7  A    between atoms: CB_13  and  CG_14
REMARK    8  A    between atoms: C_26  and  C_79
REMARK    9  A    between atoms: C_34  and  O_72
REMARK   10  A    between atoms: CA_40  and  CB_42
REMARK   11  A    between atoms: CB_42  and  CG_43
REMARK   12  A    between atoms: C_52  and  C_54
REMARK   13  A    between atoms: C_54  and  C_55
REMARK   14  A    between atoms: C_58  and  O_59
REMARK   15  A    between atoms: O_59  and  C_60
REMARK   16  A    between atoms: C_60  and  C_61
REMARK   17  A    between atoms: O_72  and  C_73
REMARK   18  A    between atoms: N_75  and  C_76
REMARK   19  A    between atoms: C_76  and  C_77
REMARK   20  A    between atoms: C_77  and  N_78
REMARK                            x       y       z     vdW  Elec       q    Type
REMARK                         _______ _______ _______ _____ _____    ______ ____
ROOT
ATOM      1  CA  LYS A   6       5.778   0.780  -3.158  0.00  0.00    +0.159 C 
ATOM      2  C   LYS A   6       5.795   1.452  -1.387  0.00  0.00    +0.234 C 
ATOM      3  O   LYS A   6       4.798   2.151  -1.139  0.00  0.00    -0.274 OA
ATOM      4  N   UNK A   1       6.685   1.357  -0.198  0.00  0.00    -0.302 N 
ATOM      5  H   UNK A   1       6.103   1.735   0.536  0.00  0.00    +0.150 HD
ATOM      6  C   UNK A   1       8.255   1.147   0.387  0.00  0.00    +0.163 C 
ATOM      7  C   UNK A   1       9.174  -0.127   1.102  0.00  0.00    +0.234 C 
ATOM      8  O   UNK A   1       8.702  -0.857   2.004  0.00  0.00    -0.274 OA
ATOM      9  N   PHE A   2      10.617  -0.237   0.795  0.00  0.00    -0.302 N 
ATOM     10  H   PHE A   2      11.155   0.613   0.703  0.00  0.00    +0.150 HD
ATOM     11  CA  PHE A   2      11.309  -1.522   0.130  0.00  0.00    +0.163 C 
ATOM     12  C   PHE A   2      12.838  -1.859  -0.279  0.00  0.00    +0.237 C 
ATOM     13  O   PHE A   2      13.512  -2.416   0.604  0.00  0.00    -0.274 OA
ATOM     14  N   UNK A   3      13.449  -1.625  -1.586  0.00  0.00    -0.285 N 
ATOM     15  C   UNK A   3      13.108  -0.687  -2.744  0.00  0.00    +0.166 C 
ATOM     16  C   UNK A   3      14.196   0.404  -2.621  0.00  0.00    +0.078 C 
ATOM     17  C   UNK A   3      15.024  -0.008  -1.393  0.00  0.00    +0.198 C 
ATOM     18  C   UNK A   3      13.015  -1.183  -4.272  0.00  0.00    +0.235 C 
ATOM     19  O   UNK A   3      13.369  -2.299  -4.649  0.00  0.00    -0.274 OA
ATOM     20  N   UNK A   4      12.459  -0.207  -5.096  0.00  0.00    -0.299 N 
ATOM     21  H   UNK A   4      12.916   0.701  -5.031  0.00  0.00    +0.150 HD
ATOM     22  C   UNK A   4      11.813  -0.364  -6.429  0.00  0.00    +0.190 C 
ATOM     23  C   UNK A   4      11.028   1.014  -6.688  0.00  0.00    +0.238 C 
ATOM     24  O   UNK A   4      11.691   2.062  -6.719  0.00  0.00    -0.273 OA
ATOM     25  N   TRP A   5       9.639   1.067  -6.578  0.00  0.00    -0.302 N 
ATOM     26  H   TRP A   5       9.081   0.319  -6.980  0.00  0.00    +0.150 HD
ATOM     27  CA  TRP A   5       8.899   1.944  -5.575  0.00  0.00    +0.163 C 
ATOM     28  C   TRP A   5       7.516   1.219  -5.158  0.00  0.00    +0.234 C 
ATOM     29  O   TRP A   5       7.080   0.349  -5.917  0.00  0.00    -0.274 OA
ATOM     30  C   UNK A   3      14.902  -1.537  -1.494  0.00  0.00    +0.153 C 
ATOM     31  N   LYS A   6       6.860   1.577  -3.971  0.00  0.00    -0.302 N 
ATOM     32  H   LYS A   6       6.921   2.552  -3.700  0.00  0.00    +0.150 HD
ENDROOT
BRANCH  22  33
ATOM     33  C   UNK A   4      10.982  -1.618  -6.582  0.00  0.00    -0.018 A 
ATOM     34  C   UNK A   4      11.477  -2.668  -7.369  0.00  0.00    +0.006 A 
ATOM     35  C   UNK A   4      10.647  -3.723  -7.749  0.00  0.00    +0.000 A 
ATOM     36  C   UNK A   4       9.325  -3.755  -7.316  0.00  0.00    +0.000 A 
ATOM     37  C   UNK A   4       8.868  -2.797  -6.419  0.00  0.00    +0.000 A 
ATOM     38  C   UNK A   4       9.713  -1.769  -6.014  0.00  0.00    +0.006 A 
ENDBRANCH  22  33
BRANCH   6  39
ATOM     39  C   UNK A   1       8.561   2.415   1.260  0.00  0.00    +0.067 C 
BRANCH  39  40
ATOM     40  C   UNK A   1       8.339   2.521   2.771  0.00  0.00    -0.045 A 
ATOM     41  C   UNK A   1       7.477   3.496   3.304  0.00  0.00    +0.007 A 
ATOM     42  C   UNK A   1       7.523   3.831   4.663  0.00  0.00    +0.046 A 
ATOM     43  C   UNK A   1       8.452   3.178   5.492  0.00  0.00    +0.121 A 
ATOM     44  C   UNK A   1       9.214   2.139   5.011  0.00  0.00    +0.046 A 
ATOM     45  C   UNK A   1       9.174   1.814   3.644  0.00  0.00    +0.007 A 
BRANCH  43  46
ATOM     46  O   UNK A   1       8.573   3.657   6.775  0.00  0.00    -0.487 OA
BRANCH  46  47
ATOM     47  C   UNK A   1       9.897   3.462   7.305  0.00  0.00    +0.264 C 
BRANCH  47  48
ATOM     48  C   UNK A   1      10.090   4.426   8.432  0.00  0.00    -0.010 A 
ATOM     49  C   UNK A   1      10.519   5.739   8.160  0.00  0.00    +0.007 A 
ATOM     50  C   UNK A   1      10.642   6.635   9.208  0.00  0.00    +0.000 A 
ATOM     51  C   UNK A   1      10.367   6.246  10.513  0.00  0.00    +0.000 A 
ATOM     52  C   UNK A   1       9.946   4.945  10.780  0.00  0.00    +0.000 A 
ATOM     53  C   UNK A   1       9.811   4.034   9.740  0.00  0.00    +0.007 A 
ENDBRANCH  47  48
ENDBRANCH  46  47
ENDBRANCH  43  46
ENDBRANCH  39  40
ENDBRANCH   6  39
BRANCH   1  54
ATOM     54  CB  LYS A   6       5.739  -0.849  -3.729  0.00  0.00    +0.032 C 
BRANCH  54  55
ATOM     55  CG  LYS A   6       4.867  -2.068  -3.229  0.00  0.00    +0.003 C 
BRANCH  55  56
ATOM     56  CD  LYS A   6       5.343  -3.561  -3.555  0.00  0.00    +0.015 C 
BRANCH  56  57
ATOM     57  CE  LYS A   6       4.727  -4.389  -4.720  0.00  0.00    +0.077 C 
BRANCH  57  58
ATOM     58  NZ  LYS A   6       5.354  -4.268  -6.034  0.00  0.00    -0.330 NA
ATOM     59  HZ1 LYS A   6       6.192  -4.856  -6.058  0.00  0.00    +0.118 HD
ATOM     60  HZ2 LYS A   6       4.738  -4.707  -6.726  0.00  0.00    +0.118 HD
ENDBRANCH  57  58
ENDBRANCH  56  57
ENDBRANCH  55  56
ENDBRANCH  54  55
ENDBRANCH   1  54
BRANCH  11  61
ATOM     61  CB  PHE A   2      10.733  -1.656  -1.222  0.00  0.00    +0.067 C 
BRANCH  61  62
ATOM     62  CG  PHE A   2       9.302  -1.923  -1.290  0.00  0.00    -0.045 A 
ATOM     63  CD2 PHE A   2       8.810  -1.112  -2.251  0.00  0.00    +0.004 A 
ATOM     64  CE2 PHE A   2       7.655  -0.581  -1.854  0.00  0.00    +0.000 A 
ATOM     65  CZ  PHE A   2       6.764  -1.183  -0.953  0.00  0.00    +0.000 A 
ATOM     66  CE1 PHE A   2       7.209  -2.167  -0.135  0.00  0.00    +0.000 A 
ATOM     67  CD1 PHE A   2       8.528  -2.532  -0.283  0.00  0.00    +0.004 A 
ENDBRANCH  61  62
ENDBRANCH  11  61
BRANCH  17  68
ATOM     68  O   UNK A   3      14.432   0.324  -0.098  0.00  0.00    -0.445 OA
BRANCH  68  69
ATOM     69  C   UNK A   3      13.978   1.541   0.242  0.00  0.00    +0.401 C 
ATOM     70  N   UNK A   3      13.419   1.465   1.485  0.00  0.00    -0.280 N 
ATOM     71  H   UNK A   3      13.470   0.576   1.978  0.00  0.00    +0.152 HD
ATOM     72  O   UNK A   3      14.023   2.534  -0.460  0.00  0.00    -0.226 OA
BRANCH  70  73
ATOM     73  C   UNK A   3      12.896   2.606   2.214  0.00  0.00    +0.122 C 
BRANCH  73  74
ATOM     74  C   UNK A   3      13.180   2.526   3.725  0.00  0.00    +0.096 C 
BRANCH  74  75
ATOM     75  N   UNK A   3      12.820   1.233   4.312  0.00  0.00    -0.329 NA
ATOM     76  H   UNK A   3      13.097   1.226   5.296  0.00  0.00    +0.118 HD
ATOM     77  H   UNK A   3      11.810   1.113   4.317  0.00  0.00    +0.118 HD
ENDBRANCH  74  75
ENDBRANCH  73  74
ENDBRANCH  70  73
ENDBRANCH  68  69
ENDBRANCH  17  68
BRANCH  27  78
ATOM     78  CB  TRP A   5       9.847   2.147  -4.401  0.00  0.00    +0.069 C 
BRANCH  78  79
ATOM     79  CG  TRP A   5       9.481   3.022  -3.276  0.00  0.00    -0.020 A 
ATOM     80  CD2 TRP A   5       8.644   4.177  -3.224  0.00  0.00    +0.003 A 
ATOM     81  CE3 TRP A   5       7.892   4.922  -4.159  0.00  0.00    +0.010 A 
ATOM     82  CZ3 TRP A   5       7.007   5.910  -3.695  0.00  0.00    +0.001 A 
ATOM     83  CH2 TRP A   5       6.878   6.148  -2.323  0.00  0.00    +0.002 A 
ATOM     84  CZ2 TRP A   5       7.646   5.467  -1.391  0.00  0.00    +0.026 A 
ATOM     85  CE2 TRP A   5       8.550   4.527  -1.882  0.00  0.00    +0.047 A 
ATOM     86  NE1 TRP A   5       9.524   3.829  -1.227  0.00  0.00    -0.360 N 
ATOM     87  HE1 TRP A   5       9.782   3.993  -0.266  0.00  0.00    +0.165 HD
ATOM     88  CD1 TRP A   5      10.007   2.836  -2.015  0.00  0.00    +0.087 A 
ENDBRANCH  78  79
ENDBRANCH  27  78
TORSDOF 20
