REMARK  Name = 
REMARK  7 active torsions:
REMARK  status: ('A' for Active; 'I' for Inactive)
REMARK    1  A    between atoms: C_1  and  O_2
REMARK    2  A    between atoms: O_2  and  C_3
REMARK    3  A    between atoms: C_6  and  C_9
REMARK    4  A    between atoms: N_11  and  N_12
REMARK    5  A    between atoms: C_13  and  C_14
REMARK    6  A    between atoms: C_18  and  O_19
REMARK    7  A    between atoms: C_22  and  O_23
REMARK                            x       y       z     vdW  Elec       q    Type
REMARK                         _______ _______ _______ _____ _____    ______ ____
ROOT
ATOM      1  N   UNL     1       5.265   3.886  -6.303  0.00  0.00    -0.187 NA
ATOM      2  C   UNL     1       5.789   3.381  -7.372  0.00  0.00    +0.142 C 
ENDROOT
BRANCH   2   3
ATOM      3  C   UNL     1       6.024   4.243  -8.552  0.00  0.00    +0.038 A 
ATOM      4  C   UNL     1       6.612   3.726  -9.710  0.00  0.00    +0.143 A 
ATOM      5  C   UNL     1       6.807   4.555 -10.826  0.00  0.00    +0.102 A 
ATOM      6 BR   UNL     1       7.607   3.836 -12.396  0.00  0.00    -0.043 Br
ATOM      7  C   UNL     1       6.411   5.897 -10.779  0.00  0.00    +0.148 A 
ATOM      8  C   UNL     1       5.828   6.409  -9.617  0.00  0.00    +0.061 A 
ATOM      9 BR   UNL     1       5.283   8.223  -9.522  0.00  0.00    -0.046 Br
ATOM     10  C   UNL     1       5.634   5.589  -8.507  0.00  0.00    +0.032 A 
BRANCH   4  11
ATOM     11  O   UNL     1       6.990   2.408  -9.738  0.00  0.00    -0.505 OA
ATOM     12  H   UNL     1       7.388   2.233 -10.613  0.00  0.00    +0.292 HD
ENDBRANCH   4  11
BRANCH   7  13
ATOM     13  O   UNL     1       6.598   6.696 -11.877  0.00  0.00    -0.504 OA
ATOM     14  H   UNL     1       6.254   7.584 -11.667  0.00  0.00    +0.292 HD
ENDBRANCH   7  13
ENDBRANCH   2   3
BRANCH   1  16
ATOM     15  C   UNL     1       4.387   3.576  -4.144  0.00  0.00    +0.263 C 
ATOM     16  N   UNL     1       5.029   3.048  -5.258  0.00  0.00    -0.203 N 
ATOM     17  H   UNL     1       5.155   2.051  -5.378  0.00  0.00    +0.178 HD
ATOM     18  O   UNL     1       4.082   4.761  -4.008  0.00  0.00    -0.268 OA
BRANCH  15  22
ATOM     19  C   UNL     1       3.104   0.886  -1.058  0.00  0.00    +0.120 A 
ATOM     20  C   UNL     1       4.274   0.601  -1.770  0.00  0.00    +0.046 A 
ATOM     21  C   UNL     1       4.721   1.457  -2.785  0.00  0.00    +0.016 A 
ATOM     22  C   UNL     1       3.995   2.615  -3.080  0.00  0.00    +0.039 A 
ATOM     23  C   UNL     1       2.854   2.924  -2.328  0.00  0.00    +0.016 A 
ATOM     24  C   UNL     1       2.410   2.066  -1.321  0.00  0.00    +0.046 A 
BRANCH  19  26
ATOM     25  C   UNL     1       1.344  -0.106   0.152  0.00  0.00    +0.277 C 
ATOM     26  O   UNL     1       2.745  -0.029  -0.106  0.00  0.00    -0.495 OA
ENDBRANCH  19  26
ENDBRANCH  15  22
ENDBRANCH   1  16
TORSDOF 6
