REMARK  Name = 
REMARK  5 active torsions:
REMARK  status: ('A' for Active; 'I' for Inactive)
REMARK    1  A    between atoms: C_5  and  C_7
REMARK    2  A    between atoms: N_9  and  C_10
REMARK    3  A    between atoms: C_10  and  C_11
REMARK    4  A    between atoms: N_14  and  C_18
REMARK    5  A    between atoms: C_21  and  N_24
REMARK                            x       y       z     vdW  Elec       q    Type
REMARK                         _______ _______ _______ _____ _____    ______ ____
ROOT
ATOM      1  C   UNL     1       6.065  -5.497  -0.018  0.00  0.00    +0.213 C 
ATOM      2  O   UNL     1       5.843  -5.951   1.325  0.00  0.00    -0.444 OA
ATOM      3  C   UNL     1       5.752  -7.326   1.268  0.00  0.00    +0.408 C 
ATOM      4  O   UNL     1       5.331  -7.973   2.211  0.00  0.00    -0.226 OA
ATOM      5  N   UNL     1       6.218  -7.760   0.028  0.00  0.00    -0.234 N 
ATOM      6  C   UNL     1       6.825  -6.644  -0.635  0.00  0.00    +0.163 C 
ENDROOT
BRANCH   5   7
ATOM      7  C   UNL     1       6.160  -9.073  -0.497  0.00  0.00    +0.040 A 
ATOM      8  C   UNL     1       6.659  -9.374  -1.769  0.00  0.00    +0.025 A 
ATOM      9  C   UNL     1       6.578 -10.674  -2.302  0.00  0.00    +0.025 A 
ATOM     10  C   UNL     1       6.022 -11.729  -1.570  0.00  0.00    +0.037 A 
ATOM     11  C   UNL     1       5.505 -11.415  -0.310  0.00  0.00    +0.025 A 
ATOM     12  C   UNL     1       5.567 -10.116   0.214  0.00  0.00    +0.025 A 
BRANCH  10  13
ATOM     13  N   UNL     1       6.064 -13.087  -2.024  0.00  0.00    -0.267 N 
ATOM     14  C   UNL     1       5.281 -14.101  -1.436  0.00  0.00    +0.246 C 
ATOM     15  O   UNL     1       4.228 -13.933  -0.823  0.00  0.00    -0.273 OA
ATOM     16  C   UNL     1       5.938 -15.492  -1.484  0.00  0.00    +0.256 C 
ATOM     17  O   UNL     1       6.712 -15.819  -2.628  0.00  0.00    -0.369 OA
ATOM     18  C   UNL     1       7.640 -14.775  -2.908  0.00  0.00    +0.180 C 
ATOM     19  C   UNL     1       6.883 -13.477  -3.174  0.00  0.00    +0.142 C 
ENDBRANCH  10  13
ENDBRANCH   5   7
BRANCH   1  20
ATOM     20  C   UNL     1       6.821  -4.175  -0.014  0.00  0.00    +0.150 C 
BRANCH  20  22
ATOM     21  C   UNL     1       5.026  -2.465  -0.140  0.00  0.00    +0.251 C 
ATOM     22  N   UNL     1       6.019  -3.112   0.570  0.00  0.00    -0.307 N 
ATOM     23  H   UNL     1       5.985  -3.041   1.580  0.00  0.00    +0.149 HD
ATOM     24  O   UNL     1       4.880  -2.659  -1.345  0.00  0.00    -0.270 OA
BRANCH  21  28
ATOM     25 CL   UNL     1       2.602   0.394   3.909  0.00  0.00    -0.076 Cl
ATOM     26  C   UNL     1       3.069  -0.277   2.399  0.00  0.00    +0.079 A 
ATOM     27  S   UNL     1       4.315  -1.416   2.338  0.00  0.00    -0.072 S 
ATOM     28  C   UNL     1       4.178  -1.564   0.630  0.00  0.00    +0.075 A 
ATOM     29  C   UNL     1       3.175  -0.739   0.143  0.00  0.00    +0.022 A 
ATOM     30  C   UNL     1       2.534   0.016   1.172  0.00  0.00    +0.028 A 
ENDBRANCH  21  28
ENDBRANCH  20  22
ENDBRANCH   1  20
TORSDOF 5
