REMARK  Name = 
REMARK  1 active torsions:
REMARK  status: ('A' for Active; 'I' for Inactive)
REMARK    1  A    between atoms: C_4  and  C_16
REMARK                            x       y       z     vdW  Elec       q    Type
REMARK                         _______ _______ _______ _____ _____    ______ ____
ROOT
ATOM      1  O   UNL     1       0.939  -0.196  -0.099  0.00  0.00    -0.287 OA
ATOM      2  C   UNL     1       2.158  -0.091  -0.097  0.00  0.00    +0.194 A 
ATOM      3  C   UNL     1       2.903   1.191  -0.079  0.00  0.00    +0.072 A 
ATOM      4  C   UNL     1       2.252   2.466  -0.087  0.00  0.00    -0.004 A 
ATOM      5  C   UNL     1       3.067   3.628  -0.090  0.00  0.00    -0.017 A 
ATOM      6  C   UNL     1       4.465   3.505  -0.083  0.00  0.00    +0.012 A 
ATOM      7  C   UNL     1       5.080   2.254  -0.067  0.00  0.00    +0.047 A 
ATOM      8  C   UNL     1       2.481   4.907  -0.099  0.00  0.00    +0.008 A 
ATOM      9  C   UNL     1       1.099   5.069  -0.103  0.00  0.00    +0.001 A 
ATOM     10  C   UNL     1       0.279   3.954  -0.100  0.00  0.00    +0.001 A 
ATOM     11  C   UNL     1       0.847   2.678  -0.094  0.00  0.00    +0.009 A 
ATOM     12  C   UNL     1       4.304   1.097  -0.063  0.00  0.00    +0.140 A 
ATOM     13  O   UNL     1       4.999  -0.092  -0.042  0.00  0.00    -0.455 OA
ATOM     14  C   UNL     1       4.284  -1.279  -0.071  0.00  0.00    +0.139 A 
ATOM     15  C   UNL     1       2.949  -1.326  -0.119  0.00  0.00    +0.098 A 
ENDROOT
BRANCH  14  16
ATOM     16  C   UNL     1       5.088  -2.525  -0.105  0.00  0.00    +0.017 A 
ATOM     17  C   UNL     1       4.582  -3.736   0.407  0.00  0.00    +0.011 A 
ATOM     18  C   UNL     1       5.296  -4.931   0.293  0.00  0.00    +0.001 A 
ATOM     19  C   UNL     1       6.548  -4.934  -0.311  0.00  0.00    +0.000 A 
ATOM     20  C   UNL     1       7.091  -3.741  -0.781  0.00  0.00    +0.001 A 
ATOM     21  C   UNL     1       6.369  -2.545  -0.676  0.00  0.00    +0.011 A 
ENDBRANCH  14  16
TORSDOF 1
