REMARK  Name = 
REMARK  0 active torsions:
REMARK  status: ('A' for Active; 'I' for Inactive)
REMARK                            x       y       z     vdW  Elec       q    Type
REMARK                         _______ _______ _______ _____ _____    ______ ____
ROOT
ATOM      1  O   UNL     1       0.979  -0.097   0.102  0.00  0.00    -0.265 OA
ATOM      2  C   UNL     1       2.194  -0.053   0.069  0.00  0.00    +0.284 A 
ATOM      3  C   UNL     1       3.000   1.152   0.032  0.00  0.00    +0.062 A 
ATOM      4  C   UNL     1       2.607   2.573   0.046  0.00  0.00    +0.059 C 
ATOM      5  C   UNL     1       3.838   3.443   0.390  0.00  0.00    +0.086 C 
ATOM      6  N   UNL     1       5.057   3.013  -0.320  0.00  0.00    -0.309 NA
ATOM      7  H   UNL     1       5.830   3.631  -0.080  0.00  0.00    +0.122 HD
ATOM      8  C   UNL     1       5.433   1.624   0.019  0.00  0.00    +0.159 C 
ATOM      9  C   UNL     1       4.255   0.710   0.039  0.00  0.00    +0.155 A 
ATOM     10  O   UNL     1       4.418  -0.661   0.062  0.00  0.00    -0.380 OA
ATOM     11  N   UNL     1       3.074  -1.106   0.073  0.00  0.00    -0.184 N 
ATOM     12  H   UNL     1       2.850  -2.087   0.118  0.00  0.00    +0.211 HD
ENDROOT
TORSDOF 0
