REMARK  Name = 
REMARK  13 active torsions:
REMARK  status: ('A' for Active; 'I' for Inactive)
REMARK    1  A    between atoms: C_1  and  C_2
REMARK    2  A    between atoms: C_2  and  C_3
REMARK    3  A    between atoms: C_3  and  C_4
REMARK    4  A    between atoms: C_4  and  C_5
REMARK    5  A    between atoms: C_5  and  C_6
REMARK    6  A    between atoms: C_6  and  C_7
REMARK    7  A    between atoms: C_7  and  O_8
REMARK    8  A    between atoms: C_7  and  P_9
REMARK    9  A    between atoms: C_7  and  P_13
REMARK   10  A    between atoms: P_9  and  O_10
REMARK   11  A    between atoms: P_9  and  O_11
REMARK   12  A    between atoms: P_13  and  O_14
REMARK   13  A    between atoms: P_13  and  O_15
REMARK                            x       y       z     vdW  Elec       q    Type
REMARK                         _______ _______ _______ _____ _____    ______ ____
ROOT
ATOM      1  C   UNL     1       6.995   3.684  -2.311  0.00  0.00    +0.267 C 
ENDROOT
BRANCH   1   2
ATOM      2  P   UNL     1       8.823   3.657  -2.387  0.00  0.00    +0.371 P 
ATOM      3  O   UNL     1      10.370   3.635  -2.452  0.00  0.00    -0.255 OA
BRANCH   2   4
ATOM      4  O   UNL     1       8.676   2.491  -3.561  0.00  0.00    -0.322 OA
ATOM      5  H   UNL     1       7.901   2.688  -4.142  0.00  0.00    +0.220 HD
ENDBRANCH   2   4
BRANCH   2   6
ATOM      6  O   UNL     1       8.857   2.628  -1.106  0.00  0.00    -0.322 OA
ATOM      7  H   UNL     1       9.748   2.214  -1.159  0.00  0.00    +0.220 HD
ENDBRANCH   2   6
ENDBRANCH   1   2
BRANCH   1   8
ATOM      8  P   UNL     1       6.442   5.204  -1.456  0.00  0.00    +0.371 P 
ATOM      9  O   UNL     1       5.974   6.491  -0.733  0.00  0.00    -0.255 OA
BRANCH   8  10
ATOM     10  O   UNL     1       5.073   5.199  -2.387  0.00  0.00    -0.322 OA
ATOM     11  H   UNL     1       4.537   5.975  -2.111  0.00  0.00    +0.220 HD
ENDBRANCH   8  10
BRANCH   8  12
ATOM     12  O   UNL     1       7.333   6.088  -2.516  0.00  0.00    -0.322 OA
ATOM     13  H   UNL     1       7.148   7.038  -2.343  0.00  0.00    +0.220 HD
ENDBRANCH   8  12
ENDBRANCH   1   8
BRANCH   1  14
ATOM     14  O   UNL     1       6.545   3.722  -3.719  0.00  0.00    -0.367 OA
ATOM     15  H   UNL     1       5.793   4.361  -3.694  0.00  0.00    +0.212 HD
ENDBRANCH   1  14
BRANCH   1  16
ATOM     16  C   UNL     1       6.362   2.410  -1.692  0.00  0.00    +0.060 C 
BRANCH  16  17
ATOM     17  C   UNL     1       4.855   2.207  -1.838  0.00  0.00    +0.004 C 
BRANCH  17  18
ATOM     18  C   UNL     1       4.412   0.821  -1.332  0.00  0.00    +0.000 C 
BRANCH  18  19
ATOM     19  C   UNL     1       4.791   0.564   0.130  0.00  0.00    -0.000 C 
BRANCH  19  21
ATOM     20  C   UNL     1       4.737  -1.023   2.073  0.00  0.00    +0.004 C 
ATOM     21  C   UNL     1       4.320  -0.803   0.624  0.00  0.00    -0.003 C 
ENDBRANCH  19  21
ENDBRANCH  18  19
ENDBRANCH  17  18
ENDBRANCH  16  17
ENDBRANCH   1  16
TORSDOF 12
