REMARK  Name = 
REMARK  7 active torsions:
REMARK  status: ('A' for Active; 'I' for Inactive)
REMARK    1  A    between atoms: C_2  and  C_17
REMARK    2  A    between atoms: C_7  and  C_9
REMARK    3  A    between atoms: C_9  and  N_10
REMARK    4  A    between atoms: N_10  and  C_11
REMARK    5  A    between atoms: N_19  and  C_20
REMARK    6  A    between atoms: C_20  and  C_21
REMARK    7  A    between atoms: C_24  and  C_27
REMARK                            x       y       z     vdW  Elec       q    Type
REMARK                         _______ _______ _______ _____ _____    ______ ____
ROOT
ATOM      1  C   UNL     1       2.614   0.138  -1.405  0.00  0.00    +0.234 C 
ATOM      2  N   UNL     1       3.449  -0.815  -1.942  0.00  0.00    -0.310 N 
ATOM      3  H   UNL     1       3.763  -1.583  -1.361  0.00  0.00    +0.149 HD
ATOM      4  O   UNL     1       2.221   1.105  -2.053  0.00  0.00    -0.274 OA
ENDROOT
BRANCH   1   5
ATOM      5  C   UNL     1       2.207  -0.066   0.071  0.00  0.00    +0.162 C 
ATOM      6  N   UNL     1       2.779  -1.265   0.698  0.00  0.00    -0.289 N 
ATOM      7  C   UNL     1       2.244  -2.538   0.727  0.00  0.00    +0.230 C 
ATOM      8  O   UNL     1       2.763  -3.429   1.406  0.00  0.00    -0.274 OA
ATOM      9  C   UNL     1       3.878  -0.918   1.587  0.00  0.00    +0.108 C 
ATOM     10  C   UNL     1       4.099   0.575   1.395  0.00  0.00    +0.021 C 
ATOM     11  C   UNL     1       2.737   1.080   0.935  0.00  0.00    +0.033 C 
BRANCH   7  12
ATOM     12  C   UNL     1       1.016  -2.831  -0.149  0.00  0.00    +0.178 C 
BRANCH  12  13
ATOM     13  N   UNL     1       0.101  -3.801   0.479  0.00  0.00    -0.305 NA
ATOM     14  H   UNL     1       0.647  -4.645   0.676  0.00  0.00    +0.123 HD
BRANCH  13  15
ATOM     15  C   UNL     1      -0.509  -3.360   1.748  0.00  0.00    +0.054 C 
ATOM     16  C   UNL     1      -1.460  -4.472   2.234  0.00  0.00    +0.019 C 
ATOM     17  C   UNL     1      -2.702  -4.615   1.350  0.00  0.00    +0.002 C 
ATOM     18  C   UNL     1      -3.442  -3.289   1.186  0.00  0.00    +0.000 C 
ATOM     19  C   UNL     1      -2.517  -2.161   0.739  0.00  0.00    +0.002 C 
ATOM     20  C   UNL     1      -1.301  -2.044   1.655  0.00  0.00    +0.019 C 
ENDBRANCH  13  15
ENDBRANCH  12  13
ENDBRANCH   7  12
ENDBRANCH   1   5
BRANCH   2  21
ATOM     21  C   UNL     1       3.944  -0.685  -3.293  0.00  0.00    +0.139 C 
BRANCH  21  22
ATOM     22  C   UNL     1       4.894  -1.799  -3.644  0.00  0.00    -0.030 A 
ATOM     23  C   UNL     1       6.262  -1.690  -3.356  0.00  0.00    +0.006 A 
ATOM     24  C   UNL     1       7.134  -2.747  -3.635  0.00  0.00    +0.016 A 
ATOM     25  C   UNL     1       6.644  -3.930  -4.198  0.00  0.00    +0.065 A 
ATOM     26  C   UNL     1       5.286  -4.036  -4.513  0.00  0.00    +0.016 A 
ATOM     27  C   UNL     1       4.416  -2.978  -4.231  0.00  0.00    +0.006 A 
BRANCH  25  28
ATOM     28  C   UNL     1       7.568  -5.074  -4.441  0.00  0.00    +0.308 C 
ATOM     29  N   UNL     1       7.186  -6.310  -4.397  0.00  0.00    -0.099 NA
ATOM     30  H   UNL     1       6.200  -6.389  -4.128  0.00  0.00    +0.363 HD
ATOM     31  N   UNL     1       8.884  -4.859  -4.720  0.00  0.00    -0.247 N 
ATOM     32  H   UNL     1       9.323  -5.716  -5.041  0.00  0.00    +0.288 HD
ATOM     33  H   UNL     1       9.087  -4.071  -5.325  0.00  0.00    +0.288 HD
ENDBRANCH  25  28
ENDBRANCH  21  22
ENDBRANCH   2  21
TORSDOF 7
