REMARK  Name = 
REMARK  5 active torsions:
REMARK  status: ('A' for Active; 'I' for Inactive)
REMARK    1  A    between atoms: N_1  and  C_2
REMARK    2  A    between atoms: N_8  and  C_10
REMARK    3  A    between atoms: C_17  and  C_26
REMARK    4  A    between atoms: N_19  and  C_20
REMARK    5  A    between atoms: C_26  and  O_27
REMARK                            x       y       z     vdW  Elec       q    Type
REMARK                         _______ _______ _______ _____ _____    ______ ____
ROOT
ATOM      1  C   UNL     1       4.748   2.300   0.709  0.00  0.00    +0.086 A 
ATOM      2  C   UNL     1       4.641   3.734   0.542  0.00  0.00    +0.089 A 
ATOM      3 CL   UNL     1       4.614   4.325  -1.104  0.00  0.00    -0.079 Cl
ATOM      4  C   UNL     1       4.774   4.668   1.629  0.00  0.00    +0.074 A 
ATOM      5  C   UNL     1       5.190   4.125   2.865  0.00  0.00    +0.050 A 
ATOM      6  C   UNL     1       5.387   4.972   4.059  0.00  0.00    +0.203 A 
ATOM      7  C   UNL     1       5.009   6.389   3.980  0.00  0.00    +0.122 A 
ATOM      8  C   UNL     1       4.603   6.823   2.784  0.00  0.00    +0.105 A 
ATOM      9  O   UNL     1       5.815   4.512   5.116  0.00  0.00    -0.286 OA
ATOM     10  C   UNL     1       5.452   2.774   3.020  0.00  0.00    +0.054 A 
ATOM     11  N   UNL     1       4.532   6.095   1.599  0.00  0.00    -0.341 N 
ATOM     12  C   UNL     1       5.210   1.893   1.980  0.00  0.00    +0.147 A 
ATOM     13  F   UNL     1       5.431   0.612   2.298  0.00  0.00    -0.203 F 
ENDROOT
BRANCH   1  16
ATOM     14  C   UNL     1       6.220  -0.152  -1.242  0.00  0.00    +0.068 C 
ATOM     15  C   UNL     1       5.002  -0.016  -0.300  0.00  0.00    +0.123 C 
ATOM     16  N   UNL     1       4.476   1.373  -0.324  0.00  0.00    -0.325 N 
ATOM     17  C   UNL     1       3.275   1.519  -1.168  0.00  0.00    +0.105 C 
ATOM     18  C   UNL     1       3.475   0.954  -2.588  0.00  0.00    +0.019 C 
ATOM     19  C   UNL     1       4.898   1.021  -3.160  0.00  0.00    +0.003 C 
ATOM     20  C   UNL     1       5.788  -0.150  -2.717  0.00  0.00    +0.020 C 
BRANCH  14  21
ATOM     21  N   UNL     1       7.236   0.883  -0.986  0.00  0.00    -0.326 NA
ATOM     22  H   UNL     1       7.924   0.890  -1.736  0.00  0.00    +0.119 HD
ATOM     23  H   UNL     1       6.758   1.786  -1.020  0.00  0.00    +0.119 HD
ENDBRANCH  14  21
ENDBRANCH   1  16
BRANCH  11  24
ATOM     24  C   UNL     1       4.038   6.824   0.407  0.00  0.00    +0.087 C 
ATOM     25  C   UNL     1       5.023   7.318  -0.632  0.00  0.00    +0.027 C 
ATOM     26  C   UNL     1       4.236   8.308   0.153  0.00  0.00    +0.027 C 
ENDBRANCH  11  24
BRANCH   7  27
ATOM     27  C   UNL     1       5.063   7.307   5.136  0.00  0.00    +0.342 C 
ATOM     28  O   UNL     1       4.739   8.482   5.072  0.00  0.00    -0.245 OA
BRANCH  27  29
ATOM     29  O   UNL     1       5.500   6.743   6.284  0.00  0.00    -0.477 OA
ATOM     30  H   UNL     1       5.747   5.788   6.201  0.00  0.00    +0.295 HD
ENDBRANCH  27  29
ENDBRANCH   7  27
TORSDOF 5
