REMARK  Name = 
REMARK  16 active torsions:
REMARK  status: ('A' for Active; 'I' for Inactive)
REMARK    1  A    between atoms: C_1  and  C_2
REMARK    2  A    between atoms: C_2  and  C_4
REMARK    3  A    between atoms: C_2  and  N_21
REMARK    4  A    between atoms: C_4  and  C_5
REMARK    5  A    between atoms: N_9  and  C_10
REMARK    6  A    between atoms: C_10  and  C_11
REMARK    7  A    between atoms: C_11  and  C_12
REMARK    8  A    between atoms: C_12  and  O_13
REMARK    9  A    between atoms: C_16  and  C_18
REMARK   10  A    between atoms: N_21  and  C_22
REMARK   11  A    between atoms: C_22  and  C_23
REMARK   12  A    between atoms: C_23  and  O_24
REMARK   13  A    between atoms: O_24  and  C_25
REMARK   14  A    between atoms: C_30  and  O_31
REMARK   15  A    between atoms: O_31  and  C_32
REMARK   16  A    between atoms: C_32  and  C_33
REMARK                            x       y       z     vdW  Elec       q    Type
REMARK                         _______ _______ _______ _____ _____    ______ ____
ROOT
ATOM      1  C   UNL     1       2.899   1.420   0.341  0.00  0.00    +0.053 C 
ENDROOT
BRANCH   1   2
ATOM      2  C   UNL     1       2.407   2.475  -0.619  0.00  0.00    -0.045 A 
ATOM      3  C   UNL     1       1.152   3.068  -0.440  0.00  0.00    +0.018 A 
ATOM      4  C   UNL     1       0.705   4.170  -1.221  0.00  0.00    +0.058 A 
ATOM      5  C   UNL     1       1.528   4.669  -2.238  0.00  0.00    +0.045 A 
ATOM      6  N   UNL     1       1.421   5.705  -3.150  0.00  0.00    -0.329 N 
ATOM      7  C   UNL     1       2.677   5.815  -3.908  0.00  0.00    +0.110 C 
ATOM      8  C   UNL     1       3.581   4.664  -3.486  0.00  0.00    +0.056 C 
ATOM      9  C   UNL     1       2.769   4.023  -2.411  0.00  0.00    -0.024 A 
ATOM     10  C   UNL     1       3.210   2.952  -1.645  0.00  0.00    +0.009 A 
BRANCH   4  11
ATOM     11  C   UNL     1      -0.644   4.676  -0.849  0.00  0.00    +0.243 C 
ATOM     12  O   UNL     1      -1.523   4.924  -1.660  0.00  0.00    -0.270 OA
ATOM     13  N   UNL     1      -0.902   4.772   0.501  0.00  0.00    -0.325 N 
ATOM     14  H   UNL     1      -1.835   5.043   0.782  0.00  0.00    +0.145 HD
ATOM     15  H   UNL     1      -0.225   4.566   1.223  0.00  0.00    +0.145 HD
ENDBRANCH   4  11
BRANCH   6  16
ATOM     16  C   UNL     1       0.389   6.706  -3.355  0.00  0.00    +0.107 C 
BRANCH  16  17
ATOM     17  C   UNL     1      -0.090   6.726  -4.810  0.00  0.00    +0.047 C 
BRANCH  17  18
ATOM     18  C   UNL     1      -0.633   5.382  -5.278  0.00  0.00    +0.157 C 
BRANCH  18  19
ATOM     19  O   UNL     1      -1.047   5.489  -6.640  0.00  0.00    -0.395 OA
ATOM     20  H   UNL     1      -1.832   6.061  -6.653  0.00  0.00    +0.209 HD
ENDBRANCH  18  19
ENDBRANCH  17  18
ENDBRANCH  16  17
ENDBRANCH   6  16
ENDBRANCH   1   2
BRANCH   1  22
ATOM     21  C   UNL     1       1.133  -0.401   0.049  0.00  0.00    +0.024 C 
ATOM     22  C   UNL     1       2.626  -0.061  -0.005  0.00  0.00    +0.055 C 
BRANCH  22  23
ATOM     23  N   UNL     1       3.175  -0.521  -1.291  0.00  0.00    -0.310 NA
ATOM     24  H   UNL     1       2.716  -0.012  -2.050  0.00  0.00    +0.122 HD
BRANCH  23  25
ATOM     25  C   UNL     1       4.631  -0.386  -1.433  0.00  0.00    +0.122 C 
BRANCH  25  26
ATOM     26  C   UNL     1       5.449  -1.136  -0.380  0.00  0.00    +0.244 C 
BRANCH  26  27
ATOM     27  O   UNL     1       6.841  -0.852  -0.554  0.00  0.00    -0.487 OA
BRANCH  27  28
ATOM     28  C   UNL     1       7.685  -1.419   0.370  0.00  0.00    +0.162 A 
ATOM     29  C   UNL     1       9.062  -1.154   0.269  0.00  0.00    +0.162 A 
ATOM     30  C   UNL     1       9.950  -1.793   1.148  0.00  0.00    +0.049 A 
ATOM     31  C   UNL     1       9.488  -2.661   2.137  0.00  0.00    +0.004 A 
ATOM     32  C   UNL     1       8.130  -2.906   2.254  0.00  0.00    +0.004 A 
ATOM     33  C   UNL     1       7.236  -2.289   1.377  0.00  0.00    +0.049 A 
BRANCH  29  34
ATOM     34  O   UNL     1       9.700  -0.369  -0.657  0.00  0.00    -0.479 OA
BRANCH  34  35
ATOM     35  C   UNL     1       9.029   0.813  -1.107  0.00  0.00    +0.342 C 
BRANCH  35  36
ATOM     36  C   UNL     1       9.973   1.718  -1.901  0.00  0.00    +0.424 C 
ATOM     37  F   UNL     1      10.128   2.918  -1.291  0.00  0.00    -0.167 F 
ATOM     38  F   UNL     1       9.472   1.967  -3.137  0.00  0.00    -0.167 F 
ATOM     39  F   UNL     1      11.205   1.190  -2.069  0.00  0.00    -0.167 F 
ENDBRANCH  35  36
ENDBRANCH  34  35
ENDBRANCH  29  34
ENDBRANCH  27  28
ENDBRANCH  26  27
ENDBRANCH  25  26
ENDBRANCH  23  25
ENDBRANCH  22  23
ENDBRANCH   1  22
TORSDOF 15
