REMARK  Name = 
REMARK  10 active torsions:
REMARK  status: ('A' for Active; 'I' for Inactive)
REMARK    1  A    between atoms: C_1  and  C_2
REMARK    2  A    between atoms: C_3  and  C_29
REMARK    3  A    between atoms: N_4  and  C_5
REMARK    4  A    between atoms: C_5  and  C_6
REMARK    5  A    between atoms: C_9  and  O_10
REMARK    6  A    between atoms: O_10  and  C_11
REMARK    7  A    between atoms: C_11  and  C_12
REMARK    8  A    between atoms: C_12  and  N_13
REMARK    9  A    between atoms: C_25  and  O_26
REMARK   10  A    between atoms: C_32  and  O_33
REMARK                            x       y       z     vdW  Elec       q    Type
REMARK                         _______ _______ _______ _____ _____    ______ ____
ROOT
ATOM      1  C   UNL     1       4.607  -0.822  -4.829  0.00  0.00    +0.046 C 
ATOM      2  C   UNL     1       4.890  -1.360  -3.463  0.00  0.00    -0.017 A 
ATOM      3  C   UNL     1       5.000  -2.764  -3.219  0.00  0.00    +0.007 A 
ATOM      4  C   UNL     1       4.971  -3.900  -4.063  0.00  0.00    +0.055 A 
ATOM      5  C   UNL     1       5.000  -5.169  -3.489  0.00  0.00    +0.118 A 
ATOM      6  C   UNL     1       5.014  -5.340  -2.117  0.00  0.00    +0.047 A 
ATOM      7  C   UNL     1       5.070  -4.231  -1.268  0.00  0.00    +0.030 A 
ATOM      8  C   UNL     1       5.102  -2.948  -1.846  0.00  0.00    +0.050 A 
ATOM      9  N   UNL     1       5.276  -1.688  -1.290  0.00  0.00    -0.335 N 
ATOM     10  C   UNL     1       5.018  -0.691  -2.240  0.00  0.00    +0.053 A 
ENDROOT
BRANCH  10  11
ATOM     11  C   UNL     1       4.941   0.775  -1.964  0.00  0.00    -0.001 A 
ATOM     12  C   UNL     1       5.468   1.705  -2.874  0.00  0.00    +0.013 A 
ATOM     13  C   UNL     1       5.305   3.085  -2.696  0.00  0.00    +0.046 A 
ATOM     14  C   UNL     1       4.672   3.563  -1.560  0.00  0.00    +0.117 A 
ATOM     15  C   UNL     1       4.184   2.674  -0.611  0.00  0.00    +0.046 A 
ATOM     16  C   UNL     1       4.288   1.291  -0.833  0.00  0.00    +0.013 A 
BRANCH  14  17
ATOM     17  O   UNL     1       4.547   4.910  -1.417  0.00  0.00    -0.507 OA
ATOM     18  H   UNL     1       4.036   5.096  -0.612  0.00  0.00    +0.292 HD
ENDBRANCH  14  17
ENDBRANCH  10  11
BRANCH   5  19
ATOM     19  O   UNL     1       5.006  -6.291  -4.268  0.00  0.00    -0.507 OA
ATOM     20  H   UNL     1       5.101  -6.016  -5.194  0.00  0.00    +0.292 HD
ENDBRANCH   5  19
BRANCH   9  21
ATOM     21  C   UNL     1       5.756  -1.532   0.086  0.00  0.00    +0.157 C 
BRANCH  21  22
ATOM     22  C   UNL     1       7.091  -0.842   0.158  0.00  0.00    -0.028 A 
ATOM     23  C   UNL     1       8.256  -1.382  -0.409  0.00  0.00    +0.009 A 
ATOM     24  C   UNL     1       9.436  -0.623  -0.466  0.00  0.00    +0.046 A 
ATOM     25  C   UNL     1       9.458   0.670   0.041  0.00  0.00    +0.121 A 
ATOM     26  C   UNL     1       8.332   1.146   0.725  0.00  0.00    +0.046 A 
ATOM     27  C   UNL     1       7.165   0.399   0.788  0.00  0.00    +0.009 A 
BRANCH  25  28
ATOM     28  O   UNL     1      10.592   1.423  -0.203  0.00  0.00    -0.491 OA
BRANCH  28  29
ATOM     29  C   UNL     1      10.405   2.798   0.156  0.00  0.00    +0.244 C 
BRANCH  29  30
ATOM     30  C   UNL     1      11.562   3.731  -0.216  0.00  0.00    +0.125 C 
BRANCH  30  31
ATOM     31  N   UNL     1      11.265   5.141   0.175  0.00  0.00    -0.299 NA
ATOM     32  C   UNL     1      12.284   6.047  -0.377  0.00  0.00    +0.084 C 
ATOM     33  C   UNL     1      11.823   7.507  -0.400  0.00  0.00    +0.015 C 
ATOM     34  C   UNL     1      12.134   8.306   0.862  0.00  0.00    +0.001 C 
ATOM     35  C   UNL     1      11.938   7.583   2.184  0.00  0.00    +0.001 C 
ATOM     36  C   UNL     1      10.742   6.647   2.194  0.00  0.00    +0.015 C 
ATOM     37  C   UNL     1      11.067   5.263   1.629  0.00  0.00    +0.084 C 
ENDBRANCH  30  31
ENDBRANCH  29  30
ENDBRANCH  28  29
ENDBRANCH  25  28
ENDBRANCH  21  22
ENDBRANCH   9  21
TORSDOF 9
