REMARK  Name = 
REMARK  6 active torsions:
REMARK  status: ('A' for Active; 'I' for Inactive)
REMARK    1  A    between atoms: C_1  and  N_2
REMARK    2  A    between atoms: N_9  and  C_10
REMARK    3  A    between atoms: C_10  and  C_11
REMARK    4  A    between atoms: C_11  and  C_12
REMARK    5  A    between atoms: C_12  and  C_13
REMARK    6  A    between atoms: C_13  and  C_15
REMARK                            x       y       z     vdW  Elec       q    Type
REMARK                         _______ _______ _______ _____ _____    ______ ____
ROOT
ATOM      1  C   UNL     1       1.011   0.209   0.043  0.00  0.00    +0.129 C 
ATOM      2  N   UNL     1       2.430   0.150   0.388  0.00  0.00    -0.330 N 
ATOM      3  C   UNL     1       3.247   1.025  -0.360  0.00  0.00    +0.051 A 
ATOM      4  C   UNL     1       2.981   2.384  -0.530  0.00  0.00    +0.025 A 
ATOM      5  C   UNL     1       3.841   3.180  -1.318  0.00  0.00    +0.002 A 
ATOM      6  C   UNL     1       4.895   2.609  -2.068  0.00  0.00    +0.006 A 
ATOM      7  C   UNL     1       5.142   1.252  -1.936  0.00  0.00    -0.018 A 
ATOM      8  C   UNL     1       6.180   0.300  -2.530  0.00  0.00    +0.055 C 
ATOM      9  C   UNL     1       6.334  -0.624  -1.307  0.00  0.00    +0.083 C 
ATOM     10  C   UNL     1       6.975  -1.970  -1.513  0.00  0.00    +0.038 C 
ATOM     11  C   UNL     1       6.631  -2.711  -2.780  0.00  0.00    +0.086 C 
ATOM     12  N   UNL     1       5.920  -1.994  -3.808  0.00  0.00    -0.302 NA
ATOM     13  N   UNL     1       5.078  -0.634  -0.553  0.00  0.00    -0.323 N 
ATOM     14  C   UNL     1       4.078  -1.664  -0.434  0.00  0.00    +0.124 C 
ATOM     15  C   UNL     1       5.827  -0.525  -3.825  0.00  0.00    +0.094 C 
ATOM     16  C   UNL     1       4.424   0.564  -0.961  0.00  0.00    +0.055 A 
ATOM     17  C   UNL     1       3.020  -1.205   0.615  0.00  0.00    +0.123 C 
ENDROOT
BRANCH  12  18
ATOM     18  C   UNL     1       5.620  -2.829  -4.983  0.00  0.00    +0.085 C 
BRANCH  18  19
ATOM     19  C   UNL     1       4.395  -3.749  -4.717  0.00  0.00    +0.023 C 
BRANCH  19  20
ATOM     20  C   UNL     1       4.172  -4.863  -5.762  0.00  0.00    +0.081 C 
BRANCH  20  21
ATOM     21  C   UNL     1       5.093  -6.077  -5.601  0.00  0.00    +0.163 C 
ATOM     22  O   UNL     1       5.624  -6.335  -4.519  0.00  0.00    -0.292 OA
BRANCH  21  23
ATOM     23  C   UNL     1       5.317  -7.039  -6.746  0.00  0.00    +0.018 A 
ATOM     24  C   UNL     1       6.101  -8.187  -6.506  0.00  0.00    +0.014 A 
ATOM     25  C   UNL     1       6.367  -9.108  -7.531  0.00  0.00    +0.039 A 
ATOM     26  C   UNL     1       5.850  -8.885  -8.795  0.00  0.00    +0.123 A 
ATOM     27  F   UNL     1       6.112  -9.755  -9.780  0.00  0.00    -0.205 F 
ATOM     28  C   UNL     1       5.064  -7.769  -9.057  0.00  0.00    +0.039 A 
ATOM     29  C   UNL     1       4.789  -6.847  -8.031  0.00  0.00    +0.014 A 
ENDBRANCH  21  23
ENDBRANCH  20  21
ENDBRANCH  19  20
ENDBRANCH  18  19
ENDBRANCH  12  18
TORSDOF 5
