REMARK  Name = 
REMARK  12 active torsions:
REMARK  status: ('A' for Active; 'I' for Inactive)
REMARK    1  A    between atoms: C_2  and  N_3
REMARK    2  A    between atoms: C_2  and  C_4
REMARK    3  A    between atoms: C_2  and  C_11
REMARK    4  A    between atoms: C_4  and  C_5
REMARK    5  A    between atoms: C_17  and  C_19
REMARK    6  A    between atoms: N_21  and  C_22
REMARK    7  A    between atoms: C_22  and  C_24
REMARK    8  A    between atoms: C_22  and  C_33
REMARK    9  A    between atoms: C_24  and  C_25
REMARK   10  A    between atoms: C_25  and  C_26
REMARK   11  A    between atoms: C_26  and  N_27
REMARK   12  A    between atoms: C_33  and  C_35
REMARK                            x       y       z     vdW  Elec       q    Type
REMARK                         _______ _______ _______ _____ _____    ______ ____
ROOT
ATOM      1  C   UNL     1       5.865  -1.164  -0.687  0.00  0.00    +0.234 C 
ATOM      2  N   UNL     1       6.285  -0.464   0.426  0.00  0.00    -0.304 N 
ATOM      3  H   UNL     1       5.808   0.412   0.625  0.00  0.00    +0.149 HD
ATOM      4  O   UNL     1       6.287  -2.291  -0.939  0.00  0.00    -0.274 OA
ENDROOT
BRANCH   1   7
ATOM      5  C   UNL     1       2.843   0.635  -1.100  0.00  0.00    +0.233 C 
ATOM      6  N   UNL     1       4.226   0.739  -1.210  0.00  0.00    -0.289 N 
ATOM      7  C   UNL     1       5.102  -0.324  -1.732  0.00  0.00    +0.162 C 
ATOM      8  C   UNL     1       6.148   0.420  -2.587  0.00  0.00    +0.033 C 
ATOM      9  C   UNL     1       5.705   1.877  -2.630  0.00  0.00    +0.021 C 
ATOM     10  C   UNL     1       4.833   2.043  -1.404  0.00  0.00    +0.108 C 
ATOM     11  O   UNL     1       2.120   1.626  -1.257  0.00  0.00    -0.274 OA
BRANCH   5  12
ATOM     12  C   UNL     1       2.175  -0.723  -0.751  0.00  0.00    +0.142 C 
BRANCH  12  13
ATOM     13  N   UNL     1       3.023  -1.490   0.189  0.00  0.00    -0.320 NA
ATOM     14  H   UNL     1       3.046  -0.977   1.071  0.00  0.00    +0.119 HD
ATOM     15  H   UNL     1       2.548  -2.373   0.390  0.00  0.00    +0.119 HD
ENDBRANCH  12  13
BRANCH  12  16
ATOM     16  C   UNL     1       1.766  -1.496  -2.017  0.00  0.00    +0.063 C 
BRANCH  16  17
ATOM     17  C   UNL     1       0.931  -2.747  -1.819  0.00  0.00    -0.045 A 
ATOM     18  C   UNL     1       1.325  -3.949  -2.430  0.00  0.00    +0.004 A 
ATOM     19  C   UNL     1       0.504  -5.079  -2.386  0.00  0.00    +0.000 A 
ATOM     20  C   UNL     1      -0.718  -5.027  -1.724  0.00  0.00    +0.000 A 
ATOM     21  C   UNL     1      -1.111  -3.851  -1.089  0.00  0.00    +0.000 A 
ATOM     22  C   UNL     1      -0.294  -2.716  -1.137  0.00  0.00    +0.004 A 
ENDBRANCH  16  17
ENDBRANCH  12  16
ENDBRANCH   5  12
ENDBRANCH   1   7
BRANCH   2  23
ATOM     23  C   UNL     1       7.144  -1.036   1.464  0.00  0.00    +0.141 C 
BRANCH  23  24
ATOM     24  C   UNL     1       7.230   0.003   2.594  0.00  0.00    +0.168 C 
ATOM     25  O   UNL     1       7.167   1.214   2.347  0.00  0.00    -0.294 OA
BRANCH  24  26
ATOM     26  C   UNL     1       7.446  -0.501   4.000  0.00  0.00    +0.184 C 
ATOM     27 CL   UNL     1       9.183  -0.623   4.315  0.00  0.00    -0.117 Cl
ENDBRANCH  24  26
ENDBRANCH  23  24
BRANCH  23  28
ATOM     28  C   UNL     1       8.544  -1.415   0.937  0.00  0.00    +0.033 C 
BRANCH  28  29
ATOM     29  C   UNL     1       9.305  -0.230   0.334  0.00  0.00    +0.039 C 
BRANCH  29  30
ATOM     30  C   UNL     1      10.655  -0.624  -0.260  0.00  0.00    +0.196 C 
BRANCH  30  31
ATOM     31  N   UNL     1      11.307   0.576  -0.820  0.00  0.00    -0.279 N 
ATOM     32  H   UNL     1      10.812   1.456  -0.743  0.00  0.00    +0.258 HD
ATOM     33  C   UNL     1      12.504   0.605  -1.419  0.00  0.00    +0.341 C 
ATOM     34  N   UNL     1      12.968   1.767  -1.892  0.00  0.00    -0.292 N 
ATOM     35  H   UNL     1      13.867   1.829  -2.349  0.00  0.00    +0.255 HD
ATOM     36  H   UNL     1      12.440   2.626  -1.806  0.00  0.00    +0.255 HD
ATOM     37  N   UNL     1      13.255  -0.490  -1.560  0.00  0.00    -0.292 N 
ATOM     38  H   UNL     1      14.156  -0.461  -2.015  0.00  0.00    +0.255 HD
ATOM     39  H   UNL     1      12.934  -1.386  -1.219  0.00  0.00    +0.255 HD
ENDBRANCH  30  31
ENDBRANCH  29  30
ENDBRANCH  28  29
ENDBRANCH  23  28
ENDBRANCH   2  23
TORSDOF 12
