REMARK  Name = 
REMARK  5 active torsions:
REMARK  status: ('A' for Active; 'I' for Inactive)
REMARK    1  A    between atoms: N_1  and  C_2
REMARK    2  A    between atoms: C_2  and  C_4
REMARK    3  A    between atoms: C_2  and  C_17
REMARK    4  A    between atoms: C_13  and  C_15
REMARK    5  A    between atoms: C_23  and  O_24
REMARK                            x       y       z     vdW  Elec       q    Type
REMARK                         _______ _______ _______ _____ _____    ______ ____
ROOT
ATOM      1  C   UNL     1       2.616  -0.170  -0.198  0.00  0.00    +0.144 C 
ENDROOT
BRANCH   1   2
ATOM      2  C   UNL     1       2.978   0.431  -1.562  0.00  0.00    -0.002 C 
ATOM      3  C   UNL     1       3.755  -0.551  -2.455  0.00  0.00    +0.012 C 
ATOM      4  C   UNL     1       4.088   0.111  -3.798  0.00  0.00    -0.007 C 
ATOM      5  C   UNL     1       2.780   0.523  -4.497  0.00  0.00    +0.038 C 
ATOM      6  C   UNL     1       2.014   1.536  -3.632  0.00  0.00    +0.067 C 
ATOM      7  C   UNL     1       2.885   2.778  -3.391  0.00  0.00    +0.038 C 
ATOM      8  C   UNL     1       4.186   2.373  -2.683  0.00  0.00    -0.007 C 
ATOM      9  C   UNL     1       4.952   1.358  -3.545  0.00  0.00    +0.007 C 
ATOM     10  C   UNL     1       1.681   0.879  -2.289  0.00  0.00    +0.043 C 
ATOM     11  C   UNL     1       3.843   1.714  -1.343  0.00  0.00    +0.012 C 
BRANCH   6  12
ATOM     12  O   UNL     1       0.794   1.905  -4.259  0.00  0.00    -0.389 OA
ATOM     13  H   UNL     1       1.012   2.310  -5.116  0.00  0.00    +0.210 HD
ENDBRANCH   6  12
ENDBRANCH   1   2
BRANCH   1  14
ATOM     14  C   UNL     1       1.653  -1.405  -0.249  0.00  0.00    +0.234 C 
ATOM     15  N   UNL     1       0.294  -1.221  -0.037  0.00  0.00    -0.281 N 
ATOM     16  C   UNL     1      -0.359  -0.184   0.799  0.00  0.00    +0.179 C 
ATOM     17  C   UNL     1      -1.436  -0.932   1.601  0.00  0.00    +0.043 C 
ATOM     18  C   UNL     1      -1.799  -2.098   0.722  0.00  0.00    +0.014 C 
ATOM     19  C   UNL     1      -0.981  -3.359   0.726  0.00  0.00    +0.028 C 
ATOM     20  C   UNL     1      -0.662  -2.282  -0.262  0.00  0.00    +0.081 C 
ATOM     21  O   UNL     1       2.112  -2.527  -0.493  0.00  0.00    -0.274 OA
BRANCH  16  22
ATOM     22  C   UNL     1       0.620   0.557   1.695  0.00  0.00    +0.085 C 
ATOM     23  N   UNL     1       1.432   1.171   2.438  0.00  0.00    -0.195 NA
ENDBRANCH  16  22
ENDBRANCH   1  14
BRANCH   1  24
ATOM     24  N   UNL     1       3.773  -0.498   0.655  0.00  0.00    -0.319 NA
ATOM     25  H   UNL     1       3.459  -0.548   1.629  0.00  0.00    +0.119 HD
ATOM     26  H   UNL     1       4.091  -1.436   0.419  0.00  0.00    +0.119 HD
ENDBRANCH   1  24
TORSDOF 5
