REMARK  Name = 
REMARK  8 active torsions:
REMARK  status: ('A' for Active; 'I' for Inactive)
REMARK    1  A    between atoms: C_1  and  C_2
REMARK    2  A    between atoms: C_2  and  C_3
REMARK    3  A    between atoms: C_2  and  C_4
REMARK    4  A    between atoms: C_2  and  C_5
REMARK    5  A    between atoms: N_7  and  C_24
REMARK    6  A    between atoms: C_8  and  N_9
REMARK    7  A    between atoms: N_12  and  C_13
REMARK    8  A    between atoms: C_28  and  N_29
REMARK                            x       y       z     vdW  Elec       q    Type
REMARK                         _______ _______ _______ _____ _____    ______ ____
ROOT
ATOM      1  C   UNL     1       3.090  -0.088  -1.549  0.00  0.00    +0.071 A 
ATOM      2  C   UNL     1       3.251  -1.268  -2.300  0.00  0.00    +0.069 A 
ATOM      3  C   UNL     1       3.821  -0.882  -3.492  0.00  0.00    +0.130 A 
ATOM      4  N   UNL     1       3.811   0.513  -3.493  0.00  0.00    -0.218 N 
ATOM      5  N   UNL     1       3.489   0.982  -2.248  0.00  0.00    -0.169 NA
ENDROOT
BRANCH   3   6
ATOM      6  N   UNL     1       4.286  -1.726  -4.487  0.00  0.00    -0.254 N 
ATOM      7  H   UNL     1       5.000  -1.386  -5.115  0.00  0.00    +0.158 HD
ATOM      8  C   UNL     1       3.367  -2.592  -5.072  0.00  0.00    +0.309 C 
ATOM      9  N   UNL     1       4.004  -3.413  -5.987  0.00  0.00    -0.269 N 
ATOM     10  H   UNL     1       4.930  -3.674  -5.686  0.00  0.00    +0.156 HD
ATOM     11  O   UNL     1       2.169  -2.621  -4.818  0.00  0.00    -0.252 OA
BRANCH   9  12
ATOM     12  C   UNL     1       3.285  -4.378  -6.735  0.00  0.00    +0.042 A 
ATOM     13  C   UNL     1       2.179  -3.962  -7.488  0.00  0.00    +0.024 A 
ATOM     14  C   UNL     1       1.489  -4.871  -8.283  0.00  0.00    +0.002 A 
ATOM     15  C   UNL     1       1.892  -6.204  -8.319  0.00  0.00    +0.008 A 
ATOM     16  C   UNL     1       2.978  -6.651  -7.549  0.00  0.00    -0.016 A 
ATOM     17  C   UNL     1       3.332  -8.010  -7.554  0.00  0.00    +0.008 A 
ATOM     18  C   UNL     1       4.369  -8.485  -6.752  0.00  0.00    +0.001 A 
ATOM     19  C   UNL     1       5.075  -7.605  -5.943  0.00  0.00    +0.001 A 
ATOM     20  C   UNL     1       4.750  -6.249  -5.944  0.00  0.00    +0.010 A 
ATOM     21  C   UNL     1       3.700  -5.735  -6.743  0.00  0.00    +0.003 A 
ENDBRANCH   9  12
ENDBRANCH   3   6
BRANCH   4  22
ATOM     22  C   UNL     1       3.981   1.445  -4.570  0.00  0.00    +0.069 A 
ATOM     23  C   UNL     1       4.198   1.045  -5.898  0.00  0.00    +0.050 A 
ATOM     24  C   UNL     1       4.282   1.979  -6.939  0.00  0.00    +0.027 A 
ATOM     25  C   UNL     1       4.222   3.336  -6.637  0.00  0.00    +0.023 A 
ATOM     26  C   UNL     1       3.983   3.756  -5.329  0.00  0.00    +0.004 A 
ATOM     27  C   UNL     1       3.865   2.819  -4.302  0.00  0.00    +0.028 A 
BRANCH  24  28
ATOM     28  N   UNL     1       4.647   1.555  -8.227  0.00  0.00    -0.358 N 
ATOM     29  H   UNL     1       4.361   0.607  -8.450  0.00  0.00    +0.142 HD
ATOM     30  H   UNL     1       4.381   2.210  -8.957  0.00  0.00    +0.142 HD
ENDBRANCH  24  28
ENDBRANCH   4  22
BRANCH   1  32
ATOM     31  C   UNL     1       2.504   1.485   0.365  0.00  0.00    +0.017 C 
ATOM     32  C   UNL     1       2.567   0.023  -0.125  0.00  0.00    +0.006 C 
ATOM     33  C   UNL     1       1.145  -0.571  -0.041  0.00  0.00    +0.017 C 
ATOM     34  C   UNL     1       3.485  -0.761   0.838  0.00  0.00    +0.017 C 
ENDBRANCH   1  32
TORSDOF 5
