REMARK  Name = 
REMARK  10 active torsions:
REMARK  status: ('A' for Active; 'I' for Inactive)
REMARK    1  A    between atoms: C_1  and  C_2
REMARK    2  A    between atoms: C_2  and  C_3
REMARK    3  A    between atoms: C_10  and  C_12
REMARK    4  A    between atoms: C_12  and  O_13
REMARK    5  A    between atoms: C_12  and  C_14
REMARK    6  A    between atoms: C_14  and  N_15
REMARK    7  A    between atoms: N_15  and  C_16
REMARK    8  A    between atoms: C_16  and  C_17
REMARK    9  A    between atoms: C_16  and  C_18
REMARK   10  A    between atoms: C_16  and  C_19
REMARK                            x       y       z     vdW  Elec       q    Type
REMARK                         _______ _______ _______ _____ _____    ______ ____
ROOT
ATOM      1  C   UNL     1       3.094   0.618   1.296  0.00  0.00    -0.005 A 
ATOM      2  C   UNL     1       3.032   1.962   1.682  0.00  0.00    +0.138 A 
ATOM      3  O   UNL     1       2.609   2.992   0.899  0.00  0.00    -0.457 OA
ATOM      4  C   UNL     1       2.644   4.128   1.654  0.00  0.00    +0.136 A 
ATOM      5  C   UNL     1       3.139   3.836   2.909  0.00  0.00    +0.056 A 
ATOM      6  C   UNL     1       3.393   2.440   2.936  0.00  0.00    +0.021 A 
ATOM      7  C   UNL     1       3.872   1.534   3.895  0.00  0.00    +0.012 A 
ATOM      8  C   UNL     1       3.962   0.181   3.549  0.00  0.00    +0.001 A 
ATOM      9  C   UNL     1       3.576  -0.267   2.281  0.00  0.00    +0.007 A 
ENDROOT
BRANCH   1  11
ATOM     10  C   UNL     1       1.162  -0.264  -0.027  0.00  0.00    +0.009 C 
ATOM     11  C   UNL     1       2.637   0.110  -0.044  0.00  0.00    +0.035 C 
ENDBRANCH   1  11
BRANCH   4  12
ATOM     12  C   UNL     1       2.174   5.403   1.039  0.00  0.00    +0.194 C 
BRANCH  12  13
ATOM     13  O   UNL     1       3.289   6.304   1.073  0.00  0.00    -0.383 OA
ATOM     14  H   UNL     1       4.008   5.866   0.583  0.00  0.00    +0.210 HD
ENDBRANCH  12  13
BRANCH  12  15
ATOM     15  C   UNL     1       1.662   5.297  -0.417  0.00  0.00    +0.120 C 
BRANCH  15  16
ATOM     16  N   UNL     1       0.461   4.468  -0.583  0.00  0.00    -0.308 NA
ATOM     17  H   UNL     1      -0.274   4.791   0.045  0.00  0.00    +0.123 HD
BRANCH  16  18
ATOM     18  C   UNL     1      -0.055   4.344  -1.955  0.00  0.00    +0.011 C 
ATOM     19  C   UNL     1      -0.513   5.704  -2.506  0.00  0.00    +0.027 C 
ATOM     20  C   UNL     1      -1.278   3.409  -1.878  0.00  0.00    +0.027 C 
ATOM     21  C   UNL     1       0.973   3.704  -2.903  0.00  0.00    +0.027 C 
ENDBRANCH  16  18
ENDBRANCH  15  16
ENDBRANCH  12  15
ENDBRANCH   4  12
TORSDOF 6
