REMARK  Name = 
REMARK  5 active torsions:
REMARK  status: ('A' for Active; 'I' for Inactive)
REMARK    1  A    between atoms: C_5  and  C_6
REMARK    2  A    between atoms: C_5  and  O_7
REMARK    3  A    between atoms: C_8  and  C_9
REMARK    4  A    between atoms: C_25  and  C_26
REMARK    5  A    between atoms: C_27  and  O_28
REMARK                            x       y       z     vdW  Elec       q    Type
REMARK                         _______ _______ _______ _____ _____    ______ ____
ROOT
ATOM      1  C   UNL     1      -0.000  -0.000  -0.000  0.00  0.00    +0.001 C 
ATOM      2  C   UNL     1      -0.000  -0.000  -0.000  0.00  0.00    -0.004 C 
ATOM      3  C   UNL     1      -0.000  -0.000  -0.000  0.00  0.00    +0.004 C 
ATOM      4  C   UNL     1      -0.000  -0.000   0.000  0.00  0.00    +0.005 C 
ATOM      5  C   UNL     1      -0.000  -0.000   0.000  0.00  0.00    +0.003 C 
ATOM      6  C   UNL     1      -0.000  -0.000   0.000  0.00  0.00    -0.022 C 
ATOM      7  C   UNL     1      -0.000  -0.000   0.000  0.00  0.00    +0.012 C 
ATOM      8  C   UNL     1      -0.000  -0.000   0.000  0.00  0.00    +0.049 C 
ATOM      9  C   UNL     1      -0.000  -0.000  -0.000  0.00  0.00    +0.029 C 
ATOM     10  C   UNL     1      -0.000  -0.000  -0.000  0.00  0.00    +0.190 C 
ATOM     11  C   UNL     1      -0.000  -0.000   0.000  0.00  0.00    +0.162 C 
ATOM     12  O   UNL     1      -0.000  -0.000   0.000  0.00  0.00    -0.292 OA
ATOM     13  C   UNL     1      -0.000  -0.000  -0.000  0.00  0.00    +0.083 C 
ATOM     14  C   UNL     1      -0.000  -0.000   0.000  0.00  0.00    -0.001 C 
ATOM     15  C   UNL     1      -0.000  -0.000   0.000  0.00  0.00    +0.005 C 
ATOM     16  C   UNL     1      -0.000  -0.000  -0.000  0.00  0.00    +0.010 C 
ATOM     17  C   UNL     1      -0.000  -0.000  -0.000  0.00  0.00    -0.000 C 
ATOM     18  C   UNL     1      -0.000  -0.000   0.000  0.00  0.00    +0.014 C 
ATOM     19  C   UNL     1      -0.000  -0.000   0.000  0.00  0.00    +0.069 C 
ATOM     20  C   UNL     1      -0.000  -0.000   0.000  0.00  0.00    +0.042 C 
ATOM     21  C   UNL     1      -0.000  -0.000   0.000  0.00  0.00    +0.035 C 
ATOM     22  C   UNL     1      -0.000  -0.000   0.000  0.00  0.00    +0.007 C 
ENDROOT
BRANCH  10  23
ATOM     23  O   UNL     1      -0.000  -0.000  -0.000  0.00  0.00    -0.514 OA
ATOM     24  H   UNL     1       0.000   0.000   0.000  0.00  0.00    +0.291 HD
ENDBRANCH  10  23
BRANCH  19  25
ATOM     25  O   UNL     1      -0.000  -0.000  -0.000  0.00  0.00    -0.388 OA
ATOM     26  H   UNL     1       0.000   0.000   0.000  0.00  0.00    +0.210 HD
ENDBRANCH  19  25
TORSDOF 2
