REMARK  Name = 
REMARK  5 active torsions:
REMARK  status: ('A' for Active; 'I' for Inactive)
REMARK    1  A    between atoms: C_2  and  C_4
REMARK    2  A    between atoms: C_4  and  C_5
REMARK    3  A    between atoms: C_9  and  C_10
REMARK    4  A    between atoms: C_10  and  C_12
REMARK    5  A    between atoms: C_18  and  N_19
REMARK                            x       y       z     vdW  Elec       q    Type
REMARK                         _______ _______ _______ _____ _____    ______ ____
ROOT
ATOM      1  C   UNL     1       4.660  -0.129   1.234  0.00  0.00    -0.017 A 
ATOM      2  C   UNL     1       5.365  -1.352   1.299  0.00  0.00    +0.039 A 
ATOM      3  C   UNL     1       6.750  -1.348   1.010  0.00  0.00    +0.043 A 
ATOM      4  C   UNL     1       7.434  -0.134   0.828  0.00  0.00    +0.013 A 
ATOM      5  C   UNL     1       6.741   1.069   0.823  0.00  0.00    +0.001 A 
ATOM      6  C   UNL     1       5.362   1.068   0.996  0.00  0.00    +0.006 A 
ENDROOT
BRANCH   2   7
ATOM      7  N   UNL     1       4.735  -2.496   1.837  0.00  0.00    -0.357 N 
ATOM      8  H   UNL     1       3.803  -2.685   1.486  0.00  0.00    +0.142 HD
ATOM      9  H   UNL     1       5.339  -3.328   1.775  0.00  0.00    +0.142 HD
ENDBRANCH   2   7
BRANCH   3  10
ATOM     10  C   UNL     1       7.484  -2.633   0.761  0.00  0.00    +0.195 C 
ATOM     11  O   UNL     1       7.185  -3.655   1.377  0.00  0.00    -0.287 OA
BRANCH  10  12
ATOM     12  C   UNL     1       8.560  -2.687  -0.276  0.00  0.00    +0.022 A 
ATOM     13  C   UNL     1       9.681  -3.492  -0.054  0.00  0.00    +0.012 A 
ATOM     14  C   UNL     1      10.757  -3.450  -0.947  0.00  0.00    +0.001 A 
ATOM     15  C   UNL     1      10.710  -2.618  -2.066  0.00  0.00    +0.000 A 
ATOM     16  C   UNL     1       9.568  -1.863  -2.326  0.00  0.00    +0.001 A 
ATOM     17  C   UNL     1       8.486  -1.915  -1.447  0.00  0.00    +0.012 A 
ENDBRANCH  10  12
ENDBRANCH   3  10
BRANCH   1  18
ATOM     18  C   UNL     1       3.160  -0.040   1.418  0.00  0.00    +0.132 C 
BRANCH  18  22
ATOM     19  N   UNL     1       3.000  -0.755   3.737  0.00  0.00    -0.329 N 
ATOM     20  H   UNL     1       3.726  -1.438   3.525  0.00  0.00    +0.145 HD
ATOM     21  H   UNL     1       2.809  -0.558   4.709  0.00  0.00    +0.145 HD
ATOM     22  C   UNL     1       2.735   0.238   2.840  0.00  0.00    +0.215 C 
ATOM     23  O   UNL     1       2.138   1.254   3.179  0.00  0.00    -0.276 OA
ENDBRANCH  18  22
ENDBRANCH   1  18
TORSDOF 5
