REMARK  Name = 
REMARK  5 active torsions:
REMARK  status: ('A' for Active; 'I' for Inactive)
REMARK    1  A    between atoms: C_2  and  C_19
REMARK    2  A    between atoms: C_11  and  C_12
REMARK    3  A    between atoms: N_21  and  C_22
REMARK    4  A    between atoms: C_22  and  C_23
REMARK    5  A    between atoms: C_23  and  C_24
REMARK                            x       y       z     vdW  Elec       q    Type
REMARK                         _______ _______ _______ _____ _____    ______ ____
ROOT
ATOM      1  C   UNL     1       2.041  -0.145   0.042  0.00  0.00    +0.161 C 
ATOM      2  N   UNL     1       2.457  -1.290   0.876  0.00  0.00    -0.303 N 
ATOM      3  C   UNL     1       2.064  -2.587   0.597  0.00  0.00    +0.127 A 
ATOM      4  C   UNL     1       0.740  -2.940   0.790  0.00  0.00    +0.067 A 
ATOM      5  C   UNL     1       0.387  -4.266   0.658  0.00  0.00    +0.045 A 
ATOM      6  C   UNL     1      -1.012  -4.702   0.966  0.00  0.00    +0.066 C 
ATOM      7  N   UNL     1       1.275  -5.208   0.309  0.00  0.00    -0.217 NA
ATOM      8  C   UNL     1       2.545  -4.797   0.125  0.00  0.00    +0.238 A 
ATOM      9  N   UNL     1       3.489  -5.797  -0.231  0.00  0.00    -0.274 N 
ATOM     10  C   UNL     1       4.829  -5.619  -0.475  0.00  0.00    +0.206 A 
ATOM     11  N   UNL     1       5.433  -6.746  -0.794  0.00  0.00    -0.244 NA
ATOM     12  C   UNL     1       4.452  -7.702  -0.750  0.00  0.00    +0.130 A 
ATOM     13  C   UNL     1       3.245  -7.144  -0.404  0.00  0.00    +0.115 A 
ATOM     14  N   UNL     1       2.978  -3.521   0.266  0.00  0.00    -0.197 NA
ATOM     15  C   UNL     1       3.811  -1.064   1.383  0.00  0.00    +0.107 C 
ATOM     16  C   UNL     1       4.086   0.423   1.130  0.00  0.00    +0.021 C 
ATOM     17  C   UNL     1       2.733   1.014   0.764  0.00  0.00    +0.033 C 
ENDROOT
BRANCH   1  18
ATOM     18  C   UNL     1       0.528   0.127  -0.028  0.00  0.00    +0.234 C 
ATOM     19  N   UNL     1       0.039   0.337  -1.306  0.00  0.00    -0.313 N 
ATOM     20  H   UNL     1       0.694   0.524  -2.057  0.00  0.00    +0.149 HD
ATOM     21  O   UNL     1      -0.200   0.175   0.961  0.00  0.00    -0.274 OA
BRANCH  19  22
ATOM     22  C   UNL     1      -1.365   0.661  -1.510  0.00  0.00    +0.109 C 
BRANCH  22  23
ATOM     23  C   UNL     1      -1.735   0.796  -2.988  0.00  0.00    +0.054 C 
BRANCH  23  24
ATOM     24  C   UNL     1      -3.196   1.131  -3.172  0.00  0.00    -0.042 A 
ATOM     25  C   UNL     1      -4.153   0.097  -3.289  0.00  0.00    +0.007 A 
ATOM     26  C   UNL     1      -5.515   0.388  -3.430  0.00  0.00    +0.050 A 
ATOM     27  C   UNL     1      -5.890   1.714  -3.443  0.00  0.00    +0.166 A 
ATOM     28  O   UNL     1      -7.161   2.180  -3.563  0.00  0.00    -0.453 OA
ATOM     29  C   UNL     1      -6.935   3.603  -3.495  0.00  0.00    +0.466 C 
ATOM     30  O   UNL     1      -5.543   3.958  -3.360  0.00  0.00    -0.453 OA
ATOM     31  C   UNL     1      -4.967   2.726  -3.327  0.00  0.00    +0.166 A 
ATOM     32  C   UNL     1      -3.619   2.470  -3.191  0.00  0.00    +0.053 A 
ENDBRANCH  23  24
ENDBRANCH  22  23
ENDBRANCH  19  22
ENDBRANCH   1  18
TORSDOF 4
