REMARK  Name = 
REMARK  10 active torsions:
REMARK  status: ('A' for Active; 'I' for Inactive)
REMARK    1  A    between atoms: C_1  and  C_2
REMARK    2  A    between atoms: N_4  and  C_26
REMARK    3  A    between atoms: N_8  and  N_9
REMARK    4  A    between atoms: N_9  and  C_10
REMARK    5  A    between atoms: C_11  and  O_12
REMARK    6  A    between atoms: C_13  and  C_17
REMARK    7  A    between atoms: C_21  and  C_23
REMARK    8  A    between atoms: C_23  and  O_24
REMARK    9  A    between atoms: C_29  and  C_30
REMARK   10  A    between atoms: C_31  and  C_32
REMARK                            x       y       z     vdW  Elec       q    Type
REMARK                         _______ _______ _______ _____ _____    ______ ____
ROOT
ATOM      1  N   UNL     1       3.947   3.354   0.247  0.00  0.00    -0.233 N 
ATOM      2  H   UNL     1       4.942   3.181   0.442  0.00  0.00    +0.175 HD
ENDROOT
BRANCH   1   6
ATOM      3  C   UNL     1       1.244  -0.075   0.055  0.00  0.00    +0.070 C 
ATOM      4  C   UNL     1       2.727  -0.109   0.076  0.00  0.00    +0.089 C 
ATOM      5  C   UNL     1       3.539   1.134   0.115  0.00  0.00    +0.168 C 
ATOM      6  N   UNL     1       3.047   2.330   0.187  0.00  0.00    -0.175 NA
ATOM      7  C   UNL     1       4.958   0.692   0.086  0.00  0.00    +0.292 C 
ATOM      8  O   UNL     1       5.891   1.469   0.082  0.00  0.00    -0.266 OA
ATOM      9  N   UNL     1       4.832  -0.690   0.087  0.00  0.00    -0.155 N 
ATOM     10  N   UNL     1       3.502  -1.154   0.075  0.00  0.00    -0.175 NA
BRANCH   9  11
ATOM     11  C   UNL     1       5.890  -1.628   0.140  0.00  0.00    +0.061 A 
ATOM     12  C   UNL     1       5.635  -3.004   0.201  0.00  0.00    +0.029 A 
ATOM     13  C   UNL     1       6.682  -3.947   0.276  0.00  0.00    -0.046 A 
ATOM     14  C   UNL     1       6.310  -5.403   0.350  0.00  0.00    +0.044 C 
ATOM     15  C   UNL     1       8.015  -3.498   0.294  0.00  0.00    -0.047 A 
ATOM     16  C   UNL     1       9.184  -4.437   0.372  0.00  0.00    +0.044 C 
ATOM     17  C   UNL     1       8.266  -2.124   0.225  0.00  0.00    +0.005 A 
ATOM     18  C   UNL     1       7.222  -1.203   0.147  0.00  0.00    +0.026 A 
ENDBRANCH   9  11
ENDBRANCH   1   6
BRANCH   1  19
ATOM     19  C   UNL     1       3.505   4.683   0.429  0.00  0.00    +0.090 A 
ATOM     20  C   UNL     1       4.397   5.671   0.853  0.00  0.00    +0.028 A 
ATOM     21  C   UNL     1       3.961   6.986   1.039  0.00  0.00    +0.003 A 
ATOM     22  C   UNL     1       2.616   7.322   0.847  0.00  0.00    +0.012 A 
ATOM     23  C   UNL     1       1.678   6.355   0.458  0.00  0.00    +0.025 A 
ATOM     24  C   UNL     1       2.168   5.061   0.197  0.00  0.00    +0.147 A 
BRANCH  23  25
ATOM     25  C   UNL     1       0.228   6.645   0.450  0.00  0.00    -0.014 A 
ATOM     26  C   UNL     1      -0.660   5.694   0.987  0.00  0.00    +0.023 A 
ATOM     27  C   UNL     1      -2.039   5.895   1.002  0.00  0.00    +0.059 A 
ATOM     28  C   UNL     1      -2.557   7.116   0.566  0.00  0.00    +0.015 A 
ATOM     29  C   UNL     1      -1.695   8.091   0.059  0.00  0.00    +0.001 A 
ATOM     30  C   UNL     1      -0.317   7.850  -0.017  0.00  0.00    +0.008 A 
BRANCH  27  31
ATOM     31  C   UNL     1      -2.949   4.849   1.509  0.00  0.00    +0.337 C 
ATOM     32  O   UNL     1      -3.988   5.096   2.096  0.00  0.00    -0.245 OA
BRANCH  31  33
ATOM     33  O   UNL     1      -2.544   3.588   1.220  0.00  0.00    -0.477 OA
ATOM     34  H   UNL     1      -1.781   3.541   0.609  0.00  0.00    +0.295 HD
ENDBRANCH  31  33
ENDBRANCH  27  31
ENDBRANCH  23  25
BRANCH  24  35
ATOM     35  O   UNL     1       1.307   4.105  -0.306  0.00  0.00    -0.504 OA
ATOM     36  H   UNL     1       1.882   3.308  -0.335  0.00  0.00    +0.292 HD
ENDBRANCH  24  35
ENDBRANCH   1  19
TORSDOF 7
