REMARK  Name = 
REMARK  8 active torsions:
REMARK  status: ('A' for Active; 'I' for Inactive)
REMARK    1  A    between atoms: C_2  and  O_3
REMARK    2  A    between atoms: C_4  and  O_6
REMARK    3  A    between atoms: C_7  and  N_9
REMARK    4  A    between atoms: N_9  and  C_10
REMARK    5  A    between atoms: C_10  and  C_11
REMARK    6  A    between atoms: C_17  and  S_19
REMARK    7  A    between atoms: S_19  and  C_20
REMARK    8  A    between atoms: C_21  and  O_23
REMARK                            x       y       z     vdW  Elec       q    Type
REMARK                         _______ _______ _______ _____ _____    ______ ____
ROOT
ATOM      1  C   UNL     1       2.094   0.023   0.088  0.00  0.00    +0.174 C 
ATOM      2  C   UNL     1       2.581  -1.264   0.761  0.00  0.00    +0.160 C 
ATOM      3  C   UNL     1       3.824  -0.896   1.601  0.00  0.00    +0.097 C 
ATOM      4  C   UNL     1       4.094   0.616   1.363  0.00  0.00    +0.101 C 
ATOM      5  C   UNL     1       2.690   1.137   0.952  0.00  0.00    +0.163 C 
ENDROOT
BRANCH   2   6
ATOM      6  O   UNL     1       2.902  -2.264  -0.209  0.00  0.00    -0.388 OA
ATOM      7  H   UNL     1       3.148  -1.757  -1.015  0.00  0.00    +0.210 HD
ENDBRANCH   2   6
BRANCH   3   8
ATOM      8  S   UNL     1       3.540  -1.196   3.404  0.00  0.00    -0.156 S 
ATOM      9  C   UNL     1       3.334  -2.998   3.375  0.00  0.00    +0.084 C 
ENDBRANCH   3   8
BRANCH   4  10
ATOM     10  N   UNL     1       5.071   0.934   0.295  0.00  0.00    -0.306 NA
ATOM     11  H   UNL     1       5.138   1.952   0.223  0.00  0.00    +0.123 HD
BRANCH  10  12
ATOM     12  C   UNL     1       6.429   0.464   0.579  0.00  0.00    +0.116 C 
BRANCH  12  13
ATOM     13  C   UNL     1       7.349   0.832  -0.564  0.00  0.00    -0.034 A 
ATOM     14  C   UNL     1       7.099   0.336  -1.854  0.00  0.00    +0.005 A 
ATOM     15  C   UNL     1       7.928   0.680  -2.922  0.00  0.00    +0.000 A 
ATOM     16  C   UNL     1       9.019   1.520  -2.712  0.00  0.00    +0.000 A 
ATOM     17  C   UNL     1       9.284   2.011  -1.435  0.00  0.00    +0.000 A 
ATOM     18  C   UNL     1       8.454   1.670  -0.364  0.00  0.00    +0.005 A 
ENDBRANCH  12  13
ENDBRANCH  10  12
ENDBRANCH   4  10
BRANCH   5  19
ATOM     19  O   UNL     1       2.749   2.364   0.224  0.00  0.00    -0.388 OA
ATOM     20  H   UNL     1       3.354   2.177  -0.520  0.00  0.00    +0.210 HD
ENDBRANCH   5  19
BRANCH   1  21
ATOM     21  O   UNL     1       2.562   0.076  -1.268  0.00  0.00    -0.387 OA
ATOM     22  H   UNL     1       2.119   0.845  -1.674  0.00  0.00    +0.210 HD
ENDBRANCH   1  21
TORSDOF 7
