REMARK  Name = 
REMARK  6 active torsions:
REMARK  status: ('A' for Active; 'I' for Inactive)
REMARK    1  A    between atoms: C_1  and  O_2
REMARK    2  A    between atoms: O_2  and  C_3
REMARK    3  A    between atoms: C_6  and  N_9
REMARK    4  A    between atoms: C_11  and  C_12
REMARK    5  A    between atoms: N_19  and  C_22
REMARK    6  A    between atoms: C_25  and  N_28
REMARK                            x       y       z     vdW  Elec       q    Type
REMARK                         _______ _______ _______ _____ _____    ______ ____
ROOT
ATOM      1  N   UNL     1       5.419   5.072   0.521  0.00  0.00    -0.227 N 
ATOM      2  C   UNL     1       6.800   5.270   0.487  0.00  0.00    +0.133 A 
ATOM      3  C   UNL     1       7.926   4.338   0.425  0.00  0.00    +0.270 C 
ATOM      4  N   UNL     1       9.197   4.986   0.481  0.00  0.00    -0.266 N 
ATOM      5  C   UNL     1       9.279   6.282  -0.205  0.00  0.00    +0.119 C 
ATOM      6  C   UNL     1       8.311   7.290   0.406  0.00  0.00    +0.059 C 
ATOM      7  O   UNL     1       7.810   3.121   0.339  0.00  0.00    -0.268 OA
ATOM      8  C   UNL     1       6.978   6.645   0.490  0.00  0.00    +0.017 A 
ATOM      9  C   UNL     1       5.707   7.232   0.567  0.00  0.00    +0.151 A 
ATOM     10  N   UNL     1       4.752   6.286   0.518  0.00  0.00    -0.161 NA
ENDROOT
BRANCH   1  14
ATOM     11  C   UNL     1       3.110   1.476   0.411  0.00  0.00    +0.120 A 
ATOM     12  C   UNL     1       4.375   1.490   0.999  0.00  0.00    +0.048 A 
ATOM     13  C   UNL     1       5.127   2.673   1.080  0.00  0.00    +0.031 A 
ATOM     14  C   UNL     1       4.640   3.866   0.545  0.00  0.00    +0.066 A 
ATOM     15  C   UNL     1       3.333   3.865   0.017  0.00  0.00    +0.031 A 
ATOM     16  C   UNL     1       2.580   2.676  -0.058  0.00  0.00    +0.048 A 
BRANCH  11  18
ATOM     17  C   UNL     1       1.259   0.129  -0.271  0.00  0.00    +0.277 C 
ATOM     18  O   UNL     1       2.522   0.244   0.368  0.00  0.00    -0.495 OA
ENDBRANCH  11  18
ENDBRANCH   1  14
BRANCH   4  19
ATOM     19  C   UNL     1      10.324   4.451   1.199  0.00  0.00    +0.037 A 
ATOM     20  C   UNL     1      11.535   5.147   1.312  0.00  0.00    +0.025 A 
ATOM     21  C   UNL     1      12.599   4.683   2.110  0.00  0.00    +0.025 A 
ATOM     22  C   UNL     1      12.504   3.502   2.848  0.00  0.00    +0.036 A 
ATOM     23  C   UNL     1      11.306   2.791   2.709  0.00  0.00    +0.025 A 
ATOM     24  C   UNL     1      10.245   3.252   1.907  0.00  0.00    +0.025 A 
BRANCH  22  25
ATOM     25  N   UNL     1      13.514   3.095   3.786  0.00  0.00    -0.271 N 
ATOM     26  C   UNL     1      13.370   1.947   4.581  0.00  0.00    +0.220 C 
ATOM     27  O   UNL     1      12.883   0.877   4.223  0.00  0.00    -0.275 OA
ATOM     28  C   UNL     1      13.694   2.187   6.048  0.00  0.00    +0.096 C 
ATOM     29  C   UNL     1      14.962   2.988   6.281  0.00  0.00    +0.011 C 
ATOM     30  C   UNL     1      14.973   4.235   5.412  0.00  0.00    +0.020 C 
ATOM     31  C   UNL     1      14.763   3.831   3.960  0.00  0.00    +0.113 C 
ENDBRANCH  22  25
ENDBRANCH   4  19
BRANCH   9  32
ATOM     32  C   UNL     1       5.451   8.675   0.676  0.00  0.00    +0.262 C 
ATOM     33  O   UNL     1       6.339   9.527   0.698  0.00  0.00    -0.269 OA
ATOM     34  N   UNL     1       4.145   9.049   0.789  0.00  0.00    -0.324 N 
ATOM     35  H   UNL     1       3.936  10.022   0.953  0.00  0.00    +0.145 HD
ATOM     36  H   UNL     1       3.429   8.339   0.855  0.00  0.00    +0.145 HD
ENDBRANCH   9  32
TORSDOF 5
