REMARK  Name = 
REMARK  4 active torsions:
REMARK  status: ('A' for Active; 'I' for Inactive)
REMARK    1  A    between atoms: C_5  and  C_6
REMARK    2  A    between atoms: C_5  and  O_7
REMARK    3  A    between atoms: C_8  and  C_9
REMARK    4  A    between atoms: C_18  and  O_19
REMARK                            x       y       z     vdW  Elec       q    Type
REMARK                         _______ _______ _______ _____ _____    ______ ____
ROOT
ATOM      1  C   UNL     1      -0.000  -0.000   0.000  0.00  0.00    +0.028 C 
ATOM      2  C   UNL     1      -0.000  -0.000  -0.000  0.00  0.00    -0.040 A 
ATOM      3  C   UNL     1      -0.000  -0.000   0.000  0.00  0.00    +0.005 A 
ATOM      4  C   UNL     1      -0.000  -0.000  -0.000  0.00  0.00    +0.009 A 
ATOM      5  C   UNL     1      -0.000  -0.000   0.000  0.00  0.00    -0.014 A 
ATOM      6  C   UNL     1      -0.000  -0.000  -0.000  0.00  0.00    -0.014 A 
ATOM      7  C   UNL     1      -0.000  -0.000  -0.000  0.00  0.00    +0.012 A 
ATOM      8  C   UNL     1      -0.000  -0.000   0.000  0.00  0.00    +0.046 A 
ATOM      9  C   UNL     1      -0.000  -0.000   0.000  0.00  0.00    +0.117 A 
ATOM     10  C   UNL     1      -0.000  -0.000  -0.000  0.00  0.00    +0.054 A 
ATOM     11  C   UNL     1      -0.000  -0.000   0.000  0.00  0.00    -0.036 A 
ATOM     12  C   UNL     1      -0.000  -0.000   0.000  0.00  0.00    +0.036 C 
ATOM     13  C   UNL     1      -0.000  -0.000   0.000  0.00  0.00    +0.015 C 
ATOM     14  C   UNL     1      -0.000  -0.000   0.000  0.00  0.00    +0.004 C 
ATOM     15  C   UNL     1      -0.000  -0.000   0.000  0.00  0.00    +0.014 C 
ATOM     16  C   UNL     1      -0.000  -0.000   0.000  0.00  0.00    +0.069 C 
ATOM     17  C   UNL     1      -0.000  -0.000   0.000  0.00  0.00    +0.042 C 
ATOM     18  C   UNL     1      -0.000  -0.000   0.000  0.00  0.00    +0.035 C 
ATOM     19  C   UNL     1      -0.000  -0.000   0.000  0.00  0.00    +0.011 C 
ENDROOT
BRANCH   9  20
ATOM     20  O   UNL     1      -0.000  -0.000  -0.000  0.00  0.00    -0.507 OA
ATOM     21  H   UNL     1       0.000   0.000   0.000  0.00  0.00    +0.292 HD
ENDBRANCH   9  20
BRANCH  16  22
ATOM     22  O   UNL     1      -0.000  -0.000   0.000  0.00  0.00    -0.388 OA
ATOM     23  H   UNL     1       0.000   0.000   0.000  0.00  0.00    +0.210 HD
ENDBRANCH  16  22
TORSDOF 2
