REMARK  Name = 
REMARK  7 active torsions:
REMARK  status: ('A' for Active; 'I' for Inactive)
REMARK    1  A    between atoms: C_2  and  C_12
REMARK    2  A    between atoms: C_7  and  C_9
REMARK    3  A    between atoms: C_9  and  C_10
REMARK    4  A    between atoms: C_10  and  C_11
REMARK    5  A    between atoms: N_14  and  C_15
REMARK    6  A    between atoms: C_15  and  C_16
REMARK    7  A    between atoms: C_19  and  C_22
REMARK                            x       y       z     vdW  Elec       q    Type
REMARK                         _______ _______ _______ _____ _____    ______ ____
ROOT
ATOM      1  C   UNL     1       2.498   0.117  -1.458  0.00  0.00    +0.234 C 
ATOM      2  N   UNL     1       3.724  -0.364  -1.861  0.00  0.00    -0.310 N 
ATOM      3  H   UNL     1       4.254  -0.927  -1.206  0.00  0.00    +0.149 HD
ATOM      4  O   UNL     1       1.771   0.787  -2.190  0.00  0.00    -0.274 OA
ENDROOT
BRANCH   1   5
ATOM      5  C   UNL     1       2.158  -0.089   0.031  0.00  0.00    +0.162 C 
ATOM      6  N   UNL     1       2.781  -1.287   0.607  0.00  0.00    -0.290 N 
ATOM      7  C   UNL     1       2.267  -2.570   0.597  0.00  0.00    +0.216 C 
ATOM      8  O   UNL     1       2.777  -3.462   1.278  0.00  0.00    -0.276 OA
ATOM      9  C   UNL     1       3.833  -0.940   1.549  0.00  0.00    +0.108 C 
ATOM     10  C   UNL     1       4.053   0.554   1.372  0.00  0.00    +0.021 C 
ATOM     11  C   UNL     1       2.701   1.058   0.887  0.00  0.00    +0.033 C 
BRANCH   7  12
ATOM     12  C   UNL     1       1.104  -2.864  -0.340  0.00  0.00    +0.096 C 
BRANCH  12  13
ATOM     13  C   UNL     1       0.208  -3.980   0.203  0.00  0.00    +0.006 C 
ATOM     14  C   UNL     1      -0.955  -4.266  -0.734  0.00  0.00    +0.004 C 
ENDBRANCH  12  13
ENDBRANCH   7  12
ENDBRANCH   1   5
BRANCH   2  15
ATOM     15  C   UNL     1       4.263  -0.123  -3.181  0.00  0.00    +0.139 C 
BRANCH  15  16
ATOM     16  C   UNL     1       5.023   1.181  -3.247  0.00  0.00    -0.030 A 
ATOM     17  C   UNL     1       4.348   2.380  -3.522  0.00  0.00    +0.006 A 
ATOM     18  C   UNL     1       5.029   3.601  -3.532  0.00  0.00    +0.016 A 
ATOM     19  C   UNL     1       6.399   3.640  -3.259  0.00  0.00    +0.065 A 
ATOM     20  C   UNL     1       7.088   2.447  -3.013  0.00  0.00    +0.016 A 
ATOM     21  C   UNL     1       6.402   1.226  -2.999  0.00  0.00    +0.006 A 
BRANCH  19  22
ATOM     22  C   UNL     1       7.107   4.952  -3.214  0.00  0.00    +0.308 C 
ATOM     23  N   UNL     1       8.141   5.169  -2.464  0.00  0.00    -0.099 NA
ATOM     24  H   UNL     1       8.363   4.354  -1.889  0.00  0.00    +0.363 HD
ATOM     25  N   UNL     1       6.679   6.002  -3.970  0.00  0.00    -0.247 N 
ATOM     26  H   UNL     1       7.368   6.748  -3.973  0.00  0.00    +0.288 HD
ATOM     27  H   UNL     1       6.340   5.778  -4.898  0.00  0.00    +0.288 HD
ENDBRANCH  19  22
ENDBRANCH  15  16
ENDBRANCH   2  15
TORSDOF 6
