REMARK  Name = 
REMARK  8 active torsions:
REMARK  status: ('A' for Active; 'I' for Inactive)
REMARK    1  A    between atoms: C_1  and  N_2
REMARK    2  A    between atoms: N_2  and  C_3
REMARK    3  A    between atoms: C_3  and  C_4
REMARK    4  A    between atoms: C_4  and  O_5
REMARK    5  A    between atoms: O_5  and  C_6
REMARK    6  A    between atoms: C_9  and  C_12
REMARK    7  A    between atoms: C_15  and  C_18
REMARK    8  A    between atoms: N_22  and  O_23
REMARK                            x       y       z     vdW  Elec       q    Type
REMARK                         _______ _______ _______ _____ _____    ______ ____
ROOT
ATOM      1  C   UNL     1       2.183   1.918  -4.543  0.00  0.00    +0.121 A 
ATOM      2  C   UNL     1       2.193   3.292  -4.783  0.00  0.00    +0.046 A 
ATOM      3  C   UNL     1       1.689   3.815  -5.986  0.00  0.00    +0.012 A 
ATOM      4  C   UNL     1       1.172   2.976  -6.990  0.00  0.00    -0.018 A 
ATOM      5  C   UNL     1       1.092   1.606  -6.684  0.00  0.00    +0.012 A 
ATOM      6  C   UNL     1       1.579   1.085  -5.481  0.00  0.00    +0.046 A 
ENDROOT
BRANCH   4   7
ATOM      7  C   UNL     1       0.833   3.466  -8.352  0.00  0.00    -0.018 A 
ATOM      8  C   UNL     1       1.544   4.528  -8.942  0.00  0.00    +0.010 A 
ATOM      9  C   UNL     1       1.358   4.882 -10.285  0.00  0.00    +0.019 A 
ATOM     10  C   UNL     1       0.451   4.179 -11.077  0.00  0.00    +0.052 A 
ATOM     11  C   UNL     1      -0.303   3.154 -10.506  0.00  0.00    +0.019 A 
ATOM     12  C   UNL     1      -0.123   2.816  -9.158  0.00  0.00    +0.010 A 
BRANCH  10  13
ATOM     13  C   UNL     1       0.320   4.484 -12.471  0.00  0.00    +0.099 C 
ATOM     14  N   UNL     1       0.227   4.721 -13.605  0.00  0.00    -0.191 NA
ENDBRANCH  10  13
ENDBRANCH   4   7
BRANCH   1  15
ATOM     15  O   UNL     1       2.792   1.495  -3.390  0.00  0.00    -0.490 OA
BRANCH  15  16
ATOM     16  C   UNL     1       3.024   0.083  -3.297  0.00  0.00    +0.248 C 
BRANCH  16  17
ATOM     17  C   UNL     1       3.913  -0.223  -2.087  0.00  0.00    +0.150 C 
BRANCH  17  19
ATOM     18  C   UNL     1       5.164  -2.345  -2.545  0.00  0.00    +0.133 C 
ATOM     19  N   UNL     1       4.070  -1.666  -1.864  0.00  0.00    -0.284 N 
ATOM     20  C   UNL     1       3.222  -2.458  -1.110  0.00  0.00    +0.325 C 
ATOM     21  N   UNL     1       2.204  -1.810  -0.454  0.00  0.00    -0.181 N 
ATOM     22  H   UNL     1       1.772  -0.991  -0.860  0.00  0.00    +0.184 HD
ATOM     23  O   UNL     1       3.360  -3.677  -0.995  0.00  0.00    -0.251 OA
BRANCH  21  24
ATOM     24  O   UNL     1       1.293  -2.678   0.207  0.00  0.00    -0.294 OA
ATOM     25  H   UNL     1       1.723  -3.555   0.090  0.00  0.00    +0.241 HD
ENDBRANCH  21  24
ENDBRANCH  17  19
ENDBRANCH  16  17
ENDBRANCH  15  16
ENDBRANCH   1  15
TORSDOF 7
