REMARK  Name = 
REMARK  7 active torsions:
REMARK  status: ('A' for Active; 'I' for Inactive)
REMARK    1  A    between atoms: C_1  and  C_2
REMARK    2  A    between atoms: C_2  and  N_3
REMARK    3  A    between atoms: C_4  and  C_6
REMARK    4  A    between atoms: C_9  and  C_17
REMARK    5  A    between atoms: C_10  and  N_11
REMARK    6  A    between atoms: C_21  and  O_22
REMARK    7  A    between atoms: C_24  and  O_25
REMARK                            x       y       z     vdW  Elec       q    Type
REMARK                         _______ _______ _______ _____ _____    ______ ____
ROOT
ATOM      1  C   UNL     1       4.735   2.452  -1.704  0.00  0.00    +0.168 A 
ATOM      2  C   UNL     1       5.546   2.314  -2.904  0.00  0.00    +0.088 A 
ATOM      3  C   UNL     1       5.741   3.624  -3.353  0.00  0.00    +0.091 A 
ATOM      4  N   UNL     1       5.072   4.400  -2.437  0.00  0.00    -0.274 N 
ATOM      5  H   UNL     1       4.974   5.409  -2.481  0.00  0.00    +0.189 HD
ATOM      6  N   UNL     1       4.541   3.752  -1.398  0.00  0.00    -0.167 NA
ENDROOT
BRANCH   2   7
ATOM      7  N   UNL     1       6.099   1.172  -3.444  0.00  0.00    -0.324 N 
ATOM      8  C   UNL     1       6.108  -0.104  -2.687  0.00  0.00    +0.120 C 
ATOM      9  C   UNL     1       7.282  -1.003  -3.130  0.00  0.00    +0.100 C 
ATOM     10  N   UNL     1       7.328  -1.256  -4.581  0.00  0.00    -0.313 NA
ATOM     11  H   UNL     1       8.210  -1.715  -4.806  0.00  0.00    +0.122 HD
ATOM     12  C   UNL     1       7.246   0.026  -5.305  0.00  0.00    +0.100 C 
ATOM     13  C   UNL     1       6.025   0.892  -4.894  0.00  0.00    +0.120 C 
ENDBRANCH   2   7
BRANCH   3  14
ATOM     14  C   UNL     1       6.484   4.298  -4.441  0.00  0.00    +0.045 A 
ATOM     15  C   UNL     1       6.046   5.531  -4.982  0.00  0.00    +0.130 A 
ATOM     16  C   UNL     1       6.778   6.217  -5.956  0.00  0.00    +0.093 A 
ATOM     17  C   UNL     1       7.959   5.663  -6.427  0.00  0.00    +0.139 A 
ATOM     18  C   UNL     1       8.403   4.434  -5.938  0.00  0.00    +0.083 A 
ATOM     19 CL   UNL     1       9.843   3.723  -6.566  0.00  0.00    -0.080 Cl
ATOM     20  C   UNL     1       7.686   3.772  -4.935  0.00  0.00    +0.037 A 
BRANCH  15  21
ATOM     21  O   UNL     1       4.881   6.100  -4.528  0.00  0.00    -0.506 OA
ATOM     22  H   UNL     1       4.608   6.792  -5.157  0.00  0.00    +0.292 HD
ENDBRANCH  15  21
BRANCH  17  23
ATOM     23  O   UNL     1       8.657   6.379  -7.359  0.00  0.00    -0.505 OA
ATOM     24  H   UNL     1       9.482   5.893  -7.546  0.00  0.00    +0.292 HD
ENDBRANCH  17  23
ENDBRANCH   3  14
BRANCH   1  27
ATOM     25  N   UNL     1       4.073   1.795   0.510  0.00  0.00    -0.310 N 
ATOM     26  H   UNL     1       4.289   2.764   0.713  0.00  0.00    +0.149 HD
ATOM     27  C   UNL     1       4.148   1.422  -0.819  0.00  0.00    +0.266 C 
ATOM     28  O   UNL     1       3.769   0.319  -1.202  0.00  0.00    -0.268 OA
BRANCH  25  30
ATOM     29  C   UNL     1       2.119   0.776   1.603  0.00  0.00    +0.024 C 
ATOM     30  C   UNL     1       3.628   0.879   1.535  0.00  0.00    +0.101 C 
ENDBRANCH  25  30
ENDBRANCH   1  27
TORSDOF 6
