REMARK  Name = 
REMARK  3 active torsions:
REMARK  status: ('A' for Active; 'I' for Inactive)
REMARK    1  A    between atoms: N_1  and  C_2
REMARK    2  A    between atoms: C_5  and  S_8
REMARK    3  A    between atoms: S_8  and  N_11
REMARK                            x       y       z     vdW  Elec       q    Type
REMARK                         _______ _______ _______ _____ _____    ______ ____
ROOT
ATOM      1  S   UNL     1       6.978   0.087  -0.621  0.00  0.00    +0.074 S 
ATOM      2  O   UNL     1       7.294   1.333  -1.287  0.00  0.00    -0.150 OA
ATOM      3  O   UNL     1       7.365  -1.173  -1.223  0.00  0.00    -0.150 OA
ENDROOT
BRANCH   1   4
ATOM      4  N   UNL     1       7.641   0.054   0.930  0.00  0.00    -0.194 N 
ATOM      5  H   UNL     1       8.453  -0.557   0.880  0.00  0.00    +0.176 HD
ATOM      6  C   UNL     1       7.940   1.345   1.409  0.00  0.00    +0.177 A 
ATOM      7  S   UNL     1       9.508   2.018   1.327  0.00  0.00    -0.059 S 
ATOM      8  C   UNL     1       8.937   3.396   2.175  0.00  0.00    +0.068 A 
ATOM      9  C   UNL     1       7.617   3.203   2.528  0.00  0.00    +0.120 A 
ATOM     10  N   UNL     1       7.039   2.037   2.062  0.00  0.00    -0.232 NA
ENDBRANCH   1   4
BRANCH   1  14
ATOM     11  C   UNL     1       2.449  -0.039  -0.051  0.00  0.00    +0.025 A 
ATOM     12  C   UNL     1       3.188  -1.227  -0.086  0.00  0.00    +0.024 A 
ATOM     13  C   UNL     1       4.576  -1.202  -0.252  0.00  0.00    +0.030 A 
ATOM     14  C   UNL     1       5.234   0.026  -0.325  0.00  0.00    +0.109 A 
ATOM     15  C   UNL     1       4.517   1.221  -0.241  0.00  0.00    +0.030 A 
ATOM     16  C   UNL     1       3.131   1.182  -0.077  0.00  0.00    +0.024 A 
BRANCH  11  17
ATOM     17  N   UNL     1       1.079  -0.070   0.232  0.00  0.00    -0.358 N 
ATOM     18  H   UNL     1       0.615  -0.918  -0.078  0.00  0.00    +0.142 HD
ATOM     19  H   UNL     1       0.583   0.766  -0.061  0.00  0.00    +0.142 HD
ENDBRANCH  11  17
ENDBRANCH   1  14
TORSDOF 3
