REMARK  Name = 
REMARK  1 active torsions:
REMARK  status: ('A' for Active; 'I' for Inactive)
REMARK    1  A    between atoms: C_29  and  C_31
REMARK                            x       y       z     vdW  Elec       q    Type
REMARK                         _______ _______ _______ _____ _____    ______ ____
ROOT
ATOM      1  C   UNL     1       3.568   2.480  -0.647  0.00  0.00    +0.189 C 
ATOM      2  C   UNL     1       3.337   0.905  -0.782  0.00  0.00    +0.064 C 
ATOM      3  C   UNL     1       3.747   0.256   0.589  0.00  0.00    +0.057 C 
ATOM      4  C   UNL     1       4.370  -1.149   0.584  0.00  0.00    +0.024 C 
ATOM      5  N   UNL     1       4.582   1.296   1.234  0.00  0.00    -0.294 NA
ATOM      6  C   UNL     1       5.905   1.366   0.563  0.00  0.00    +0.108 C 
ATOM      7  C   UNL     1       7.117   0.540   1.038  0.00  0.00    +0.160 C 
ATOM      8  N   UNL     1       8.150   0.539  -0.013  0.00  0.00    -0.250 N 
ATOM      9  C   UNL     1       8.560  -0.519  -0.827  0.00  0.00    +0.275 A 
ATOM     10  O   UNL     1       8.326  -1.707  -0.712  0.00  0.00    -0.266 OA
ATOM     11  C   UNL     1       9.264   0.085  -1.974  0.00  0.00    +0.066 A 
ATOM     12  C   UNL     1       9.062   1.436  -1.822  0.00  0.00    +0.077 A 
ATOM     13  C   UNL     1       9.307   2.312  -2.871  0.00  0.00    +0.031 A 
ATOM     14  C   UNL     1       8.533   3.546  -2.772  0.00  0.00    +0.138 A 
ATOM     15  C   UNL     1       9.190   4.911  -2.921  0.00  0.00    +0.275 A 
ATOM     16  O   UNL     1      10.346   5.005  -3.288  0.00  0.00    -0.266 OA
ATOM     17  N   UNL     1       8.397   5.957  -2.565  0.00  0.00    -0.319 N 
ATOM     18  H   UNL     1       8.815   6.876  -2.598  0.00  0.00    +0.169 HD
ATOM     19  C   UNL     1       7.050   5.790  -2.169  0.00  0.00    +0.071 A 
ATOM     20  C   UNL     1       6.272   6.907  -1.897  0.00  0.00    +0.028 A 
ATOM     21  C   UNL     1       4.937   6.714  -1.534  0.00  0.00    +0.006 A 
ATOM     22  C   UNL     1       4.376   5.416  -1.359  0.00  0.00    +0.048 A 
ATOM     23  C   UNL     1       5.147   4.272  -1.588  0.00  0.00    +0.148 A 
ATOM     24  C   UNL     1       6.482   4.490  -2.063  0.00  0.00    +0.130 A 
ATOM     25  N   UNL     1       7.280   3.394  -2.398  0.00  0.00    -0.236 NA
ATOM     26  C   UNL     1       9.952   1.863  -4.020  0.00  0.00    +0.012 A 
ATOM     27  C   UNL     1      10.247   0.486  -4.121  0.00  0.00    +0.002 A 
ATOM     28  C   UNL     1       9.851  -0.422  -3.118  0.00  0.00    +0.015 A 
ATOM     29  N   UNL     1       8.471   1.797  -0.589  0.00  0.00    -0.293 N 
ATOM     30  H   UNL     1       7.633   2.342  -0.854  0.00  0.00    +0.187 HD
ATOM     31  O   UNL     1       4.705   2.959  -1.450  0.00  0.00    -0.485 OA
ATOM     32  C   UNL     1       3.804   2.536   0.875  0.00  0.00    +0.129 C 
ENDROOT
TORSDOF 0
