REMARK  Name = 
REMARK  8 active torsions:
REMARK  status: ('A' for Active; 'I' for Inactive)
REMARK    1  A    between atoms: C_2  and  C_3
REMARK    2  A    between atoms: C_2  and  C_10
REMARK    3  A    between atoms: C_2  and  C_12
REMARK    4  A    between atoms: C_3  and  C_4
REMARK    5  A    between atoms: C_4  and  C_5
REMARK    6  A    between atoms: C_5  and  C_6
REMARK    7  A    between atoms: C_6  and  C_7
REMARK    8  A    between atoms: C_17  and  O_19
REMARK                            x       y       z     vdW  Elec       q    Type
REMARK                         _______ _______ _______ _____ _____    ______ ____
ROOT
ATOM      1  C   UNL     1       2.186  -0.030   0.034  0.00  0.00    +0.057 C 
ENDROOT
BRANCH   1   2
ATOM      2  C   UNL     1       2.613  -0.792   1.306  0.00  0.00    +0.027 C 
ATOM      3  C   UNL     1       4.127  -1.090   1.327  0.00  0.00    +0.118 C 
ATOM      4  C   UNL     1       4.309  -2.455   1.993  0.00  0.00    +0.031 C 
ATOM      5  C   UNL     1       2.917  -2.881   2.437  0.00  0.00    +0.003 C 
ATOM      6  C   UNL     1       1.980  -2.175   1.467  0.00  0.00    +0.007 C 
BRANCH   3   7
ATOM      7  O   UNL     1       4.819  -0.074   2.033  0.00  0.00    -0.391 OA
ATOM      8  H   UNL     1       4.527  -0.093   2.964  0.00  0.00    +0.210 HD
ENDBRANCH   3   7
ENDBRANCH   1   2
BRANCH   1   9
ATOM      9  C   UNL     1       2.867   1.333   0.053  0.00  0.00    +0.227 C 
ATOM     10  O   UNL     1       2.337   2.362   0.462  0.00  0.00    -0.301 OA
ENDBRANCH   1   9
BRANCH   1  11
ATOM     11  C   UNL     1       0.658   0.125  -0.109  0.00  0.00    +0.011 C 
BRANCH  11  12
ATOM     12  C   UNL     1       0.268   0.744  -1.461  0.00  0.00    +0.001 C 
BRANCH  12  13
ATOM     13  C   UNL     1      -1.248   0.882  -1.621  0.00  0.00    +0.012 C 
BRANCH  13  14
ATOM     14  C   UNL     1      -1.596   1.512  -2.970  0.00  0.00    +0.127 C 
BRANCH  14  15
ATOM     15  C   UNL     1      -3.095   1.615  -3.150  0.00  0.00    +0.276 C 
ATOM     16  N   UNL     1      -3.785   0.643  -3.651  0.00  0.00    -0.104 NA
ATOM     17  H   UNL     1      -3.171  -0.137  -3.906  0.00  0.00    +0.363 HD
ATOM     18  N   UNL     1      -3.743   2.741  -2.756  0.00  0.00    -0.251 N 
ATOM     19  H   UNL     1      -4.749   2.614  -2.705  0.00  0.00    +0.288 HD
ATOM     20  H   UNL     1      -3.350   3.264  -1.984  0.00  0.00    +0.288 HD
ENDBRANCH  14  15
ENDBRANCH  13  14
ENDBRANCH  12  13
ENDBRANCH  11  12
ENDBRANCH   1  11
TORSDOF 8
