REMARK  Name = 
REMARK  11 active torsions:
REMARK  status: ('A' for Active; 'I' for Inactive)
REMARK    1  A    between atoms: C_2  and  C_3
REMARK    2  A    between atoms: C_2  and  C_10
REMARK    3  A    between atoms: C_2  and  C_13
REMARK    4  A    between atoms: C_3  and  C_4
REMARK    5  A    between atoms: C_4  and  C_5
REMARK    6  A    between atoms: C_5  and  C_6
REMARK    7  A    between atoms: C_6  and  C_7
REMARK    8  A    between atoms: C_10  and  O_11
REMARK    9  A    between atoms: C_18  and  O_20
REMARK   10  A    between atoms: C_23  and  C_25
REMARK   11  A    between atoms: C_28  and  O_29
REMARK                            x       y       z     vdW  Elec       q    Type
REMARK                         _______ _______ _______ _____ _____    ______ ____
ROOT
ATOM      1  C   UNL     1       2.473   1.840  -0.224  0.00  0.00    +0.062 C 
ATOM      2  C   UNL     1       1.981   3.283  -0.555  0.00  0.00    +0.127 C 
ATOM      3  C   UNL     1       2.441   4.219   0.571  0.00  0.00    +0.067 C 
ATOM      4  C   UNL     1       2.793   3.265   1.668  0.00  0.00    -0.041 A 
ATOM      5  C   UNL     1       3.022   3.611   2.988  0.00  0.00    +0.004 A 
ATOM      6  C   UNL     1       3.271   2.595   3.909  0.00  0.00    +0.009 A 
ATOM      7  C   UNL     1       3.320   1.228   3.539  0.00  0.00    -0.018 A 
ATOM      8  C   UNL     1       3.118   0.920   2.166  0.00  0.00    +0.012 A 
ATOM      9  C   UNL     1       2.857   1.940   1.239  0.00  0.00    -0.037 A 
ENDROOT
BRANCH   7  10
ATOM     10  C   UNL     1       3.516   0.192   4.598  0.00  0.00    -0.018 A 
ATOM     11  C   UNL     1       4.293   0.458   5.749  0.00  0.00    +0.012 A 
ATOM     12  C   UNL     1       4.409  -0.463   6.798  0.00  0.00    +0.046 A 
ATOM     13  C   UNL     1       3.763  -1.684   6.712  0.00  0.00    +0.117 A 
ATOM     14  C   UNL     1       3.009  -1.999   5.590  0.00  0.00    +0.046 A 
ATOM     15  C   UNL     1       2.886  -1.066   4.546  0.00  0.00    +0.012 A 
BRANCH  13  16
ATOM     16  O   UNL     1       3.884  -2.544   7.762  0.00  0.00    -0.507 OA
ATOM     17  H   UNL     1       3.341  -3.330   7.590  0.00  0.00    +0.292 HD
ENDBRANCH  13  16
ENDBRANCH   7  10
BRANCH   2  18
ATOM     18  O   UNL     1       0.552   3.283  -0.654  0.00  0.00    -0.391 OA
ATOM     19  H   UNL     1       0.196   3.008   0.209  0.00  0.00    +0.210 HD
ENDBRANCH   2  18
BRANCH   1  20
ATOM     20  C   UNL     1       3.522   1.320  -1.230  0.00  0.00    +0.107 C 
BRANCH  20  21
ATOM     21  C   UNL     1       4.722   2.249  -1.348  0.00  0.00    +0.308 C 
ATOM     22  O   UNL     1       4.768   3.231  -2.076  0.00  0.00    -0.251 OA
BRANCH  21  23
ATOM     23  O   UNL     1       5.766   1.891  -0.573  0.00  0.00    -0.480 OA
ATOM     24  H   UNL     1       5.605   1.121   0.004  0.00  0.00    +0.295 HD
ENDBRANCH  21  23
ENDBRANCH  20  21
BRANCH  20  25
ATOM     25  C   UNL     1       2.857   1.141  -2.626  0.00  0.00    +0.015 C 
BRANCH  25  26
ATOM     26  C   UNL     1       3.722   0.457  -3.690  0.00  0.00    +0.001 C 
BRANCH  26  27
ATOM     27  C   UNL     1       4.052  -0.984  -3.322  0.00  0.00    +0.012 C 
BRANCH  27  28
ATOM     28  C   UNL     1       4.916  -1.666  -4.375  0.00  0.00    +0.127 C 
BRANCH  28  29
ATOM     29  C   UNL     1       5.241  -3.060  -3.887  0.00  0.00    +0.276 C 
ATOM     30  N   UNL     1       6.252  -3.284  -3.114  0.00  0.00    -0.104 NA
ATOM     31  H   UNL     1       6.760  -2.414  -2.926  0.00  0.00    +0.363 HD
ATOM     32  N   UNL     1       4.429  -4.094  -4.224  0.00  0.00    -0.251 N 
ATOM     33  H   UNL     1       4.849  -4.995  -4.022  0.00  0.00    +0.288 HD
ATOM     34  H   UNL     1       3.956  -4.048  -5.117  0.00  0.00    +0.288 HD
ENDBRANCH  28  29
ENDBRANCH  27  28
ENDBRANCH  26  27
ENDBRANCH  25  26
ENDBRANCH  20  25
ENDBRANCH   1  20
TORSDOF 11
