REMARK  Name = 
REMARK  8 active torsions:
REMARK  status: ('A' for Active; 'I' for Inactive)
REMARK    1  A    between atoms: C_1  and  C_2
REMARK    2  A    between atoms: C_2  and  N_3
REMARK    3  A    between atoms: C_4  and  C_6
REMARK    4  A    between atoms: C_9  and  C_16
REMARK    5  A    between atoms: C_22  and  O_23
REMARK    6  A    between atoms: O_23  and  C_24
REMARK    7  A    between atoms: C_24  and  C_25
REMARK    8  A    between atoms: C_25  and  N_26
REMARK                            x       y       z     vdW  Elec       q    Type
REMARK                         _______ _______ _______ _____ _____    ______ ____
ROOT
ATOM      1  C   UNL     1       4.341   3.037   1.852  0.00  0.00    +0.076 A 
ATOM      2  S   UNL     1       6.001   3.288   2.161  0.00  0.00    -0.064 S 
ATOM      3  C   UNL     1       5.929   4.893   1.604  0.00  0.00    +0.115 A 
ATOM      4  C   UNL     1       4.695   5.239   1.073  0.00  0.00    +0.035 A 
ATOM      5  C   UNL     1       4.653   6.493   0.427  0.00  0.00    +0.086 A 
ATOM      6  N   UNL     1       5.748   7.306   0.551  0.00  0.00    -0.214 NA
ATOM      7  C   UNL     1       6.829   6.889   1.212  0.00  0.00    +0.214 A 
ATOM      8  N   UNL     1       7.843   7.801   1.411  0.00  0.00    -0.327 N 
ATOM      9  H   UNL     1       8.720   7.328   1.580  0.00  0.00    +0.145 HD
ATOM     10  H   UNL     1       7.824   8.532   0.717  0.00  0.00    +0.145 HD
ATOM     11  N   UNL     1       7.016   5.670   1.690  0.00  0.00    -0.207 NA
ATOM     12  C   UNL     1       3.753   4.195   1.373  0.00  0.00    +0.033 A 
ENDROOT
BRANCH   5  13
ATOM     13  C   UNL     1       3.524   7.068  -0.350  0.00  0.00    +0.023 A 
ATOM     14  C   UNL     1       3.402   8.485  -0.385  0.00  0.00    +0.058 A 
ATOM     15  C   UNL     1       2.424   9.153  -1.139  0.00  0.00    +0.139 A 
ATOM     16  C   UNL     1       1.453   8.401  -1.796  0.00  0.00    +0.084 A 
ATOM     17 CL   UNL     1       0.174   9.147  -2.683  0.00  0.00    -0.080 Cl
ATOM     18  C   UNL     1       1.541   7.013  -1.801  0.00  0.00    +0.044 A 
ATOM     19  C   UNL     1       2.600   6.359  -1.145  0.00  0.00    +0.052 A 
ATOM     20 CL   UNL     1       2.757   4.682  -1.547  0.00  0.00    -0.083 Cl
BRANCH  15  21
ATOM     21  O   UNL     1       2.355  10.519  -1.232  0.00  0.00    -0.489 OA
BRANCH  21  22
ATOM     22  C   UNL     1       3.623  11.181  -1.363  0.00  0.00    +0.244 C 
BRANCH  22  23
ATOM     23  C   UNL     1       3.373  12.656  -1.726  0.00  0.00    +0.125 C 
BRANCH  23  24
ATOM     24  N   UNL     1       4.592  13.480  -1.754  0.00  0.00    -0.299 NA
ATOM     25  C   UNL     1       5.302  13.507  -0.470  0.00  0.00    +0.084 C 
ATOM     26  C   UNL     1       6.016  14.852  -0.418  0.00  0.00    +0.017 C 
ATOM     27  C   UNL     1       5.573  15.587  -1.671  0.00  0.00    +0.017 C 
ATOM     28  C   UNL     1       4.294  14.879  -2.075  0.00  0.00    +0.084 C 
ENDBRANCH  23  24
ENDBRANCH  22  23
ENDBRANCH  21  22
ENDBRANCH  15  21
ENDBRANCH   5  13
BRANCH   1  31
ATOM     29  N   UNL     1       4.540   0.700   2.370  0.00  0.00    -0.311 N 
ATOM     30  H   UNL     1       5.529   0.893   2.460  0.00  0.00    +0.149 HD
ATOM     31  C   UNL     1       3.694   1.755   2.084  0.00  0.00    +0.251 C 
ATOM     32  O   UNL     1       2.476   1.600   2.007  0.00  0.00    -0.270 OA
BRANCH  29  34
ATOM     33  C   UNL     1       3.713  -0.849   4.075  0.00  0.00    +0.024 C 
ATOM     34  C   UNL     1       4.066  -0.644   2.614  0.00  0.00    +0.101 C 
ENDBRANCH  29  34
ENDBRANCH   1  31
TORSDOF 7
