REMARK  Name = 
REMARK  1 active torsions:
REMARK  status: ('A' for Active; 'I' for Inactive)
REMARK    1  A    between atoms: N_1  and  C_2
REMARK                            x       y       z     vdW  Elec       q    Type
REMARK                         _______ _______ _______ _____ _____    ______ ____
ROOT
ATOM      1  C   UNL     1       2.371  -0.031   0.042  0.00  0.00    +0.027 A 
ATOM      2  C   UNL     1       3.098  -1.218   0.029  0.00  0.00    +0.042 A 
ATOM      3  C   UNL     1       4.478  -1.155  -0.087  0.00  0.00    +0.112 A 
ATOM      4  N   UNL     1       5.174  -0.002  -0.157  0.00  0.00    -0.263 NA
ATOM      5  C   UNL     1       4.455   1.137  -0.078  0.00  0.00    +0.112 A 
ATOM      6  C   UNL     1       3.074   1.171   0.042  0.00  0.00    +0.042 A 
ENDROOT
BRANCH   1   7
ATOM      7  N   UNL     1       0.992  -0.046   0.285  0.00  0.00    -0.358 N 
ATOM      8  H   UNL     1       0.525  -0.889  -0.037  0.00  0.00    +0.142 HD
ATOM      9  H   UNL     1       0.510   0.796  -0.014  0.00  0.00    +0.142 HD
ENDBRANCH   1   7
TORSDOF 1
