REMARK  Name = 
REMARK  13 active torsions:
REMARK  status: ('A' for Active; 'I' for Inactive)
REMARK    1  A    between atoms: C_1  and  C_2
REMARK    2  A    between atoms: C_2  and  C_3
REMARK    3  A    between atoms: C_3  and  C_4
REMARK    4  A    between atoms: C_4  and  N_5
REMARK    5  A    between atoms: N_5  and  C_6
REMARK    6  A    between atoms: N_5  and  C_10
REMARK    7  A    between atoms: C_6  and  C_7
REMARK    8  A    between atoms: C_7  and  C_8
REMARK    9  A    between atoms: C_8  and  C_9
REMARK   10  A    between atoms: C_10  and  C_11
REMARK   11  A    between atoms: C_11  and  O_12
REMARK   12  A    between atoms: C_11  and  C_13
REMARK   13  A    between atoms: C_21  and  C_22
REMARK                            x       y       z     vdW  Elec       q    Type
REMARK                         _______ _______ _______ _____ _____    ______ ____
ROOT
ATOM      1  C   UNL     1       8.412   2.377   3.615  0.00  0.00    -0.008 A 
ATOM      2  C   UNL     1       9.146   3.524   3.205  0.00  0.00    +0.026 A 
ATOM      3  C   UNL     1      10.537   3.547   3.183  0.00  0.00    +0.042 A 
ATOM      4 CL   UNL     1      11.365   4.957   2.652  0.00  0.00    -0.084 Cl
ATOM      5  C   UNL     1      11.250   2.428   3.569  0.00  0.00    +0.029 A 
ATOM      6  C   UNL     1      10.567   1.307   4.009  0.00  0.00    -0.008 A 
ATOM      7  C   UNL     1      11.074  -0.000   4.507  0.00  0.00    -0.009 C 
ATOM      8  C   UNL     1       9.915  -0.885   4.756  0.00  0.00    -0.008 A 
ATOM      9  C   UNL     1       9.866  -2.214   5.167  0.00  0.00    +0.029 A 
ATOM     10  C   UNL     1       8.619  -2.792   5.364  0.00  0.00    +0.042 A 
ATOM     11 CL   UNL     1       8.505  -4.436   5.861  0.00  0.00    -0.084 Cl
ATOM     12  C   UNL     1       7.454  -2.045   5.171  0.00  0.00    +0.020 A 
ATOM     13  C   UNL     1       7.520  -0.705   4.753  0.00  0.00    +0.010 A 
ATOM     14  C   UNL     1       8.752  -0.109   4.513  0.00  0.00    -0.009 A 
ATOM     15  C   UNL     1      12.336  -0.369   4.803  0.00  0.00    +0.017 C 
ATOM     16  C   UNL     1       9.138   1.249   4.032  0.00  0.00    -0.004 A 
ENDROOT
BRANCH  15  17
ATOM     17  C   UNL     1      13.495   0.515   4.687  0.00  0.00    -0.024 A 
ATOM     18  C   UNL     1      14.183   0.607   3.473  0.00  0.00    +0.009 A 
ATOM     19  C   UNL     1      15.120   1.625   3.282  0.00  0.00    +0.020 A 
ATOM     20  C   UNL     1      15.382   2.528   4.315  0.00  0.00    +0.041 A 
ATOM     21 CL   UNL     1      16.450   3.847   4.038  0.00  0.00    -0.084 Cl
ATOM     22  C   UNL     1      14.750   2.398   5.550  0.00  0.00    +0.020 A 
ATOM     23  C   UNL     1      13.805   1.388   5.739  0.00  0.00    +0.009 A 
ENDBRANCH  15  17
BRANCH   1  24
ATOM     24  C   UNL     1       6.915   2.503   3.530  0.00  0.00    +0.159 C 
BRANCH  24  25
ATOM     25  O   UNL     1       6.370   2.264   4.821  0.00  0.00    -0.386 OA
ATOM     26  H   UNL     1       5.545   1.768   4.688  0.00  0.00    +0.210 HD
ENDBRANCH  24  25
BRANCH  24  27
ATOM     27  C   UNL     1       6.316   1.607   2.409  0.00  0.00    +0.120 C 
BRANCH  27  28
ATOM     28  N   UNL     1       4.839   1.701   2.212  0.00  0.00    -0.300 NA
BRANCH  28  29
ATOM     29  C   UNL     1       4.511   3.056   1.690  0.00  0.00    +0.084 C 
BRANCH  29  30
ATOM     30  C   UNL     1       3.047   3.357   1.331  0.00  0.00    +0.015 C 
BRANCH  30  32
ATOM     31  C   UNL     1       0.655   3.520   2.054  0.00  0.00    +0.004 C 
ATOM     32  C   UNL     1       2.079   3.228   2.505  0.00  0.00    -0.002 C 
ENDBRANCH  30  32
ENDBRANCH  29  30
ENDBRANCH  28  29
BRANCH  28  33
ATOM     33  C   UNL     1       4.399   0.663   1.244  0.00  0.00    +0.084 C 
BRANCH  33  34
ATOM     34  C   UNL     1       4.632  -0.805   1.646  0.00  0.00    +0.015 C 
BRANCH  34  35
ATOM     35  C   UNL     1       3.940  -1.211   2.948  0.00  0.00    -0.002 C 
ATOM     36  C   UNL     1       4.196  -2.682   3.251  0.00  0.00    +0.004 C 
ENDBRANCH  34  35
ENDBRANCH  33  34
ENDBRANCH  28  33
ENDBRANCH  27  28
ENDBRANCH  24  27
ENDBRANCH   1  24
TORSDOF 11
