REMARK  Name = 
REMARK  8 active torsions:
REMARK  status: ('A' for Active; 'I' for Inactive)
REMARK    1  A    between atoms: C_1  and  S_2
REMARK    2  A    between atoms: S_2  and  C_5
REMARK    3  A    between atoms: C_8  and  C_9
REMARK    4  A    between atoms: C_9  and  N_10
REMARK    5  A    between atoms: N_13  and  C_16
REMARK    6  A    between atoms: C_17  and  C_21
REMARK    7  A    between atoms: C_25  and  O_26
REMARK    8  A    between atoms: C_28  and  O_29
REMARK                            x       y       z     vdW  Elec       q    Type
REMARK                         _______ _______ _______ _____ _____    ______ ____
ROOT
ATOM      1  N   UNL     1       5.481  -1.896   5.856  0.00  0.00    -0.295 NA
ATOM      2  C   UNL     1       6.368  -2.758   5.024  0.00  0.00    +0.103 C 
ATOM      3  C   UNL     1       5.834  -3.307   3.656  0.00  0.00    +0.120 C 
ATOM      4  N   UNL     1       4.438  -3.794   3.712  0.00  0.00    -0.325 N 
ATOM      5  C   UNL     1       3.578  -3.051   4.636  0.00  0.00    +0.120 C 
ATOM      6  C   UNL     1       4.205  -2.612   5.960  0.00  0.00    +0.103 C 
ENDROOT
BRANCH   4   7
ATOM      7  C   UNL     1       3.892  -4.550   2.677  0.00  0.00    +0.076 A 
ATOM      8  C   UNL     1       4.622  -5.207   1.642  0.00  0.00    +0.157 A 
ATOM      9  N   UNL     1       3.865  -5.988   0.868  0.00  0.00    -0.180 NA
ATOM     10  N   UNL     1       2.649  -5.865   1.420  0.00  0.00    -0.275 N 
ATOM     11  H   UNL     1       1.896  -6.457   1.084  0.00  0.00    +0.189 HD
ATOM     12  C   UNL     1       2.561  -4.906   2.402  0.00  0.00    +0.090 A 
BRANCH  12  13
ATOM     13  C   UNL     1       1.246  -4.563   2.988  0.00  0.00    +0.045 A 
ATOM     14  C   UNL     1       0.265  -5.513   3.318  0.00  0.00    +0.130 A 
ATOM     15  C   UNL     1      -0.785  -5.189   4.185  0.00  0.00    +0.093 A 
ATOM     16  C   UNL     1      -0.836  -3.916   4.743  0.00  0.00    +0.139 A 
ATOM     17  C   UNL     1       0.044  -2.932   4.308  0.00  0.00    +0.083 A 
ATOM     18 CL   UNL     1       0.093  -1.388   5.074  0.00  0.00    -0.080 Cl
ATOM     19  C   UNL     1       0.991  -3.233   3.334  0.00  0.00    +0.037 A 
BRANCH  14  20
ATOM     20  O   UNL     1       0.334  -6.775   2.788  0.00  0.00    -0.506 OA
ATOM     21  H   UNL     1      -0.485  -7.251   3.018  0.00  0.00    +0.292 HD
ENDBRANCH  14  20
BRANCH  16  22
ATOM     22  O   UNL     1      -1.758  -3.677   5.722  0.00  0.00    -0.505 OA
ATOM     23  H   UNL     1      -1.599  -2.772   6.055  0.00  0.00    +0.292 HD
ENDBRANCH  16  22
ENDBRANCH  12  13
ENDBRANCH   4   7
BRANCH   1  24
ATOM     24  C   UNL     1       5.367  -0.538   5.295  0.00  0.00    +0.119 C 
BRANCH  24  28
ATOM     25  C   UNL     1       3.186   2.665   7.285  0.00  0.00    +0.088 A 
ATOM     26  C   UNL     1       3.471   2.712   5.923  0.00  0.00    +0.027 A 
ATOM     27  C   UNL     1       4.163   1.657   5.325  0.00  0.00    +0.007 A 
ATOM     28  C   UNL     1       4.571   0.525   6.059  0.00  0.00    -0.033 A 
ATOM     29  C   UNL     1       4.302   0.504   7.439  0.00  0.00    +0.007 A 
ATOM     30  C   UNL     1       3.588   1.567   8.048  0.00  0.00    +0.027 A 
BRANCH  25  32
ATOM     31  C   UNL     1       3.431   5.283   8.248  0.00  0.00    +0.200 C 
ATOM     32  S   UNL     1       2.232   3.991   8.000  0.00  0.00    -0.006 S 
ATOM     33  O   UNL     1       1.304   4.444   6.978  0.00  0.00    -0.170 OA
ATOM     34  O   UNL     1       1.765   3.562   9.301  0.00  0.00    -0.170 OA
ENDBRANCH  25  32
ENDBRANCH  24  28
ENDBRANCH   1  24
TORSDOF 7
