REMARK  Name = 
REMARK  8 active torsions:
REMARK  status: ('A' for Active; 'I' for Inactive)
REMARK    1  A    between atoms: C_1  and  O_2
REMARK    2  A    between atoms: O_2  and  C_3
REMARK    3  A    between atoms: C_3  and  C_4
REMARK    4  A    between atoms: C_4  and  C_5
REMARK    5  A    between atoms: C_5  and  N_6
REMARK    6  A    between atoms: C_9  and  N_12
REMARK    7  A    between atoms: C_13  and  C_15
REMARK    8  A    between atoms: C_21  and  N_22
REMARK                            x       y       z     vdW  Elec       q    Type
REMARK                         _______ _______ _______ _____ _____    ______ ____
ROOT
ATOM      1  N   UNL     1       8.605   2.914  -5.014  0.00  0.00    -0.308 N 
ATOM      2  H   UNL     1       9.155   2.257  -4.468  0.00  0.00    +0.149 HD
ATOM      3  C   UNL     1       9.280   3.935  -5.641  0.00  0.00    +0.248 C 
ATOM      4  O   UNL     1       8.709   4.864  -6.202  0.00  0.00    -0.270 OA
ENDROOT
BRANCH   3   5
ATOM      5  C   UNL     1      10.769   3.873  -5.631  0.00  0.00    +0.080 A 
ATOM      6  C   UNL     1      11.466   4.831  -6.376  0.00  0.00    +0.038 A 
ATOM      7  C   UNL     1      12.866   4.803  -6.444  0.00  0.00    +0.063 A 
ATOM      8 CL   UNL     1      13.659   6.007  -7.403  0.00  0.00    -0.082 Cl
ATOM      9  C   UNL     1      13.620   3.845  -5.738  0.00  0.00    +0.050 A 
ATOM     10  C   UNL     1      12.907   2.888  -5.024  0.00  0.00    +0.020 A 
ATOM     11  C   UNL     1      13.431   1.741  -4.246  0.00  0.00    +0.081 C 
ATOM     12  C   UNL     1      12.131   1.116  -3.749  0.00  0.00    +0.234 C 
ATOM     13  O   UNL     1      10.996   1.893  -4.195  0.00  0.00    -0.491 OA
ATOM     14  C   UNL     1      11.516   2.908  -4.960  0.00  0.00    +0.138 A 
BRANCH   9  15
ATOM     15  N   UNL     1      15.003   3.708  -5.926  0.00  0.00    -0.357 N 
ATOM     16  H   UNL     1      15.442   4.565  -6.260  0.00  0.00    +0.142 HD
ATOM     17  H   UNL     1      15.504   3.285  -5.153  0.00  0.00    +0.142 HD
ENDBRANCH   9  15
ENDBRANCH   3   5
BRANCH   1  21
ATOM     18  N   UNL     1       6.403   1.722  -2.282  0.00  0.00    -0.302 NA
ATOM     19  C   UNL     1       6.920   3.098  -2.401  0.00  0.00    +0.086 C 
ATOM     20  C   UNL     1       6.646   3.749  -3.759  0.00  0.00    +0.037 C 
ATOM     21  C   UNL     1       7.152   2.879  -4.914  0.00  0.00    +0.076 C 
ATOM     22  C   UNL     1       6.658   1.438  -4.767  0.00  0.00    +0.037 C 
ATOM     23  C   UNL     1       6.939   0.888  -3.367  0.00  0.00    +0.086 C 
BRANCH  18  24
ATOM     24  C   UNL     1       4.935   1.712  -2.183  0.00  0.00    +0.086 C 
BRANCH  24  25
ATOM     25  C   UNL     1       4.336   0.332  -1.900  0.00  0.00    +0.043 C 
BRANCH  25  26
ATOM     26  C   UNL     1       2.818   0.426  -1.808  0.00  0.00    +0.160 C 
BRANCH  26  28
ATOM     27  C   UNL     1       0.873  -0.860  -1.514  0.00  0.00    +0.193 C 
ATOM     28  O   UNL     1       2.293  -0.879  -1.578  0.00  0.00    -0.383 OA
ENDBRANCH  26  28
ENDBRANCH  25  26
ENDBRANCH  24  25
ENDBRANCH  18  24
ENDBRANCH   1  21
TORSDOF 7
