REMARK  Name = 
REMARK  8 active torsions:
REMARK  status: ('A' for Active; 'I' for Inactive)
REMARK    1  A    between atoms: N_1  and  C_2
REMARK    2  A    between atoms: C_2  and  C_3
REMARK    3  A    between atoms: C_3  and  C_4
REMARK    4  A    between atoms: C_4  and  C_5
REMARK    5  A    between atoms: C_5  and  N_6
REMARK    6  A    between atoms: C_5  and  C_7
REMARK    7  A    between atoms: C_5  and  C_10
REMARK    8  A    between atoms: C_10  and  O_11
REMARK                            x       y       z     vdW  Elec       q    Type
REMARK                         _______ _______ _______ _____ _____    ______ ____
ROOT
ATOM      1  C   UNL     1       5.101  -0.993  -2.754  0.00  0.00    +0.175 C 
ENDROOT
BRANCH   1   2
ATOM      2  C   UNL     1       4.741  -0.108  -3.967  0.00  0.00    +0.372 C 
ATOM      3  F   UNL     1       4.919   1.207  -3.694  0.00  0.00    -0.207 F 
ATOM      4  F   UNL     1       3.418  -0.258  -4.260  0.00  0.00    -0.207 F 
ENDBRANCH   1   2
BRANCH   1   5
ATOM      5  N   UNL     1       4.678  -2.444  -2.943  0.00  0.00    -0.311 NA
ATOM      6  H   UNL     1       4.596  -2.873  -2.014  0.00  0.00    +0.119 HD
ATOM      7  H   UNL     1       3.712  -2.425  -3.294  0.00  0.00    +0.119 HD
ENDBRANCH   1   5
BRANCH   1   8
ATOM      8  C   UNL     1       6.637  -0.970  -2.694  0.00  0.00    +0.331 C 
ATOM      9  O   UNL     1       7.334  -0.003  -2.435  0.00  0.00    -0.249 OA
BRANCH   8  10
ATOM     10  O   UNL     1       7.164  -2.192  -2.986  0.00  0.00    -0.479 OA
ATOM     11  H   UNL     1       6.400  -2.797  -3.164  0.00  0.00    +0.295 HD
ENDBRANCH   8  10
ENDBRANCH   1   8
BRANCH   1  12
ATOM     12  C   UNL     1       4.531  -0.458  -1.422  0.00  0.00    +0.040 C 
BRANCH  12  13
ATOM     13  C   UNL     1       2.996  -0.428  -1.330  0.00  0.00    +0.017 C 
BRANCH  13  14
ATOM     14  C   UNL     1       2.493   0.107   0.015  0.00  0.00    +0.078 C 
BRANCH  14  15
ATOM     15  N   UNL     1       2.919   1.479   0.236  0.00  0.00    -0.330 NA
ATOM     16  H   UNL     1       2.580   2.079  -0.516  0.00  0.00    +0.118 HD
ATOM     17  H   UNL     1       2.505   1.837   1.097  0.00  0.00    +0.118 HD
ENDBRANCH  14  15
ENDBRANCH  13  14
ENDBRANCH  12  13
ENDBRANCH   1  12
TORSDOF 8
