REMARK  Name = 
REMARK  7 active torsions:
REMARK  status: ('A' for Active; 'I' for Inactive)
REMARK    1  A    between atoms: C_1  and  C_2
REMARK    2  A    between atoms: C_2  and  N_4
REMARK    3  A    between atoms: C_2  and  C_5
REMARK    4  A    between atoms: C_5  and  O_7
REMARK    5  A    between atoms: C_5  and  C_8
REMARK    6  A    between atoms: C_10  and  O_11
REMARK    7  A    between atoms: C_12  and  O_13
REMARK                            x       y       z     vdW  Elec       q    Type
REMARK                         _______ _______ _______ _____ _____    ______ ____
ROOT
ATOM      1  C   UNL     1       4.690   1.407  -0.650  0.00  0.00    -0.014 A 
ATOM      2  C   UNL     1       5.430   0.229  -0.865  0.00  0.00    +0.010 A 
ATOM      3  C   UNL     1       6.823   0.272  -0.973  0.00  0.00    +0.049 A 
ATOM      4  C   UNL     1       7.471   1.491  -0.867  0.00  0.00    +0.158 A 
ATOM      5  C   UNL     1       6.758   2.662  -0.627  0.00  0.00    +0.159 A 
ATOM      6  C   UNL     1       5.374   2.628  -0.511  0.00  0.00    +0.055 A 
ENDROOT
BRANCH   4   7
ATOM      7  O   UNL     1       8.827   1.541  -1.025  0.00  0.00    -0.503 OA
ATOM      8  H   UNL     1       9.044   2.493  -0.958  0.00  0.00    +0.292 HD
ENDBRANCH   4   7
BRANCH   5   9
ATOM      9  O   UNL     1       7.459   3.833  -0.543  0.00  0.00    -0.503 OA
ATOM     10  H   UNL     1       6.825   4.552  -0.387  0.00  0.00    +0.292 HD
ENDBRANCH   5   9
BRANCH   1  11
ATOM     11  C   UNL     1       3.174   1.352  -0.684  0.00  0.00    +0.161 C 
BRANCH  11  13
ATOM     12  C   UNL     1       2.942   2.679  -2.883  0.00  0.00    +0.026 C 
ATOM     13  C   UNL     1       2.625   1.373  -2.145  0.00  0.00    +0.081 C 
BRANCH  13  14
ATOM     14  N   UNL     1       1.162   1.175  -2.153  0.00  0.00    -0.325 NA
ATOM     15  H   UNL     1       0.750   1.906  -1.567  0.00  0.00    +0.119 HD
ATOM     16  H   UNL     1       0.803   1.330  -3.093  0.00  0.00    +0.119 HD
ENDBRANCH  13  14
ENDBRANCH  11  13
BRANCH  11  17
ATOM     17  O   UNL     1       2.613   2.432   0.075  0.00  0.00    -0.386 OA
ATOM     18  H   UNL     1       2.955   2.327   0.979  0.00  0.00    +0.210 HD
ENDBRANCH  11  17
ENDBRANCH   1  11
TORSDOF 6
