REMARK  Name = 
REMARK  11 active torsions:
REMARK  status: ('A' for Active; 'I' for Inactive)
REMARK    1  A    between atoms: C_2  and  N_3
REMARK    2  A    between atoms: C_2  and  C_4
REMARK    3  A    between atoms: C_2  and  C_10
REMARK    4  A    between atoms: C_16  and  C_18
REMARK    5  A    between atoms: N_20  and  C_21
REMARK    6  A    between atoms: C_21  and  C_22
REMARK    7  A    between atoms: C_23  and  O_24
REMARK    8  A    between atoms: O_24  and  C_25
REMARK    9  A    between atoms: C_25  and  C_26
REMARK   10  A    between atoms: N_28  and  C_29
REMARK   11  A    between atoms: C_29  and  C_30
REMARK                            x       y       z     vdW  Elec       q    Type
REMARK                         _______ _______ _______ _____ _____    ______ ____
ROOT
ATOM      1  C   UNL     1       5.482   0.018   1.857  0.00  0.00    +0.234 C 
ATOM      2  N   UNL     1       6.596  -0.778   1.762  0.00  0.00    -0.310 N 
ATOM      3  H   UNL     1       6.807  -1.209   2.651  0.00  0.00    +0.149 HD
ATOM      4  O   UNL     1       4.930   0.123   2.966  0.00  0.00    -0.274 OA
ENDROOT
BRANCH   1   7
ATOM      5  C   UNL     1       2.635   1.526   0.465  0.00  0.00    +0.233 C 
ATOM      6  N   UNL     1       3.941   1.798   0.806  0.00  0.00    -0.289 N 
ATOM      7  C   UNL     1       4.967   0.797   0.600  0.00  0.00    +0.162 C 
ATOM      8  C   UNL     1       6.084   1.646   0.078  0.00  0.00    +0.033 C 
ATOM      9  C   UNL     1       5.675   3.077  -0.062  0.00  0.00    +0.021 C 
ATOM     10  C   UNL     1       4.543   3.128   0.901  0.00  0.00    +0.108 C 
ATOM     11  O   UNL     1       2.257   0.429   0.051  0.00  0.00    -0.274 OA
BRANCH   5  12
ATOM     12  C   UNL     1       1.642   2.705   0.600  0.00  0.00    +0.141 C 
BRANCH  12  13
ATOM     13  C   UNL     1       1.766   3.334   2.022  0.00  0.00    +0.015 C 
ATOM     14  C   UNL     1       1.562   2.278   3.126  0.00  0.00    +0.005 C 
ATOM     15  C   UNL     1       0.104   1.868   3.248  0.00  0.00    +0.000 C 
ATOM     16  C   UNL     1      -0.782   3.093   3.454  0.00  0.00    +0.000 C 
ATOM     17  C   UNL     1      -0.589   4.150   2.367  0.00  0.00    +0.000 C 
ATOM     18  C   UNL     1       0.870   4.548   2.244  0.00  0.00    +0.005 C 
ENDBRANCH  12  13
BRANCH  12  19
ATOM     19  N   UNL     1       1.875   3.640  -0.528  0.00  0.00    -0.320 NA
ATOM     20  H   UNL     1       1.826   3.109  -1.399  0.00  0.00    +0.119 HD
ATOM     21  H   UNL     1       1.126   4.329  -0.572  0.00  0.00    +0.119 HD
ENDBRANCH  12  19
ENDBRANCH   5  12
ENDBRANCH   1   7
BRANCH   2  22
ATOM     22  C   UNL     1       7.376  -1.269   0.608  0.00  0.00    +0.143 C 
BRANCH  22  23
ATOM     23  C   UNL     1       8.268  -0.242  -0.087  0.00  0.00    +0.013 A 
ATOM     24  C   UNL     1       8.079   0.011  -1.466  0.00  0.00    +0.028 A 
ATOM     25  C   UNL     1       8.466   1.248  -2.009  0.00  0.00    +0.042 A 
ATOM     26 CL   UNL     1       7.816   1.744  -3.530  0.00  0.00    -0.084 Cl
ATOM     27  C   UNL     1       9.143   2.182  -1.228  0.00  0.00    +0.023 A 
ATOM     28  C   UNL     1       9.503   1.854   0.081  0.00  0.00    +0.047 A 
ATOM     29  C   UNL     1       9.096   0.632   0.644  0.00  0.00    +0.126 A 
BRANCH  29  30
ATOM     30  O   UNL     1       9.283   0.334   1.965  0.00  0.00    -0.482 OA
BRANCH  30  31
ATOM     31  C   UNL     1      10.529   0.767   2.506  0.00  0.00    +0.324 C 
BRANCH  31  32
ATOM     32  C   UNL     1      11.018  -0.279   3.500  0.00  0.00    +0.251 C 
ATOM     33  N   UNL     1      10.016  -0.927   4.192  0.00  0.00    -0.313 N 
ATOM     34  H   UNL     1       9.059  -0.753   3.903  0.00  0.00    +0.149 HD
ATOM     35  O   UNL     1      12.215  -0.487   3.685  0.00  0.00    -0.272 OA
BRANCH  33  36
ATOM     36  C   UNL     1      10.300  -1.999   5.120  0.00  0.00    +0.101 C 
ATOM     37  C   UNL     1      10.358  -3.346   4.423  0.00  0.00    +0.024 C 
ENDBRANCH  33  36
ENDBRANCH  31  32
ENDBRANCH  30  31
ENDBRANCH  29  30
ENDBRANCH  22  23
ENDBRANCH   2  22
TORSDOF 10
