REMARK  Name = 
REMARK  4 active torsions:
REMARK  status: ('A' for Active; 'I' for Inactive)
REMARK    1  A    between atoms: O_1  and  C_2
REMARK    2  A    between atoms: C_7  and  C_9
REMARK    3  A    between atoms: C_12  and  O_13
REMARK    4  A    between atoms: C_17  and  C_18
REMARK                            x       y       z     vdW  Elec       q    Type
REMARK                         _______ _______ _______ _____ _____    ______ ____
ROOT
ATOM      1  C   UNL     1       2.466  -0.046  -0.025  0.00  0.00    +0.120 A 
ATOM      2  C   UNL     1       3.139   1.177  -0.024  0.00  0.00    +0.057 A 
ATOM      3  C   UNL     1       4.545   1.244   0.017  0.00  0.00    +0.022 A 
ATOM      4  C   UNL     1       5.205   0.010   0.017  0.00  0.00    +0.163 A 
ATOM      5  O   UNL     1       6.556  -0.258   0.015  0.00  0.00    -0.435 OA
ATOM      6  C   UNL     1       6.621  -1.632   0.015  0.00  0.00    +0.229 A 
ATOM      7  N   UNL     1       5.449  -2.237   0.028  0.00  0.00    -0.209 NA
ATOM      8  C   UNL     1       4.547  -1.213   0.019  0.00  0.00    +0.114 A 
ATOM      9  C   UNL     1       3.148  -1.260   0.004  0.00  0.00    +0.077 A 
ENDROOT
BRANCH   6  10
ATOM     10  C   UNL     1       7.936  -2.270  -0.039  0.00  0.00    +0.040 A 
ATOM     11  C   UNL     1       7.989  -3.674  -0.063  0.00  0.00    +0.055 A 
ATOM     12  C   UNL     1       9.206  -4.337  -0.164  0.00  0.00    +0.165 A 
ATOM     13  F   UNL     1       9.213  -5.677  -0.201  0.00  0.00    -0.202 F 
ATOM     14  C   UNL     1      10.395  -3.620  -0.241  0.00  0.00    +0.152 A 
ATOM     15  C   UNL     1      10.370  -2.228  -0.198  0.00  0.00    +0.049 A 
ATOM     16  C   UNL     1       9.142  -1.554  -0.096  0.00  0.00    +0.017 A 
BRANCH  14  17
ATOM     17  O   UNL     1      11.569  -4.304  -0.365  0.00  0.00    -0.504 OA
ATOM     18  H   UNL     1      12.296  -3.676  -0.504  0.00  0.00    +0.292 HD
ENDBRANCH  14  17
ENDBRANCH   6  10
BRANCH   1  19
ATOM     19  O   UNL     1       1.101  -0.014  -0.062  0.00  0.00    -0.507 OA
ATOM     20  H   UNL     1       0.764  -0.926  -0.062  0.00  0.00    +0.292 HD
ENDBRANCH   1  19
BRANCH   3  21
ATOM     21  C   UNL     1       5.318   2.484   0.002  0.00  0.00    +0.004 C 
ATOM     22  C   UNL     1       4.873   3.645   0.506  0.00  0.00    +0.009 C 
ENDBRANCH   3  21
TORSDOF 4
