REMARK  Name = 
REMARK  3 active torsions:
REMARK  status: ('A' for Active; 'I' for Inactive)
REMARK    1  A    between atoms: C_2  and  N_13
REMARK    2  A    between atoms: C_10  and  O_12
REMARK    3  A    between atoms: C_14  and  C_16
REMARK                            x       y       z     vdW  Elec       q    Type
REMARK                         _______ _______ _______ _____ _____    ______ ____
ROOT
ATOM      1  N   UNL     1       0.625   0.118   0.114  0.00  0.00    -0.304 N 
ATOM      2  H   UNL     1       0.206   0.946   0.511  0.00  0.00    +0.149 HD
ATOM      3  C   UNL     1      -0.172  -0.700  -0.653  0.00  0.00    +0.261 C 
ATOM      4  O   UNL     1       0.280  -1.593  -1.361  0.00  0.00    -0.269 OA
ENDROOT
BRANCH   3   5
ATOM      5  C   UNL     1      -1.587  -0.417  -0.573  0.00  0.00    +0.103 A 
ATOM      6  N   UNL     1      -2.505  -1.100  -1.379  0.00  0.00    -0.345 N 
ATOM      7  H   UNL     1      -2.258  -1.824  -2.043  0.00  0.00    +0.167 HD
ATOM      8  C   UNL     1      -3.732  -0.589  -1.134  0.00  0.00    +0.087 A 
ATOM      9  S   UNL     1      -5.280  -0.812  -1.698  0.00  0.00    -0.059 S 
ATOM     10  C   UNL     1      -5.821   0.427  -0.622  0.00  0.00    +0.081 A 
ATOM     11  C   UNL     1      -4.820   0.975   0.161  0.00  0.00    +0.037 A 
ATOM     12 CL   UNL     1      -7.482   0.869  -0.617  0.00  0.00    -0.076 Cl
ATOM     13  C   UNL     1      -3.628   0.348  -0.189  0.00  0.00    +0.009 A 
ATOM     14  C   UNL     1      -2.310   0.485   0.219  0.00  0.00    +0.041 A 
ENDBRANCH   3   5
BRANCH   1  15
ATOM     15  C   UNL     1       2.085   0.035   0.070  0.00  0.00    +0.110 C 
ATOM     16  C   UNL     1       2.760   1.139   0.943  0.00  0.00    +0.165 C 
ATOM     17  C   UNL     1       3.567   0.371   1.941  0.00  0.00    -0.014 A 
ATOM     18  C   UNL     1       4.331   0.881   2.982  0.00  0.00    +0.006 A 
ATOM     19  C   UNL     1       4.977  -0.013   3.838  0.00  0.00    +0.000 A 
ATOM     20  C   UNL     1       4.857  -1.397   3.643  0.00  0.00    +0.000 A 
ATOM     21  C   UNL     1       4.096  -1.900   2.588  0.00  0.00    +0.004 A 
ATOM     22  C   UNL     1       3.455  -1.003   1.747  0.00  0.00    -0.040 A 
ATOM     23  C   UNL     1       2.599  -1.340   0.570  0.00  0.00    +0.060 C 
BRANCH  16  24
ATOM     24  O   UNL     1       3.574   1.987   0.144  0.00  0.00    -0.385 OA
ATOM     25  H   UNL     1       4.468   1.604   0.126  0.00  0.00    +0.210 HD
ENDBRANCH  16  24
ENDBRANCH   1  15
TORSDOF 3
