REMARK  Name = 
REMARK  8 active torsions:
REMARK  status: ('A' for Active; 'I' for Inactive)
REMARK    1  A    between atoms: C_2  and  C_4
REMARK    2  A    between atoms: C_11  and  N_13
REMARK    3  A    between atoms: N_16  and  C_17
REMARK    4  A    between atoms: C_17  and  C_18
REMARK    5  A    between atoms: C_18  and  C_19
REMARK    6  A    between atoms: C_19  and  C_20
REMARK    7  A    between atoms: C_20  and  C_21
REMARK    8  A    between atoms: C_27  and  C_30
REMARK                            x       y       z     vdW  Elec       q    Type
REMARK                         _______ _______ _______ _____ _____    ______ ____
ROOT
ATOM      1  N   UNL     1       5.388   4.102  -5.604  0.00  0.00    -0.327 N 
ATOM      2  C   UNL     1       6.322   5.142  -5.132  0.00  0.00    +0.120 C 
ATOM      3  C   UNL     1       5.663   6.549  -5.136  0.00  0.00    +0.103 C 
ATOM      4  N   UNL     1       4.956   6.924  -6.393  0.00  0.00    -0.299 NA
ATOM      5  C   UNL     1       3.965   5.852  -6.661  0.00  0.00    +0.103 C 
ATOM      6  C   UNL     1       4.571   4.437  -6.781  0.00  0.00    +0.120 C 
ENDROOT
BRANCH   1  12
ATOM      7  C   UNL     1       2.506   0.050  -2.357  0.00  0.00    +0.190 A 
ATOM      8  O   UNL     1       3.870   0.030  -2.205  0.00  0.00    -0.450 OA
ATOM      9  C   UNL     1       4.375   1.008  -3.005  0.00  0.00    +0.136 A 
ATOM     10  C   UNL     1       5.719   1.319  -3.155  0.00  0.00    +0.049 A 
ATOM     11  C   UNL     1       6.016   2.369  -4.035  0.00  0.00    +0.027 A 
ATOM     12  C   UNL     1       5.025   3.086  -4.734  0.00  0.00    +0.031 A 
ATOM     13  C   UNL     1       3.681   2.721  -4.537  0.00  0.00    +0.034 A 
ATOM     14  C   UNL     1       3.351   1.668  -3.667  0.00  0.00    +0.023 A 
ATOM     15  C   UNL     1       2.150   1.044  -3.248  0.00  0.00    +0.063 A 
BRANCH   7  19
ATOM     16  N   UNL     1       2.383  -1.693  -0.758  0.00  0.00    -0.323 N 
ATOM     17  H   UNL     1       3.380  -1.576  -0.630  0.00  0.00    +0.145 HD
ATOM     18  H   UNL     1       1.868  -2.351  -0.194  0.00  0.00    +0.145 HD
ATOM     19  C   UNL     1       1.695  -0.893  -1.626  0.00  0.00    +0.277 C 
ATOM     20  O   UNL     1       0.478  -1.000  -1.735  0.00  0.00    -0.267 OA
ENDBRANCH   7  19
ENDBRANCH   1  12
BRANCH   4  21
ATOM     21  C   UNL     1       5.937   7.085  -7.480  0.00  0.00    +0.084 C 
BRANCH  21  22
ATOM     22  C   UNL     1       5.333   7.469  -8.838  0.00  0.00    +0.016 C 
BRANCH  22  23
ATOM     23  C   UNL     1       6.395   7.572  -9.940  0.00  0.00    +0.006 C 
BRANCH  23  24
ATOM     24  C   UNL     1       7.130   6.247 -10.172  0.00  0.00    +0.037 C 
BRANCH  24  25
ATOM     25  C   UNL     1       8.156   6.332 -11.250  0.00  0.00    -0.022 A 
ATOM     26  C   UNL     1       9.538   6.670 -11.090  0.00  0.00    +0.004 A 
ATOM     27  C   UNL     1      10.338   7.039  -9.987  0.00  0.00    +0.029 A 
ATOM     28  C   UNL     1      11.707   7.275 -10.175  0.00  0.00    +0.052 A 
ATOM     29  C   UNL     1      12.279   7.150 -11.444  0.00  0.00    +0.021 A 
ATOM     30  C   UNL     1      11.502   6.795 -12.553  0.00  0.00    +0.027 A 
ATOM     31  C   UNL     1      10.138   6.563 -12.343  0.00  0.00    +0.047 A 
ATOM     32  N   UNL     1       9.155   6.199 -13.234  0.00  0.00    -0.360 N 
ATOM     33  H   UNL     1       9.302   6.046 -14.221  0.00  0.00    +0.165 HD
ATOM     34  C   UNL     1       7.959   6.052 -12.586  0.00  0.00    +0.087 A 
BRANCH  28  35
ATOM     35  C   UNL     1      12.527   7.634  -9.053  0.00  0.00    +0.099 C 
ATOM     36  N   UNL     1      13.187   7.922  -8.144  0.00  0.00    -0.191 NA
ENDBRANCH  28  35
ENDBRANCH  24  25
ENDBRANCH  23  24
ENDBRANCH  22  23
ENDBRANCH  21  22
ENDBRANCH   4  21
TORSDOF 8
