REMARK  Name = 
REMARK  17 active torsions:
REMARK  status: ('A' for Active; 'I' for Inactive)
REMARK    1  A    between atoms: C_2  and  C_3
REMARK    2  A    between atoms: C_2  and  C_24
REMARK    3  A    between atoms: C_2  and  C_27
REMARK    4  A    between atoms: C_3  and  P_4
REMARK    5  A    between atoms: P_4  and  O_5
REMARK    6  A    between atoms: P_4  and  C_7
REMARK    7  A    between atoms: C_7  and  N_9
REMARK    8  A    between atoms: C_7  and  C_21
REMARK    9  A    between atoms: N_9  and  S_10
REMARK   10  A    between atoms: S_10  and  C_13
REMARK   11  A    between atoms: C_13  and  C_14
REMARK   12  A    between atoms: C_14  and  C_15
REMARK   13  A    between atoms: C_21  and  C_22
REMARK   14  A    between atoms: C_21  and  C_23
REMARK   15  A    between atoms: C_24  and  O_25
REMARK   16  A    between atoms: C_31  and  C_32
REMARK   17  A    between atoms: C_32  and  N_33
REMARK                            x       y       z     vdW  Elec       q    Type
REMARK                         _______ _______ _______ _____ _____    ______ ____
ROOT
ATOM      1  P   UNL     1       2.060  -2.207   1.627  0.00  0.00    +0.221 P 
ATOM      2  O   UNL     1       0.608  -1.827   1.291  0.00  0.00    -0.289 OA
ENDROOT
BRANCH   1   3
ATOM      3  O   UNL     1       2.747  -0.973   2.483  0.00  0.00    -0.343 OA
ATOM      4  H   UNL     1       3.597  -1.203   2.914  0.00  0.00    +0.218 HD
ENDBRANCH   1   3
BRANCH   1   5
ATOM      5  C   UNL     1       2.670  -1.413   0.096  0.00  0.00    +0.118 C 
BRANCH   5   6
ATOM      6  C   UNL     1       1.583  -1.064  -0.963  0.00  0.00    +0.137 C 
BRANCH   6   7
ATOM      7  C   UNL     1       2.048  -0.115  -2.061  0.00  0.00    -0.033 A 
ATOM      8  C   UNL     1       3.248  -0.317  -2.756  0.00  0.00    +0.009 A 
ATOM      9  C   UNL     1       3.740   0.657  -3.639  0.00  0.00    -0.034 A 
ATOM     10  C   UNL     1       2.958   1.793  -3.902  0.00  0.00    +0.005 A 
ATOM     11  C   UNL     1       1.725   1.964  -3.283  0.00  0.00    +0.001 A 
ATOM     12  C   UNL     1       1.279   1.022  -2.355  0.00  0.00    +0.004 A 
BRANCH   9  13
ATOM     13  C   UNL     1       5.163   0.565  -4.120  0.00  0.00    +0.113 C 
BRANCH  13  14
ATOM     14  N   UNL     1       5.350   0.942  -5.515  0.00  0.00    -0.326 NA
ATOM     15  H   UNL     1       6.346   1.037  -5.695  0.00  0.00    +0.119 HD
ATOM     16  H   UNL     1       5.026   0.173  -6.101  0.00  0.00    +0.119 HD
ENDBRANCH  13  14
ENDBRANCH   9  13
ENDBRANCH   6   7
BRANCH   6  17
ATOM     17  C   UNL     1       0.971  -2.344  -1.528  0.00  0.00    +0.313 C 
ATOM     18  O   UNL     1       1.435  -3.003  -2.446  0.00  0.00    -0.250 OA
BRANCH  17  19
ATOM     19  O   UNL     1      -0.146  -2.747  -0.868  0.00  0.00    -0.480 OA
ATOM     20  H   UNL     1      -0.268  -2.236  -0.026  0.00  0.00    +0.295 HD
ENDBRANCH  17  19
ENDBRANCH   6  17
ENDBRANCH   5   6
ENDBRANCH   1   5
BRANCH   1  21
ATOM     21  C   UNL     1       1.450  -3.002   3.159  0.00  0.00    +0.165 C 
BRANCH  21  22
ATOM     22  C   UNL     1       0.940  -2.049   4.306  0.00  0.00    +0.011 C 
ATOM     23  C   UNL     1       0.492  -2.798   5.570  0.00  0.00    +0.009 C 
ATOM     24  C   UNL     1      -0.237  -1.162   3.868  0.00  0.00    +0.009 C 
ENDBRANCH  21  22
BRANCH  21  25
ATOM     25  N   UNL     1       2.520  -3.922   3.730  0.00  0.00    -0.182 NA
ATOM     26  H   UNL     1       2.112  -4.390   4.539  0.00  0.00    +0.149 HD
BRANCH  25  27
ATOM     27  S   UNL     1       3.018  -5.102   2.618  0.00  0.00    +0.030 S 
ATOM     28  O   UNL     1       3.771  -4.389   1.609  0.00  0.00    -0.158 OA
ATOM     29  O   UNL     1       1.835  -5.861   2.282  0.00  0.00    -0.158 OA
BRANCH  27  30
ATOM     30  C   UNL     1       4.120  -6.119   3.591  0.00  0.00    +0.189 C 
BRANCH  30  31
ATOM     31  C   UNL     1       3.405  -6.725   4.791  0.00  0.00    +0.059 C 
BRANCH  31  32
ATOM     32  C   UNL     1       4.318  -7.593   5.605  0.00  0.00    -0.046 A 
ATOM     33  C   UNL     1       4.427  -8.962   5.323  0.00  0.00    +0.004 A 
ATOM     34  C   UNL     1       5.274  -9.768   6.085  0.00  0.00    +0.000 A 
ATOM     35  C   UNL     1       6.017  -9.209   7.127  0.00  0.00    +0.000 A 
ATOM     36  C   UNL     1       5.919  -7.848   7.408  0.00  0.00    +0.000 A 
ATOM     37  C   UNL     1       5.075  -7.041   6.648  0.00  0.00    +0.004 A 
ENDBRANCH  31  32
ENDBRANCH  30  31
ENDBRANCH  27  30
ENDBRANCH  25  27
ENDBRANCH  21  25
ENDBRANCH   1  21
TORSDOF 15
