REMARK  Name = 
REMARK  6 active torsions:
REMARK  status: ('A' for Active; 'I' for Inactive)
REMARK    1  A    between atoms: C_2  and  O_3
REMARK    2  A    between atoms: C_2  and  C_4
REMARK    3  A    between atoms: C_2  and  C_7
REMARK    4  A    between atoms: C_4  and  O_5
REMARK    5  A    between atoms: C_7  and  O_9
REMARK    6  A    between atoms: C_7  and  C_10
REMARK                            x       y       z     vdW  Elec       q    Type
REMARK                         _______ _______ _______ _____ _____    ______ ____
ROOT
ATOM      1  C   UNL     1       2.777  -0.927   1.076  0.00  0.00    +0.184 C 
ENDROOT
BRANCH   1   2
ATOM      2  C   UNL     1       4.298  -1.072   1.068  0.00  0.00    -0.016 A 
ATOM      3  C   UNL     1       4.923  -2.306   0.809  0.00  0.00    +0.009 A 
ATOM      4  C   UNL     1       6.316  -2.421   0.794  0.00  0.00    +0.039 A 
ATOM      5  C   UNL     1       7.098  -1.298   1.024  0.00  0.00    +0.123 A 
ATOM      6  F   UNL     1       8.433  -1.402   0.990  0.00  0.00    -0.205 F 
ATOM      7  C   UNL     1       6.513  -0.071   1.296  0.00  0.00    +0.039 A 
ATOM      8  C   UNL     1       5.121   0.037   1.342  0.00  0.00    +0.009 A 
ENDBRANCH   1   2
BRANCH   1   9
ATOM      9  O   UNL     1       2.177  -2.236   1.059  0.00  0.00    -0.384 OA
ATOM     10  H   UNL     1       1.388  -2.217   0.494  0.00  0.00    +0.210 HD
ENDBRANCH   1   9
BRANCH   1  11
ATOM     11  C   UNL     1       2.196  -0.055  -0.065  0.00  0.00    +0.256 C 
BRANCH  11  12
ATOM     12  C   UNL     1       2.554   1.412   0.113  0.00  0.00    +0.337 C 
ATOM     13  O   UNL     1       2.070   2.153   0.957  0.00  0.00    -0.248 OA
BRANCH  12  14
ATOM     14  O   UNL     1       3.496   1.819  -0.777  0.00  0.00    -0.479 OA
ATOM     15  H   UNL     1       3.812   1.042  -1.297  0.00  0.00    +0.295 HD
ENDBRANCH  12  14
ENDBRANCH  11  12
BRANCH  11  16
ATOM     16  O   UNL     1       2.615  -0.502  -1.366  0.00  0.00    -0.378 OA
ATOM     17  H   UNL     1       2.006  -0.101  -2.016  0.00  0.00    +0.211 HD
ENDBRANCH  11  16
ENDBRANCH   1  11
TORSDOF 6
