REMARK  Name = 
REMARK  13 active torsions:
REMARK  status: ('A' for Active; 'I' for Inactive)
REMARK    1  A    between atoms: C_2  and  C_3
REMARK    2  A    between atoms: C_2  and  O_4
REMARK    3  A    between atoms: C_2  and  C_5
REMARK    4  A    between atoms: C_5  and  C_7
REMARK    5  A    between atoms: C_5  and  N_14
REMARK    6  A    between atoms: C_7  and  C_8
REMARK    7  A    between atoms: C_15  and  C_17
REMARK    8  A    between atoms: C_23  and  C_25
REMARK    9  A    between atoms: C_25  and  C_27
REMARK   10  A    between atoms: C_25  and  N_28
REMARK   11  A    between atoms: C_29  and  O_31
REMARK   12  A    between atoms: O_31  and  C_32
REMARK   13  A    between atoms: C_32  and  C_33
REMARK                            x       y       z     vdW  Elec       q    Type
REMARK                         _______ _______ _______ _____ _____    ______ ____
ROOT
ATOM      1  C   UNL     1       1.801  -4.767   1.877  0.00  0.00    +0.162 C 
ATOM      2  N   UNL     1       2.312  -3.486   2.383  0.00  0.00    -0.288 N 
ATOM      3  C   UNL     1       3.625  -3.112   2.624  0.00  0.00    +0.236 C 
ATOM      4  O   UNL     1       3.848  -2.153   3.372  0.00  0.00    -0.274 OA
ATOM      5  C   UNL     1       1.244  -2.752   3.054  0.00  0.00    +0.109 C 
ATOM      6  C   UNL     1      -0.025  -3.552   2.793  0.00  0.00    +0.021 C 
ATOM      7  C   UNL     1       0.505  -4.975   2.672  0.00  0.00    +0.033 C 
ENDROOT
BRANCH   1  10
ATOM      8  N   UNL     1       1.860  -3.662  -0.316  0.00  0.00    -0.308 N 
ATOM      9  H   UNL     1       2.287  -2.912   0.224  0.00  0.00    +0.149 HD
ATOM     10  C   UNL     1       1.413  -4.750   0.386  0.00  0.00    +0.234 C 
ATOM     11  O   UNL     1       0.768  -5.678  -0.093  0.00  0.00    -0.274 OA
BRANCH   8  12
ATOM     12  C   UNL     1       1.737  -3.385  -1.755  0.00  0.00    +0.105 C 
BRANCH  12  13
ATOM     13  C   UNL     1       1.144  -1.964  -1.975  0.00  0.00    +0.132 C 
ATOM     14  C   UNL     1      -0.308  -1.791  -1.550  0.00  0.00    +0.039 C 
BRANCH  13  15
ATOM     15  O   UNL     1       1.947  -1.032  -1.234  0.00  0.00    -0.390 OA
ATOM     16  H   UNL     1       1.586  -0.139  -1.386  0.00  0.00    +0.210 HD
ENDBRANCH  13  15
ENDBRANCH  12  13
BRANCH  12  17
ATOM     17  C   UNL     1       1.065  -4.466  -2.640  0.00  0.00    +0.060 C 
BRANCH  17  18
ATOM     18  C   UNL     1       1.767  -5.813  -2.743  0.00  0.00    -0.046 A 
ATOM     19  C   UNL     1       3.159  -5.952  -2.710  0.00  0.00    +0.004 A 
ATOM     20  C   UNL     1       3.767  -7.208  -2.753  0.00  0.00    +0.000 A 
ATOM     21  C   UNL     1       2.987  -8.354  -2.859  0.00  0.00    +0.000 A 
ATOM     22  C   UNL     1       1.601  -8.240  -2.922  0.00  0.00    +0.000 A 
ATOM     23  C   UNL     1       0.997  -6.980  -2.872  0.00  0.00    +0.004 A 
ENDBRANCH  17  18
ENDBRANCH  12  17
ENDBRANCH   8  12
ENDBRANCH   1  10
BRANCH   3  24
ATOM     24  C   UNL     1       4.797  -3.957   2.050  0.00  0.00    +0.159 C 
ATOM     25  C   UNL     1       6.132  -3.479   2.638  0.00  0.00    +0.038 C 
BRANCH  24  26
ATOM     26  N   UNL     1       4.815  -4.054   0.592  0.00  0.00    -0.270 N 
ATOM     27  H   UNL     1       4.258  -4.761   0.127  0.00  0.00    +0.153 HD
ATOM     28  C   UNL     1       5.430  -3.178  -0.255  0.00  0.00    +0.401 C 
ATOM     29  O   UNL     1       6.066  -2.191   0.067  0.00  0.00    -0.226 OA
BRANCH  28  30
ATOM     30  O   UNL     1       5.220  -3.575  -1.532  0.00  0.00    -0.446 OA
BRANCH  30  31
ATOM     31  C   UNL     1       5.648  -2.674  -2.562  0.00  0.00    +0.269 C 
BRANCH  31  32
ATOM     32  C   UNL     1       6.358  -3.436  -3.652  0.00  0.00    -0.010 A 
ATOM     33  C   UNL     1       7.734  -3.664  -3.557  0.00  0.00    +0.007 A 
ATOM     34  C   UNL     1       8.418  -4.331  -4.579  0.00  0.00    +0.000 A 
ATOM     35  C   UNL     1       7.723  -4.794  -5.695  0.00  0.00    +0.000 A 
ATOM     36  C   UNL     1       6.350  -4.587  -5.792  0.00  0.00    +0.000 A 
ATOM     37  C   UNL     1       5.668  -3.918  -4.774  0.00  0.00    +0.007 A 
ENDBRANCH  31  32
ENDBRANCH  30  31
ENDBRANCH  28  30
ENDBRANCH  24  26
ENDBRANCH   3  24
TORSDOF 11
