REMARK  Name = 
REMARK  10 active torsions:
REMARK  status: ('A' for Active; 'I' for Inactive)
REMARK    1  A    between atoms: C_2  and  C_25
REMARK    2  A    between atoms: C_3  and  C_5
REMARK    3  A    between atoms: C_8  and  C_9
REMARK    4  A    between atoms: C_9  and  N_10
REMARK    5  A    between atoms: N_10  and  C_11
REMARK    6  A    between atoms: C_11  and  C_12
REMARK    7  A    between atoms: C_12  and  C_13
REMARK    8  A    between atoms: C_14  and  C_15
REMARK    9  A    between atoms: C_25  and  O_26
REMARK   10  A    between atoms: N_27  and  O_28
REMARK                            x       y       z     vdW  Elec       q    Type
REMARK                         _______ _______ _______ _____ _____    ______ ____
ROOT
ATOM      1  C   UNL     1       0.867  -4.320  -4.819  0.00  0.00    +0.116 C 
ENDROOT
BRANCH   1   5
ATOM      2  C   UNL     1       1.991  -1.954  -1.402  0.00  0.00    -0.025 A 
ATOM      3  C   UNL     1       2.953  -2.714  -2.071  0.00  0.00    +0.008 A 
ATOM      4  C   UNL     1       2.604  -3.434  -3.215  0.00  0.00    +0.005 A 
ATOM      5  C   UNL     1       1.289  -3.403  -3.698  0.00  0.00    -0.034 A 
ATOM      6  C   UNL     1       0.341  -2.600  -3.047  0.00  0.00    +0.005 A 
ATOM      7  C   UNL     1       0.690  -1.878  -1.906  0.00  0.00    +0.008 A 
BRANCH   2   9
ATOM      8  C   UNL     1       2.222  -1.963   1.018  0.00  0.00    +0.070 C 
ATOM      9  C   UNL     1       2.312  -1.293  -0.141  0.00  0.00    +0.013 C 
BRANCH   8  10
ATOM     10  C   UNL     1       2.523  -1.258   2.272  0.00  0.00    +0.248 C 
ATOM     11  N   UNL     1       3.342  -0.266   2.382  0.00  0.00    -0.049 NA
BRANCH  11  12
ATOM     12  O   UNL     1       3.404   0.196   3.704  0.00  0.00    -0.406 OA
ATOM     13  H   UNL     1       4.023   0.943   3.632  0.00  0.00    +0.328 HD
ENDBRANCH  11  12
BRANCH  10  14
ATOM     14  O   UNL     1       1.843  -1.772   3.318  0.00  0.00    -0.490 OA
ATOM     15  H   UNL     1       1.223  -2.474   3.075  0.00  0.00    +0.294 HD
ENDBRANCH  10  14
ENDBRANCH   8  10
ENDBRANCH   2   9
ENDBRANCH   1   5
BRANCH   1  16
ATOM     16  N   UNL     1       0.211  -3.604  -5.913  0.00  0.00    -0.312 NA
ATOM     17  H   UNL     1       0.874  -2.924  -6.286  0.00  0.00    +0.122 HD
BRANCH  16  18
ATOM     18  C   UNL     1      -0.190  -4.517  -6.995  0.00  0.00    +0.086 C 
BRANCH  18  19
ATOM     19  C   UNL     1      -1.297  -5.503  -6.589  0.00  0.00    +0.052 C 
BRANCH  19  20
ATOM     20  C   UNL     1      -1.634  -6.474  -7.678  0.00  0.00    -0.018 A 
ATOM     21  C   UNL     1      -0.970  -7.724  -7.909  0.00  0.00    +0.003 A 
ATOM     22  C   UNL     1      -1.619  -8.352  -8.967  0.00  0.00    +0.047 A 
ATOM     23  C   UNL     1      -1.248  -9.615  -9.442  0.00  0.00    +0.026 A 
ATOM     24  C   UNL     1      -0.169 -10.250  -8.821  0.00  0.00    +0.002 A 
ATOM     25  C   UNL     1       0.511  -9.644  -7.767  0.00  0.00    +0.001 A 
ATOM     26  N   UNL     1      -2.620  -7.509  -9.384  0.00  0.00    -0.358 N 
ATOM     27  H   UNL     1      -3.255  -7.713 -10.142  0.00  0.00    +0.166 HD
ATOM     28  C   UNL     1       0.120  -8.384  -7.300  0.00  0.00    +0.010 A 
ATOM     29  C   UNL     1      -2.642  -6.366  -8.623  0.00  0.00    +0.017 A 
ATOM     30  C   UNL     1      -3.646  -5.303  -8.886  0.00  0.00    +0.063 C 
ENDBRANCH  19  20
ENDBRANCH  18  19
ENDBRANCH  16  18
ENDBRANCH   1  16
TORSDOF 9
