REMARK  Name = 
REMARK  13 active torsions:
REMARK  status: ('A' for Active; 'I' for Inactive)
REMARK    1  A    between atoms: C_4  and  C_47
REMARK    2  A    between atoms: C_11  and  O_25
REMARK    3  A    between atoms: N_17  and  C_18
REMARK    4  A    between atoms: O_25  and  C_26
REMARK    5  A    between atoms: C_28  and  C_39
REMARK    6  A    between atoms: C_31  and  C_32
REMARK    7  A    between atoms: C_33  and  O_34
REMARK    8  A    between atoms: O_34  and  C_35
REMARK    9  A    between atoms: C_41  and  C_44
REMARK   10  A    between atoms: C_44  and  C_45
REMARK   11  A    between atoms: C_44  and  C_46
REMARK   12  A    between atoms: N_49  and  S_50
REMARK   13  A    between atoms: S_50  and  C_53
REMARK                            x       y       z     vdW  Elec       q    Type
REMARK                         _______ _______ _______ _____ _____    ______ ____
ROOT
ATOM      1  C   UNL     1       1.956  -0.441   1.876  0.00  0.00    +0.046 C 
ATOM      2  C   UNL     1       2.090  -0.936   0.475  0.00  0.00    -0.025 C 
ATOM      3  C   UNL     1       2.534  -2.087  -0.053  0.00  0.00    -0.031 C 
ATOM      4  C   UNL     1       2.713  -2.271  -1.558  0.00  0.00    +0.027 C 
ATOM      5  C   UNL     1       1.811  -3.325  -2.256  0.00  0.00    +0.006 C 
ATOM      6  C   UNL     1       0.379  -2.854  -2.679  0.00  0.00    +0.019 C 
ATOM      7  C   UNL     1      -0.751  -3.956  -2.464  0.00  0.00    +0.107 C 
ATOM      8  N   UNL     1      -2.114  -3.455  -1.997  0.00  0.00    -0.304 N 
ATOM      9  C   UNL     1      -2.822  -2.630  -2.944  0.00  0.00    +0.132 C 
ATOM     10  C   UNL     1      -2.742  -3.535  -0.670  0.00  0.00    +0.219 C 
ATOM     11  O   UNL     1      -3.843  -4.042  -0.523  0.00  0.00    -0.275 OA
ATOM     12  C   UNL     1      -1.989  -2.740   0.479  0.00  0.00    +0.091 C 
ATOM     13  C   UNL     1      -1.944  -2.982   2.065  0.00  0.00    +0.090 C 
ATOM     14  C   UNL     1      -0.890  -4.129   2.273  0.00  0.00    +0.058 C 
ATOM     15  C   UNL     1      -0.667  -4.561   0.851  0.00  0.00    +0.175 C 
ATOM     16  C   UNL     1      -1.412  -1.602   2.619  0.00  0.00    +0.218 C 
ATOM     17  O   UNL     1      -2.070  -0.572   2.516  0.00  0.00    -0.275 OA
ATOM     18  N   UNL     1      -0.087  -1.597   3.007  0.00  0.00    -0.301 N 
ATOM     19  H   UNL     1       0.219  -2.346   3.625  0.00  0.00    +0.150 HD
ATOM     20  C   UNL     1      -0.569  -3.145   0.294  0.00  0.00    +0.058 C 
ATOM     21  C   UNL     1       0.829  -0.477   2.964  0.00  0.00    +0.119 C 
ATOM     22  C   UNL     1       0.824   0.572   1.896  0.00  0.00    +0.046 C 
ENDROOT
BRANCH  21  23
ATOM     23  C   UNL     1       1.260  -0.033   4.339  0.00  0.00    +0.256 C 
ATOM     24  N   UNL     1       0.554   1.107   4.825  0.00  0.00    -0.188 N 
ATOM     25  H   UNL     1      -0.265   1.447   4.332  0.00  0.00    +0.176 HD
ATOM     26  O   UNL     1       2.123  -0.589   4.955  0.00  0.00    -0.272 OA
BRANCH  24  27
ATOM     27  S   UNL     1       0.930   1.947   6.190  0.00  0.00    +0.048 S 
ATOM     28  O   UNL     1       0.418   1.204   7.324  0.00  0.00    -0.155 OA
ATOM     29  O   UNL     1       0.496   3.300   5.940  0.00  0.00    -0.155 OA
BRANCH  27  30
ATOM     30  C   UNL     1       2.743   1.949   6.361  0.00  0.00    +0.151 C 
ATOM     31  C   UNL     1       3.387   3.289   6.599  0.00  0.00    +0.030 C 
ATOM     32  C   UNL     1       3.450   2.658   5.234  0.00  0.00    +0.030 C 
ENDBRANCH  27  30
ENDBRANCH  24  27
ENDBRANCH  21  23
BRANCH  15  33
ATOM     33  O   UNL     1       0.439  -5.394   0.645  0.00  0.00    -0.488 OA
BRANCH  33  34
ATOM     34  C   UNL     1       0.171  -6.744   0.836  0.00  0.00    +0.132 A 
ATOM     35  C   UNL     1       1.170  -7.626   0.399  0.00  0.00    +0.043 A 
ATOM     36  C   UNL     1       0.993  -9.002   0.643  0.00  0.00    +0.082 A 
ATOM     37  C   UNL     1       1.988  -9.894   0.230  0.00  0.00    +0.017 A 
ATOM     38  C   UNL     1       3.161  -9.421  -0.393  0.00  0.00    +0.125 A 
ATOM     39  C   UNL     1       3.327  -8.061  -0.625  0.00  0.00    +0.047 A 
ATOM     40  C   UNL     1       1.822 -11.379   0.456  0.00  0.00    +0.050 C 
ATOM     41  N   UNL     1      -0.087  -9.468   1.294  0.00  0.00    -0.244 NA
ATOM     42  C   UNL     1      -1.042  -8.615   1.726  0.00  0.00    +0.100 A 
ATOM     43  C   UNL     1       2.332  -7.172  -0.245  0.00  0.00    +0.017 A 
ATOM     44  C   UNL     1      -0.966  -7.259   1.475  0.00  0.00    +0.076 A 
BRANCH  42  45
ATOM     45  C   UNL     1      -2.111  -9.195   2.574  0.00  0.00    +0.127 A 
ATOM     46  S   UNL     1      -2.076 -10.875   2.989  0.00  0.00    -0.074 S 
ATOM     47  C   UNL     1      -3.450 -10.671   3.977  0.00  0.00    +0.070 A 
ATOM     48  C   UNL     1      -3.883  -9.361   3.933  0.00  0.00    +0.052 A 
ATOM     49  N   UNL     1      -3.111  -8.523   3.130  0.00  0.00    -0.242 NA
BRANCH  48  50
ATOM     50  C   UNL     1      -5.080  -8.813   4.665  0.00  0.00    +0.032 C 
ATOM     51  C   UNL     1      -6.156  -8.329   3.695  0.00  0.00    +0.014 C 
ATOM     52  C   UNL     1      -4.689  -7.705   5.643  0.00  0.00    +0.014 C 
ENDBRANCH  48  50
ENDBRANCH  42  45
BRANCH  38  53
ATOM     53  O   UNL     1       4.091 -10.378  -0.719  0.00  0.00    -0.495 OA
ATOM     54  C   UNL     1       5.325  -9.918  -1.253  0.00  0.00    +0.277 C 
ENDBRANCH  38  53
ENDBRANCH  33  34
ENDBRANCH  15  33
TORSDOF 8
