REMARK  Name = 
REMARK  7 active torsions:
REMARK  status: ('A' for Active; 'I' for Inactive)
REMARK    1  A    between atoms: O_1  and  C_2
REMARK    2  A    between atoms: C_2  and  C_4
REMARK    3  A    between atoms: N_6  and  C_7
REMARK    4  A    between atoms: C_9  and  C_20
REMARK    5  A    between atoms: C_11  and  N_12
REMARK    6  A    between atoms: C_13  and  C_15
REMARK    7  A    between atoms: C_15  and  O_16
REMARK                            x       y       z     vdW  Elec       q    Type
REMARK                         _______ _______ _______ _____ _____    ______ ____
ROOT
ATOM      1  C   UNL     1       5.088   1.954  -1.907  0.00  0.00    +0.055 A 
ATOM      2  C   UNL     1       6.041   1.381  -2.787  0.00  0.00    +0.083 A 
ATOM      3 CL   UNL     1       6.329  -0.331  -2.740  0.00  0.00    -0.080 Cl
ATOM      4  C   UNL     1       6.758   2.187  -3.708  0.00  0.00    +0.055 A 
ATOM      5  C   UNL     1       6.509   3.561  -3.722  0.00  0.00    +0.043 A 
ATOM      6  C   UNL     1       5.611   4.135  -2.827  0.00  0.00    +0.055 A 
ATOM      7  C   UNL     1       4.914   3.341  -1.924  0.00  0.00    +0.043 A 
ENDROOT
BRANCH   1   9
ATOM      8  C   UNL     1       3.179   1.555  -0.353  0.00  0.00    +0.325 C 
ATOM      9  N   UNL     1       4.320   1.149  -1.023  0.00  0.00    -0.275 N 
ATOM     10  H   UNL     1       4.564   0.161  -0.941  0.00  0.00    +0.155 HD
ATOM     11  O   UNL     1       2.586   2.628  -0.410  0.00  0.00    -0.263 OA
BRANCH   8  12
ATOM     12  C   UNL     1       2.540   0.494   0.546  0.00  0.00    +0.393 C 
ATOM     13  O   UNL     1       3.040  -0.596   0.744  0.00  0.00    -0.240 OA
BRANCH  12  14
ATOM     14  O   UNL     1       1.376   0.948   1.060  0.00  0.00    -0.474 OA
ATOM     15  H   UNL     1       1.219   1.869   0.736  0.00  0.00    +0.296 HD
ENDBRANCH  12  14
ENDBRANCH   8  12
ENDBRANCH   1   9
BRANCH   4  16
ATOM     16  N   UNL     1       7.680   1.618  -4.626  0.00  0.00    -0.275 N 
ATOM     17  H   UNL     1       7.717   0.600  -4.695  0.00  0.00    +0.155 HD
ATOM     18  C   UNL     1       8.565   2.320  -5.429  0.00  0.00    +0.325 C 
ATOM     19  O   UNL     1       8.823   3.519  -5.434  0.00  0.00    -0.263 OA
BRANCH  18  20
ATOM     20  C   UNL     1       9.344   1.466  -6.437  0.00  0.00    +0.393 C 
ATOM     21  O   UNL     1       9.177   0.269  -6.554  0.00  0.00    -0.240 OA
BRANCH  20  22
ATOM     22  O   UNL     1      10.195   2.232  -7.148  0.00  0.00    -0.474 OA
ATOM     23  H   UNL     1      10.117   3.170  -6.846  0.00  0.00    +0.296 HD
ENDBRANCH  20  22
ENDBRANCH  18  20
ENDBRANCH   4  16
BRANCH   6  24
ATOM     24  C   UNL     1       5.389   5.544  -2.850  0.00  0.00    +0.099 C 
ATOM     25  N   UNL     1       5.210   6.691  -2.867  0.00  0.00    -0.191 NA
ENDBRANCH   6  24
TORSDOF 7
