REMARK  Name = 
REMARK  15 active torsions:
REMARK  status: ('A' for Active; 'I' for Inactive)
REMARK    1  A    between atoms: C_2  and  C_3
REMARK    2  A    between atoms: C_2  and  C_22
REMARK    3  A    between atoms: C_2  and  C_25
REMARK    4  A    between atoms: C_3  and  P_4
REMARK    5  A    between atoms: P_4  and  O_5
REMARK    6  A    between atoms: P_4  and  C_7
REMARK    7  A    between atoms: C_7  and  N_9
REMARK    8  A    between atoms: C_7  and  C_19
REMARK    9  A    between atoms: N_9  and  S_10
REMARK   10  A    between atoms: S_10  and  C_13
REMARK   11  A    between atoms: C_19  and  C_20
REMARK   12  A    between atoms: C_19  and  C_21
REMARK   13  A    between atoms: C_22  and  O_23
REMARK   14  A    between atoms: C_27  and  C_28
REMARK   15  A    between atoms: C_28  and  N_29
REMARK                            x       y       z     vdW  Elec       q    Type
REMARK                         _______ _______ _______ _____ _____    ______ ____
ROOT
ATOM      1  P   UNL     1       1.889  -0.184   2.680  0.00  0.00    +0.221 P 
ATOM      2  O   UNL     1       2.442   1.177   2.246  0.00  0.00    -0.289 OA
ENDROOT
BRANCH   1   3
ATOM      3  O   UNL     1       2.465  -0.803   1.171  0.00  0.00    -0.343 OA
ATOM      4  H   UNL     1       2.238  -0.115   0.504  0.00  0.00    +0.218 HD
ENDBRANCH   1   3
BRANCH   1   5
ATOM      5  C   UNL     1       3.525  -1.162   3.385  0.00  0.00    +0.118 C 
BRANCH   5   6
ATOM      6  C   UNL     1       4.285  -1.874   2.219  0.00  0.00    +0.137 C 
BRANCH   6   7
ATOM      7  C   UNL     1       5.647  -2.403   2.570  0.00  0.00    -0.033 A 
ATOM      8  C   UNL     1       5.833  -3.716   3.011  0.00  0.00    +0.004 A 
ATOM      9  C   UNL     1       7.123  -4.213   3.177  0.00  0.00    +0.001 A 
ATOM     10  C   UNL     1       8.225  -3.401   2.915  0.00  0.00    +0.005 A 
ATOM     11  C   UNL     1       8.057  -2.077   2.491  0.00  0.00    -0.034 A 
ATOM     12  C   UNL     1       6.761  -1.588   2.325  0.00  0.00    +0.009 A 
BRANCH  11  13
ATOM     13  C   UNL     1       9.238  -1.188   2.210  0.00  0.00    +0.113 C 
BRANCH  13  14
ATOM     14  N   UNL     1       9.261  -0.739   0.821  0.00  0.00    -0.326 NA
ATOM     15  H   UNL     1      10.107  -0.194   0.664  0.00  0.00    +0.119 HD
ATOM     16  H   UNL     1       9.328  -1.554   0.213  0.00  0.00    +0.119 HD
ENDBRANCH  13  14
ENDBRANCH  11  13
ENDBRANCH   6   7
BRANCH   6  17
ATOM     17  C   UNL     1       3.417  -2.977   1.571  0.00  0.00    +0.313 C 
ATOM     18  O   UNL     1       2.573  -3.630   2.186  0.00  0.00    -0.250 OA
BRANCH  17  19
ATOM     19  O   UNL     1       3.676  -3.191   0.259  0.00  0.00    -0.480 OA
ATOM     20  H   UNL     1       4.297  -2.532  -0.111  0.00  0.00    +0.295 HD
ENDBRANCH  17  19
ENDBRANCH   6  17
ENDBRANCH   5   6
ENDBRANCH   1   5
BRANCH   1  21
ATOM     21  C   UNL     1       1.279   0.471   4.276  0.00  0.00    +0.165 C 
BRANCH  21  22
ATOM     22  C   UNL     1       1.429  -0.426   5.538  0.00  0.00    +0.011 C 
ATOM     23  C   UNL     1       0.732  -1.782   5.429  0.00  0.00    +0.009 C 
ATOM     24  C   UNL     1       0.983   0.264   6.839  0.00  0.00    +0.009 C 
ENDBRANCH  21  22
BRANCH  21  25
ATOM     25  N   UNL     1      -0.167   0.868   4.125  0.00  0.00    -0.177 NA
ATOM     26  H   UNL     1      -0.669   1.108   4.980  0.00  0.00    +0.149 HD
BRANCH  25  27
ATOM     27  S   UNL     1      -0.639   1.987   2.937  0.00  0.00    +0.059 S 
ATOM     28  O   UNL     1       0.393   2.983   2.806  0.00  0.00    -0.153 OA
ATOM     29  O   UNL     1      -1.988   2.362   3.301  0.00  0.00    -0.153 OA
BRANCH  27  30
ATOM     30  C   UNL     1      -0.774   1.042   1.438  0.00  0.00    +0.105 A 
ATOM     31  C   UNL     1      -0.732   1.714   0.213  0.00  0.00    +0.028 A 
ATOM     32  C   UNL     1      -0.737   0.980  -0.976  0.00  0.00    +0.002 A 
ATOM     33  C   UNL     1      -0.735  -0.415  -0.938  0.00  0.00    +0.000 A 
ATOM     34  C   UNL     1      -0.785  -1.083   0.285  0.00  0.00    +0.002 A 
ATOM     35  C   UNL     1      -0.849  -0.356   1.474  0.00  0.00    +0.028 A 
ENDBRANCH  27  30
ENDBRANCH  25  27
ENDBRANCH  21  25
ENDBRANCH   1  21
TORSDOF 13
