REMARK  Name = 
REMARK  7 active torsions:
REMARK  status: ('A' for Active; 'I' for Inactive)
REMARK    1  A    between atoms: C_2  and  S_3
REMARK    2  A    between atoms: N_6  and  S_8
REMARK    3  A    between atoms: S_8  and  C_11
REMARK    4  A    between atoms: C_14  and  O_15
REMARK    5  A    between atoms: O_15  and  C_16
REMARK    6  A    between atoms: C_16  and  C_17
REMARK    7  A    between atoms: C_18  and  C_19
REMARK                            x       y       z     vdW  Elec       q    Type
REMARK                         _______ _______ _______ _____ _____    ______ ____
ROOT
ATOM      1  C   UNL     1       5.140  -3.476   1.061  0.00  0.00    +0.106 A 
ATOM      2  C   UNL     1       3.894  -4.009   1.399  0.00  0.00    +0.032 A 
ATOM      3  C   UNL     1       3.732  -5.395   1.487  0.00  0.00    +0.047 A 
ATOM      4  C   UNL     1       4.819  -6.243   1.258  0.00  0.00    +0.122 A 
ATOM      5  C   UNL     1       6.072  -5.696   0.969  0.00  0.00    +0.047 A 
ATOM      6  C   UNL     1       6.245  -4.314   0.893  0.00  0.00    +0.032 A 
ENDROOT
BRANCH   1   7
ATOM      7  S   UNL     1       5.318  -1.717   0.839  0.00  0.00    +0.061 S 
ATOM      8  O   UNL     1       4.232  -1.078   1.550  0.00  0.00    -0.153 OA
ATOM      9  O   UNL     1       6.700  -1.380   1.106  0.00  0.00    -0.153 OA
BRANCH   7  12
ATOM     10  C   UNL     1       3.954  -2.733  -2.549  0.00  0.00    +0.060 C 
ATOM     11  C   UNL     1       3.693  -1.800  -1.365  0.00  0.00    +0.123 C 
ATOM     12  N   UNL     1       5.043  -1.515  -0.818  0.00  0.00    -0.176 NA
ATOM     13  C   UNL     1       6.069  -1.990  -1.774  0.00  0.00    +0.110 C 
ATOM     14  C   UNL     1       5.300  -2.251  -3.065  0.00  0.00    +0.032 C 
BRANCH  10  15
ATOM     15  S   UNL     1       2.659  -2.676  -3.818  0.00  0.00    -0.173 S 
ATOM     16  H   UNL     1       2.771  -1.370  -4.107  0.00  0.00    +0.102 HD
ENDBRANCH  10  15
ENDBRANCH   7  12
ENDBRANCH   1   7
BRANCH   4  17
ATOM     17  O   UNL     1       4.774  -7.612   1.238  0.00  0.00    -0.480 OA
BRANCH  17  18
ATOM     18  C   UNL     1       3.733  -8.206   2.005  0.00  0.00    +0.317 C 
BRANCH  18  19
ATOM     19  C   UNL     1       3.779  -9.718   1.854  0.00  0.00    -0.062 C 
ATOM     20  C   UNL     1       3.818 -11.015   1.724  0.00  0.00    -0.102 C 
ATOM     21  C   UNL     1       3.864 -12.526   1.573  0.00  0.00    +0.106 C 
ENDBRANCH  18  19
ENDBRANCH  17  18
ENDBRANCH   4  17
TORSDOF 6
