REMARK  Name = 
REMARK  10 active torsions:
REMARK  status: ('A' for Active; 'I' for Inactive)
REMARK    1  A    between atoms: C_2  and  C_3
REMARK    2  A    between atoms: C_2  and  O_4
REMARK    3  A    between atoms: C_2  and  C_8
REMARK    4  A    between atoms: O_4  and  C_5
REMARK    5  A    between atoms: C_5  and  C_6
REMARK    6  A    between atoms: C_13  and  C_18
REMARK    7  A    between atoms: C_18  and  O_20
REMARK    8  A    between atoms: O_20  and  C_21
REMARK    9  A    between atoms: C_21  and  C_22
REMARK   10  A    between atoms: C_22  and  C_23
REMARK                            x       y       z     vdW  Elec       q    Type
REMARK                         _______ _______ _______ _____ _____    ______ ____
ROOT
ATOM      1  C   UNL     1       2.666   0.745   1.100  0.00  0.00    +0.147 C 
ATOM      2  C   UNL     1       1.782   1.989   1.364  0.00  0.00    +0.159 C 
ATOM      3  N   UNL     1       1.471   1.416   2.695  0.00  0.00    -0.251 N 
ATOM      4  C   UNL     1       1.700   2.302   3.733  0.00  0.00    +0.128 C 
ATOM      5  C   UNL     1       2.247   3.478   3.396  0.00  0.00    +0.073 C 
ATOM      6  S   UNL     1       2.572   3.613   1.696  0.00  0.00    -0.107 S 
ATOM      7  C   UNL     1       2.315   0.350   2.543  0.00  0.00    +0.230 C 
ATOM      8  O   UNL     1       2.708  -0.481   3.329  0.00  0.00    -0.275 OA
ENDROOT
BRANCH   1   9
ATOM      9  C   UNL     1       4.152   0.877   0.782  0.00  0.00    +0.188 C 
ATOM     10  C   UNL     1       4.853  -0.473   0.944  0.00  0.00    +0.053 C 
BRANCH   9  11
ATOM     11  O   UNL     1       4.242   1.295  -0.597  0.00  0.00    -0.461 OA
BRANCH  11  12
ATOM     12  C   UNL     1       5.421   1.855  -0.985  0.00  0.00    +0.304 C 
ATOM     13  O   UNL     1       6.387   2.047  -0.261  0.00  0.00    -0.251 OA
ATOM     14  C   UNL     1       5.371   2.238  -2.434  0.00  0.00    +0.136 C 
ENDBRANCH  11  12
ENDBRANCH   9  11
ENDBRANCH   1   9
BRANCH   4  15
ATOM     15  C   UNL     1       1.531   1.906   5.158  0.00  0.00    +0.354 C 
ATOM     16  O   UNL     1       2.035   2.502   6.095  0.00  0.00    -0.244 OA
BRANCH  15  17
ATOM     17  O   UNL     1       0.790   0.772   5.227  0.00  0.00    -0.460 OA
BRANCH  17  18
ATOM     18  C   UNL     1       0.937  -0.009   6.421  0.00  0.00    +0.232 C 
BRANCH  18  19
ATOM     19  C   UNL     1      -0.340   0.029   7.246  0.00  0.00    +0.038 C 
ATOM     20  C   UNL     1      -0.228  -0.881   8.459  0.00  0.00    +0.007 C 
ENDBRANCH  18  19
ENDBRANCH  17  18
ENDBRANCH  15  17
ENDBRANCH   4  15
TORSDOF 7
