REMARK  Name = 
REMARK  6 active torsions:
REMARK  status: ('A' for Active; 'I' for Inactive)
REMARK    1  A    between atoms: O_1  and  C_2
REMARK    2  A    between atoms: C_2  and  C_3
REMARK    3  A    between atoms: C_6  and  C_20
REMARK    4  A    between atoms: C_8  and  N_9
REMARK    5  A    between atoms: N_9  and  C_10
REMARK    6  A    between atoms: C_10  and  C_11
REMARK                            x       y       z     vdW  Elec       q    Type
REMARK                         _______ _______ _______ _____ _____    ______ ____
ROOT
ATOM      1  C   UNL     1       2.851   0.410   1.448  0.00  0.00    +0.042 A 
ATOM      2  C   UNL     1       3.357  -0.357   2.518  0.00  0.00    +0.143 A 
ATOM      3  N   UNL     1       3.624   0.364   3.610  0.00  0.00    -0.171 NA
ATOM      4  N   UNL     1       3.298   1.638   3.250  0.00  0.00    -0.200 N 
ATOM      5  C   UNL     1       3.380   2.800   4.056  0.00  0.00    +0.125 A 
ATOM      6  C   UNL     1       3.033   3.978   3.512  0.00  0.00    +0.072 A 
ATOM      7  C   UNL     1       2.613   3.966   2.072  0.00  0.00    +0.077 A 
ATOM      8  N   UNL     1       2.502   2.890   1.340  0.00  0.00    -0.227 NA
ATOM      9  C   UNL     1       2.850   1.705   1.929  0.00  0.00    +0.163 A 
ENDROOT
BRANCH   7  10
ATOM     10  C   UNL     1       2.307   5.298   1.458  0.00  0.00    +0.001 A 
ATOM     11  C   UNL     1       2.957   6.467   1.874  0.00  0.00    +0.010 A 
ATOM     12  C   UNL     1       2.677   7.688   1.257  0.00  0.00    +0.001 A 
ATOM     13  C   UNL     1       1.756   7.749   0.214  0.00  0.00    +0.000 A 
ATOM     14  C   UNL     1       1.110   6.589  -0.214  0.00  0.00    +0.001 A 
ATOM     15  C   UNL     1       1.385   5.366   0.403  0.00  0.00    +0.010 A 
ENDBRANCH   7  10
BRANCH   5  16
ATOM     16  N   UNL     1       3.782   2.674   5.399  0.00  0.00    -0.325 N 
ATOM     17  H   UNL     1       3.492   1.734   5.697  0.00  0.00    +0.148 HD
BRANCH  16  18
ATOM     18  C   UNL     1       5.207   2.786   5.732  0.00  0.00    +0.139 C 
BRANCH  18  19
ATOM     19  C   UNL     1       5.442   3.933   6.673  0.00  0.00    -0.012 A 
ATOM     20  C   UNL     1       5.353   3.785   8.060  0.00  0.00    +0.008 A 
ATOM     21  C   UNL     1       5.610   4.873   8.891  0.00  0.00    +0.020 A 
ATOM     22  C   UNL     1       5.938   6.084   8.304  0.00  0.00    +0.111 A 
ATOM     23  N   UNL     1       6.019   6.273   6.970  0.00  0.00    -0.263 NA
ATOM     24  C   UNL     1       5.765   5.196   6.189  0.00  0.00    +0.115 A 
ENDBRANCH  18  19
ENDBRANCH  16  18
ENDBRANCH   5  16
BRANCH   1  25
ATOM     25  C   UNL     1       2.421  -0.050   0.108  0.00  0.00    +0.196 C 
BRANCH  25  26
ATOM     26  O   UNL     1       2.518  -1.466  -0.027  0.00  0.00    -0.390 OA
ATOM     27  H   UNL     1       2.104  -1.688  -0.878  0.00  0.00    +0.210 HD
ENDBRANCH  25  26
ENDBRANCH   1  25
TORSDOF 6
