REMARK  Name = 
REMARK  5 active torsions:
REMARK  status: ('A' for Active; 'I' for Inactive)
REMARK    1  A    between atoms: C_2  and  C_3
REMARK    2  A    between atoms: C_2  and  C_5
REMARK    3  A    between atoms: C_2  and  C_14
REMARK    4  A    between atoms: C_3  and  C_4
REMARK    5  A    between atoms: N_7  and  C_8
REMARK                            x       y       z     vdW  Elec       q    Type
REMARK                         _______ _______ _______ _____ _____    ______ ____
ROOT
ATOM      1  C   UNL     1       2.738  -1.297   0.693  0.00  0.00    +0.225 C 
ATOM      2  N   UNL     1       2.285  -2.573   0.382  0.00  0.00    -0.285 N 
ATOM      3  H   UNL     1       1.904  -2.709  -0.541  0.00  0.00    +0.155 HD
ATOM      4  O   UNL     1       3.608  -1.065   1.531  0.00  0.00    -0.275 OA
ENDROOT
BRANCH   2   5
ATOM      5  C   UNL     1       2.718  -3.726   1.065  0.00  0.00    +0.036 A 
ATOM      6  C   UNL     1       2.966  -4.882   0.333  0.00  0.00    +0.043 A 
ATOM      7  C   UNL     1       3.464  -5.983   1.011  0.00  0.00    +0.112 A 
ATOM      8  N   UNL     1       3.656  -6.022   2.346  0.00  0.00    -0.263 NA
ATOM      9  C   UNL     1       3.357  -4.900   3.035  0.00  0.00    +0.112 A 
ATOM     10  C   UNL     1       2.896  -3.737   2.446  0.00  0.00    +0.043 A 
ENDBRANCH   2   5
BRANCH   1  11
ATOM     11  C   UNL     1       2.098  -0.150  -0.096  0.00  0.00    +0.105 C 
BRANCH  11  12
ATOM     12  C   UNL     1       2.679   0.013  -1.498  0.00  0.00    -0.036 A 
ATOM     13  C   UNL     1       3.463   1.138  -1.788  0.00  0.00    +0.004 A 
ATOM     14  C   UNL     1       4.002   1.334  -3.067  0.00  0.00    +0.000 A 
ATOM     15  C   UNL     1       3.779   0.392  -4.067  0.00  0.00    +0.000 A 
ATOM     16  C   UNL     1       3.004  -0.732  -3.797  0.00  0.00    +0.000 A 
ATOM     17  C   UNL     1       2.449  -0.915  -2.528  0.00  0.00    +0.004 A 
ENDBRANCH  11  12
BRANCH  11  18
ATOM     18  C   UNL     1       0.561  -0.195  -0.096  0.00  0.00    +0.014 C 
ATOM     19  C   UNL     1      -0.026  -0.188   1.312  0.00  0.00    +0.005 C 
ENDBRANCH  11  18
ENDBRANCH   1  11
TORSDOF 4
