REMARK  Name = 
REMARK  20 active torsions:
REMARK  status: ('A' for Active; 'I' for Inactive)
REMARK    1  A    between atoms: C_2  and  O_3
REMARK    2  A    between atoms: C_2  and  C_4
REMARK    3  A    between atoms: C_2  and  CA_19
REMARK    4  A    between atoms: C_5  and  C_6
REMARK    5  A    between atoms: C_6  and  C_7
REMARK    6  A    between atoms: C_7  and  C_8
REMARK    7  A    between atoms: C_8  and  C_9
REMARK    8  A    between atoms: C_9  and  C_10
REMARK    9  A    between atoms: C_10  and  C_11
REMARK   10  A    between atoms: C_11  and  C_12
REMARK   11  A    between atoms: C_12  and  C_13
REMARK   12  A    between atoms: C_13  and  C_14
REMARK   13  A    between atoms: C_14  and  C_15
REMARK   14  A    between atoms: C_15  and  C_16
REMARK   15  A    between atoms: C_16  and  C_17
REMARK   16  A    between atoms: C_17  and  C_18
REMARK   17  A    between atoms: CA_19  and  C_21
REMARK   18  A    between atoms: CA_19  and  N_23
REMARK   19  A    between atoms: C_21  and  O_22
REMARK   20  A    between atoms: C_24  and  C_25
REMARK                            x       y       z     vdW  Elec       q    Type
REMARK                         _______ _______ _______ _____ _____    ______ ____
ROOT
ATOM      1  C   UNL     1       2.988   1.448  -0.658  0.00  0.00    +0.002 C 
ATOM      2  C   UNL     1       2.195   2.497  -0.385  0.00  0.00    -0.028 C 
ENDROOT
BRANCH   1   3
ATOM      3  C   UNL     1       2.542   0.078  -1.117  0.00  0.00    +0.159 C 
BRANCH   3   4
ATOM      4  O   UNL     1       1.322   0.217  -1.862  0.00  0.00    -0.386 OA
ATOM      5  H   UNL     1       0.631   0.430  -1.213  0.00  0.00    +0.210 HD
ENDBRANCH   3   4
BRANCH   3   6
ATOM      6  CA  UNL     1       3.578  -0.658  -2.021  0.00  0.00    +0.131 C 
BRANCH   6   7
ATOM      7  N   UNL     1       3.037  -1.912  -2.597  0.00  0.00    -0.308 N 
ATOM      8  H   UNL     1       2.690  -1.843  -3.544  0.00  0.00    +0.149 HD
ATOM      9  C   UNL     1       2.594  -2.958  -1.822  0.00  0.00    +0.210 C 
ATOM     10  O   UNL     1       2.713  -2.997  -0.603  0.00  0.00    -0.276 OA
ATOM     11  C   UNL     1       2.002  -4.100  -2.603  0.00  0.00    +0.109 C 
ENDBRANCH   6   7
BRANCH   6  12
ATOM     12  C   UNL     1       4.914  -0.921  -1.298  0.00  0.00    +0.181 C 
BRANCH  12  13
ATOM     13  O   UNL     1       5.819  -1.612  -2.162  0.00  0.00    -0.393 OA
ATOM     14  H   UNL     1       5.368  -2.445  -2.394  0.00  0.00    +0.209 HD
ENDBRANCH  12  13
ENDBRANCH   6  12
ENDBRANCH   3   6
ENDBRANCH   1   3
BRANCH   2  15
ATOM     15  C   UNL     1       2.716   3.842   0.028  0.00  0.00    +0.027 C 
BRANCH  15  16
ATOM     16  C   UNL     1       2.240   4.902  -0.959  0.00  0.00    +0.004 C 
BRANCH  16  17
ATOM     17  C   UNL     1       2.751   6.286  -0.574  0.00  0.00    +0.000 C 
BRANCH  17  18
ATOM     18  C   UNL     1       2.251   7.334  -1.564  0.00  0.00    +0.000 C 
BRANCH  18  19
ATOM     19  C   UNL     1       2.758   8.720  -1.184  0.00  0.00    +0.000 C 
BRANCH  19  20
ATOM     20  C   UNL     1       2.256   9.767  -2.173  0.00  0.00    +0.000 C 
BRANCH  20  21
ATOM     21  C   UNL     1       2.761  11.152  -1.788  0.00  0.00    -0.000 C 
BRANCH  21  22
ATOM     22  C   UNL     1       2.264  12.204  -2.773  0.00  0.00    -0.000 C 
BRANCH  22  23
ATOM     23  C   UNL     1       2.772  13.588  -2.386  0.00  0.00    -0.000 C 
BRANCH  23  24
ATOM     24  C   UNL     1       2.278  14.645  -3.367  0.00  0.00    -0.000 C 
BRANCH  24  25
ATOM     25  C   UNL     1       2.791  16.029  -2.978  0.00  0.00    -0.000 C 
BRANCH  25  26
ATOM     26  C   UNL     1       2.300  17.093  -3.957  0.00  0.00    -0.003 C 
ATOM     27  C   UNL     1       2.809  18.470  -3.570  0.00  0.00    +0.004 C 
ENDBRANCH  25  26
ENDBRANCH  24  25
ENDBRANCH  23  24
ENDBRANCH  22  23
ENDBRANCH  21  22
ENDBRANCH  20  21
ENDBRANCH  19  20
ENDBRANCH  18  19
ENDBRANCH  17  18
ENDBRANCH  16  17
ENDBRANCH  15  16
ENDBRANCH   2  15
TORSDOF 18
