REMARK  Name = 
REMARK  9 active torsions:
REMARK  status: ('A' for Active; 'I' for Inactive)
REMARK    1  A    between atoms: C_1  and  C_2
REMARK    2  A    between atoms: C_2  and  N_3
REMARK    3  A    between atoms: C_4  and  C_6
REMARK    4  A    between atoms: C_9  and  C_19
REMARK    5  A    between atoms: C_10  and  C_11
REMARK    6  A    between atoms: C_14  and  O_15
REMARK    7  A    between atoms: O_15  and  C_16
REMARK    8  A    between atoms: C_20  and  O_21
REMARK    9  A    between atoms: C_23  and  O_24
REMARK                            x       y       z     vdW  Elec       q    Type
REMARK                         _______ _______ _______ _____ _____    ______ ____
ROOT
ATOM      1  C   UNL     1       4.614  -2.605   1.981  0.00  0.00    +0.176 A 
ATOM      2  C   UNL     1       4.415  -3.882   1.363  0.00  0.00    +0.061 A 
ATOM      3  C   UNL     1       4.501  -4.777   2.426  0.00  0.00    +0.179 A 
ATOM      4  O   UNL     1       4.810  -4.087   3.558  0.00  0.00    -0.353 OA
ATOM      5  N   UNL     1       4.858  -2.740   3.298  0.00  0.00    -0.072 NA
ENDROOT
BRANCH   3   6
ATOM      6  C   UNL     1       4.341  -6.227   2.604  0.00  0.00    +0.064 A 
ATOM      7  C   UNL     1       3.403  -6.905   1.803  0.00  0.00    +0.039 A 
ATOM      8  C   UNL     1       3.410  -8.296   1.713  0.00  0.00    +0.083 A 
ATOM      9 CL   UNL     1       2.387  -9.040   0.538  0.00  0.00    -0.080 Cl
ATOM     10  C   UNL     1       4.282  -9.042   2.504  0.00  0.00    +0.139 A 
ATOM     11  C   UNL     1       5.116  -8.397   3.413  0.00  0.00    +0.093 A 
ATOM     12  C   UNL     1       5.146  -6.999   3.458  0.00  0.00    +0.131 A 
BRANCH  10  13
ATOM     13  O   UNL     1       4.327 -10.402   2.371  0.00  0.00    -0.505 OA
ATOM     14  H   UNL     1       5.066 -10.753   2.896  0.00  0.00    +0.292 HD
ENDBRANCH  10  13
BRANCH  12  15
ATOM     15  O   UNL     1       6.032  -6.467   4.355  0.00  0.00    -0.506 OA
ATOM     16  H   UNL     1       5.881  -5.508   4.432  0.00  0.00    +0.292 HD
ENDBRANCH  12  15
ENDBRANCH   3   6
BRANCH   2  17
ATOM     17  C   UNL     1       4.112  -4.238  -0.026  0.00  0.00    -0.012 A 
ATOM     18  C   UNL     1       4.632  -5.406  -0.605  0.00  0.00    +0.012 A 
ATOM     19  C   UNL     1       4.287  -5.790  -1.905  0.00  0.00    +0.046 A 
ATOM     20  C   UNL     1       3.498  -4.959  -2.693  0.00  0.00    +0.120 A 
ATOM     21  C   UNL     1       2.991  -3.785  -2.142  0.00  0.00    +0.046 A 
ATOM     22  C   UNL     1       3.275  -3.439  -0.815  0.00  0.00    +0.012 A 
BRANCH  20  23
ATOM     23  O   UNL     1       3.136  -5.223  -3.985  0.00  0.00    -0.495 OA
ATOM     24  C   UNL     1       4.079  -5.986  -4.732  0.00  0.00    +0.277 C 
ENDBRANCH  20  23
ENDBRANCH   2  17
BRANCH   1  27
ATOM     25  N   UNL     1       4.143  -0.277   2.267  0.00  0.00    -0.310 N 
ATOM     26  H   UNL     1       3.978  -0.565   3.229  0.00  0.00    +0.149 HD
ATOM     27  C   UNL     1       4.536  -1.255   1.380  0.00  0.00    +0.266 C 
ATOM     28  O   UNL     1       4.735  -1.039   0.188  0.00  0.00    -0.268 OA
BRANCH  25  30
ATOM     29  C   UNL     1       2.238   1.113   1.590  0.00  0.00    +0.024 C 
ATOM     30  C   UNL     1       3.736   1.041   1.840  0.00  0.00    +0.101 C 
ENDBRANCH  25  30
ENDBRANCH   1  27
TORSDOF 7
