REMARK  Name = 
REMARK  2 active torsions:
REMARK  status: ('A' for Active; 'I' for Inactive)
REMARK    1  A    between atoms: N_3  and  C_4
REMARK    2  A    between atoms: C_4  and  C_5
REMARK                            x       y       z     vdW  Elec       q    Type
REMARK                         _______ _______ _______ _____ _____    ______ ____
ROOT
ATOM      1  O   UNL     1       1.042   0.070  -0.025  0.00  0.00    -0.267 OA
ATOM      2  C   UNL     1       2.270  -0.008  -0.046  0.00  0.00    +0.263 A 
ATOM      3  C   UNL     1       2.992  -1.270  -0.045  0.00  0.00    +0.076 A 
ATOM      4  C   UNL     1       2.507  -2.619  -0.007  0.00  0.00    -0.023 A 
ATOM      5  C   UNL     1       1.077  -3.077   0.010  0.00  0.00    +0.037 C 
ATOM      6  C   UNL     1       0.955  -4.562  -0.375  0.00  0.00    +0.005 C 
ATOM      7  C   UNL     1       1.980  -5.426   0.374  0.00  0.00    +0.005 C 
ATOM      8  C   UNL     1       3.421  -5.015   0.035  0.00  0.00    +0.043 C 
ATOM      9  C   UNL     1       3.556  -3.522   0.027  0.00  0.00    -0.004 A 
ATOM     10  S   UNL     1       5.078  -2.765  -0.011  0.00  0.00    -0.073 S 
ATOM     11  C   UNL     1       4.373  -1.213  -0.088  0.00  0.00    +0.116 A 
ATOM     12  N   UNL     1       5.136  -0.096  -0.178  0.00  0.00    -0.230 NA
ATOM     13  C   UNL     1       4.467   1.010  -0.168  0.00  0.00    +0.203 A 
ATOM     14  N   UNL     1       3.090   1.118  -0.065  0.00  0.00    -0.291 N 
ENDROOT
BRANCH  14  15
ATOM     15  C   UNL     1       2.486   2.424   0.124  0.00  0.00    +0.203 C 
BRANCH  15  16
ATOM     16  C   UNL     1       2.133   3.051  -1.169  0.00  0.00    +0.169 A 
ATOM     17  N   UNL     1       0.922   2.898  -1.783  0.00  0.00    -0.241 N 
ATOM     18  H   UNL     1       0.124   2.326  -1.528  0.00  0.00    +0.192 HD
ATOM     19  N   UNL     1       0.862   3.685  -2.865  0.00  0.00    -0.047 NA
ATOM     20  N   UNL     1       2.041   4.287  -2.925  0.00  0.00    -0.023 NA
ATOM     21  N   UNL     1       2.845   3.902  -1.879  0.00  0.00    -0.112 NA
ENDBRANCH  15  16
ENDBRANCH  14  15
TORSDOF 2
