REMARK  Name = 
REMARK  9 active torsions:
REMARK  status: ('A' for Active; 'I' for Inactive)
REMARK    1  A    between atoms: O_1  and  C_2
REMARK    2  A    between atoms: C_2  and  C_4
REMARK    3  A    between atoms: C_7  and  C_8
REMARK    4  A    between atoms: N_9  and  O_10
REMARK    5  A    between atoms: O_10  and  C_11
REMARK    6  A    between atoms: C_11  and  C_12
REMARK    7  A    between atoms: C_12  and  O_13
REMARK    8  A    between atoms: O_13  and  N_14
REMARK    9  A    between atoms: C_15  and  C_16
REMARK                            x       y       z     vdW  Elec       q    Type
REMARK                         _______ _______ _______ _____ _____    ______ ____
ROOT
ATOM      1  C   UNL     1       5.823  -0.845  -8.101  0.00  0.00    +0.306 C 
ENDROOT
BRANCH   1   2
ATOM      2  O   UNL     1       5.443   0.330  -7.377  0.00  0.00    -0.390 OA
BRANCH   2   4
ATOM      3  C   UNL     1       4.249   2.131  -7.727  0.00  0.00    +0.160 C 
ATOM      4  N   UNL     1       4.277   0.857  -7.951  0.00  0.00    -0.092 NA
BRANCH   3   8
ATOM      5  C   UNL     1       1.164   4.647  -9.259  0.00  0.00    +0.059 A 
ATOM      6  C   UNL     1       2.167   5.177  -8.433  0.00  0.00    +0.015 A 
ATOM      7  C   UNL     1       3.184   4.349  -7.949  0.00  0.00    +0.010 A 
ATOM      8  C   UNL     1       3.184   2.989  -8.272  0.00  0.00    -0.004 A 
ATOM      9  C   UNL     1       2.188   2.456  -9.096  0.00  0.00    +0.010 A 
ATOM     10  C   UNL     1       1.178   3.285  -9.587  0.00  0.00    +0.015 A 
BRANCH   5  11
ATOM     11  C   UNL     1       0.035   5.472  -9.757  0.00  0.00    +0.337 C 
ATOM     12  O   UNL     1      -1.077   5.015  -9.956  0.00  0.00    -0.245 OA
BRANCH  11  13
ATOM     13  O   UNL     1       0.359   6.759  -9.996  0.00  0.00    -0.477 OA
ATOM     14  H   UNL     1       1.312   6.958  -9.984  0.00  0.00    +0.295 HD
ENDBRANCH  11  13
ENDBRANCH   5  11
ENDBRANCH   3   8
ENDBRANCH   2   4
ENDBRANCH   1   2
BRANCH   1  15
ATOM     15  C   UNL     1       6.202  -0.512  -9.542  0.00  0.00    +0.306 C 
BRANCH  15  16
ATOM     16  O   UNL     1       7.319   0.384  -9.550  0.00  0.00    -0.390 OA
BRANCH  16  17
ATOM     17  N   UNL     1       7.598   0.734 -10.881  0.00  0.00    -0.091 NA
ATOM     18  C   UNL     1       8.561   1.598 -10.892  0.00  0.00    +0.178 C 
BRANCH  18  19
ATOM     19  C   UNL     1       9.098   2.158 -12.156  0.00  0.00    +0.070 A 
ATOM     20  N   UNL     1       8.538   1.755 -13.336  0.00  0.00    -0.306 N 
ATOM     21  H   UNL     1       7.770   1.090 -13.309  0.00  0.00    +0.170 HD
ATOM     22  C   UNL     1       8.957   2.193 -14.559  0.00  0.00    +0.327 A 
ATOM     23  O   UNL     1       8.436   1.821 -15.604  0.00  0.00    -0.247 OA
ATOM     24  N   UNL     1       9.996   3.082 -14.536  0.00  0.00    -0.275 N 
ATOM     25  H   UNL     1      10.323   3.426 -15.426  0.00  0.00    +0.173 HD
ATOM     26  C   UNL     1      10.613   3.547 -13.410  0.00  0.00    +0.255 A 
ATOM     27  O   UNL     1      11.537   4.353 -13.439  0.00  0.00    -0.268 OA
ATOM     28  C   UNL     1      10.109   3.031 -12.124  0.00  0.00    +0.097 A 
ENDBRANCH  18  19
ENDBRANCH  16  17
ENDBRANCH  15  16
ENDBRANCH   1  15
TORSDOF 9
