REMARK  Name = 
REMARK  15 active torsions:
REMARK  status: ('A' for Active; 'I' for Inactive)
REMARK    1  A    between atoms: C_2  and  C_3
REMARK    2  A    between atoms: C_2  and  C_4
REMARK    3  A    between atoms: C_2  and  C_18
REMARK    4  A    between atoms: C_5  and  C_6
REMARK    5  A    between atoms: C_5  and  C_7
REMARK    6  A    between atoms: C_8  and  C_9
REMARK    7  A    between atoms: C_9  and  N_11
REMARK    8  A    between atoms: C_9  and  C_12
REMARK    9  A    between atoms: C_12  and  C_14
REMARK   10  A    between atoms: C_12  and  C_15
REMARK   11  A    between atoms: C_15  and  O_16
REMARK   12  A    between atoms: C_18  and  C_20
REMARK   13  A    between atoms: C_18  and  O_27
REMARK   14  A    between atoms: C_20  and  C_21
REMARK   15  A    between atoms: O_27  and  C_28
REMARK                            x       y       z     vdW  Elec       q    Type
REMARK                         _______ _______ _______ _____ _____    ______ ____
ROOT
ATOM      1  C   UNL     1       4.836 -12.416   9.232  0.00  0.00    -0.018 C 
ATOM      2  C   UNL     1       4.315 -13.469   9.906  0.00  0.00    -0.054 C 
ATOM      3  C   UNL     1       3.816 -13.390  11.327  0.00  0.00    +0.043 C 
ENDROOT
BRANCH   1   4
ATOM      4  C   UNL     1       4.824 -10.953   9.660  0.00  0.00    +0.038 C 
ATOM      5  C   UNL     1       4.011 -10.173   8.606  0.00  0.00    +0.014 C 
BRANCH   4   6
ATOM      6  C   UNL     1       6.213 -10.266   9.850  0.00  0.00    +0.129 C 
BRANCH   6   7
ATOM      7  O   UNL     1       5.971  -8.859  10.055  0.00  0.00    -0.379 OA
ATOM      8  C   UNL     1       7.107  -8.020   9.932  0.00  0.00    +0.194 C 
ENDBRANCH   6   7
BRANCH   6   9
ATOM      9  C   UNL     1       7.096 -10.875  10.970  0.00  0.00    +0.067 C 
BRANCH   9  10
ATOM     10  C   UNL     1       6.814 -10.549  12.427  0.00  0.00    -0.045 A 
ATOM     11  C   UNL     1       7.794 -10.875  13.382  0.00  0.00    +0.004 A 
ATOM     12  C   UNL     1       7.637 -10.522  14.725  0.00  0.00    +0.000 A 
ATOM     13  C   UNL     1       6.490  -9.854  15.141  0.00  0.00    +0.000 A 
ATOM     14  C   UNL     1       5.496  -9.553  14.217  0.00  0.00    +0.000 A 
ATOM     15  C   UNL     1       5.658  -9.897  12.874  0.00  0.00    +0.004 A 
ENDBRANCH   9  10
ENDBRANCH   6   9
ENDBRANCH   4   6
ENDBRANCH   1   4
BRANCH   2  16
ATOM     16  C   UNL     1       4.150 -14.752   9.211  0.00  0.00    +0.000 C 
ATOM     17  C   UNL     1       3.593 -15.871   9.716  0.00  0.00    -0.008 C 
BRANCH  17  18
ATOM     18  C   UNL     1       3.364 -17.130   8.919  0.00  0.00    +0.087 C 
BRANCH  18  19
ATOM     19  N   UNL     1       1.953 -17.508   9.105  0.00  0.00    -0.323 NA
ATOM     20  H   UNL     1       1.358 -16.739   8.796  0.00  0.00    +0.119 HD
ATOM     21  H   UNL     1       1.726 -18.291   8.491  0.00  0.00    +0.119 HD
ENDBRANCH  18  19
BRANCH  18  22
ATOM     22  C   UNL     1       4.285 -18.310   9.298  0.00  0.00    +0.115 C 
ATOM     23  C   UNL     1       4.135 -18.860  10.721  0.00  0.00    +0.021 C 
BRANCH  22  24
ATOM     24  C   UNL     1       5.728 -17.985   8.973  0.00  0.00    +0.309 C 
ATOM     25  O   UNL     1       6.288 -18.382   7.959  0.00  0.00    -0.251 OA
BRANCH  24  26
ATOM     26  O   UNL     1       6.365 -17.198   9.865  0.00  0.00    -0.480 OA
ATOM     27  H   UNL     1       5.800 -16.846  10.581  0.00  0.00    +0.295 HD
ENDBRANCH  24  26
ENDBRANCH  22  24
ENDBRANCH  18  22
ENDBRANCH  17  18
ENDBRANCH   2  16
TORSDOF 11
