REMARK  Name = 
REMARK  7 active torsions:
REMARK  status: ('A' for Active; 'I' for Inactive)
REMARK    1  A    between atoms: C_1  and  C_2
REMARK    2  A    between atoms: C_2  and  O_3
REMARK    3  A    between atoms: O_3  and  C_4
REMARK    4  A    between atoms: N_6  and  C_7
REMARK    5  A    between atoms: C_8  and  N_9
REMARK    6  A    between atoms: N_12  and  C_13
REMARK    7  A    between atoms: C_13  and  C_14
REMARK                            x       y       z     vdW  Elec       q    Type
REMARK                         _______ _______ _______ _____ _____    ______ ____
ROOT
ATOM      1  C   UNL     1       6.402  -2.999  -0.895  0.00  0.00    +0.076 A 
ATOM      2  C   UNL     1       7.324  -1.973  -0.784  0.00  0.00    +0.030 A 
ATOM      3  C   UNL     1       8.674  -2.290  -0.755  0.00  0.00    +0.045 A 
ATOM      4  C   UNL     1       9.085  -3.623  -0.875  0.00  0.00    +0.121 A 
ATOM      5  N   UNL     1      10.462  -3.863  -0.740  0.00  0.00    -0.325 N 
ATOM      6  H   UNL     1      10.992  -3.115  -1.174  0.00  0.00    +0.148 HD
ATOM      7  N   UNL     1       8.194  -4.632  -0.997  0.00  0.00    -0.216 NA
ATOM      8  C   UNL     1       6.878  -4.315  -0.994  0.00  0.00    +0.140 A 
ENDROOT
BRANCH   1  10
ATOM      9  C   UNL     1       4.433  -1.958   0.073  0.00  0.00    +0.405 C 
ATOM     10  N   UNL     1       5.019  -2.745  -0.883  0.00  0.00    -0.248 N 
ATOM     11  H   UNL     1       4.414  -3.472  -1.246  0.00  0.00    +0.158 HD
ATOM     12  O   UNL     1       5.005  -1.313   0.940  0.00  0.00    -0.226 OA
BRANCH   9  13
ATOM     13  O   UNL     1       3.089  -2.130  -0.002  0.00  0.00    -0.450 OA
BRANCH  13  15
ATOM     14  C   UNL     1       2.126  -3.152   1.908  0.00  0.00    +0.048 C 
ATOM     15  C   UNL     1       2.356  -1.832   1.195  0.00  0.00    +0.230 C 
ENDBRANCH  13  15
ENDBRANCH   9  13
ENDBRANCH   1  10
BRANCH   8  16
ATOM     16  N   UNL     1       5.962  -5.386  -1.019  0.00  0.00    -0.342 N 
ATOM     17  H   UNL     1       6.525  -6.234  -1.000  0.00  0.00    +0.144 HD
ATOM     18  H   UNL     1       5.371  -5.339  -0.194  0.00  0.00    +0.144 HD
ENDBRANCH   8  16
BRANCH   5  19
ATOM     19  C   UNL     1      10.951  -5.160  -1.177  0.00  0.00    +0.138 C 
BRANCH  19  20
ATOM     20  C   UNL     1      12.461  -5.173  -1.004  0.00  0.00    -0.030 A 
ATOM     21  C   UNL     1      13.318  -5.156  -2.119  0.00  0.00    +0.008 A 
ATOM     22  C   UNL     1      14.706  -5.129  -1.949  0.00  0.00    +0.038 A 
ATOM     23  C   UNL     1      15.242  -5.115  -0.666  0.00  0.00    +0.123 A 
ATOM     24  F   UNL     1      16.571  -5.083  -0.507  0.00  0.00    -0.205 F 
ATOM     25  C   UNL     1      14.414  -5.129   0.449  0.00  0.00    +0.038 A 
ATOM     26  C   UNL     1      13.029  -5.159   0.283  0.00  0.00    +0.008 A 
ENDBRANCH  19  20
ENDBRANCH   5  19
TORSDOF 6
