REMARK  Name = 
REMARK  3 active torsions:
REMARK  status: ('A' for Active; 'I' for Inactive)
REMARK    1  A    between atoms: C_1  and  C_2
REMARK    2  A    between atoms: C_6  and  C_8
REMARK    3  A    between atoms: C_15  and  C_17
REMARK                            x       y       z     vdW  Elec       q    Type
REMARK                         _______ _______ _______ _____ _____    ______ ____
ROOT
ATOM      1  C   UNL     1       5.311  -2.565  -0.594  0.00  0.00    +0.047 A 
ATOM      2  N   UNL     1       5.056  -3.807  -0.054  0.00  0.00    -0.354 N 
ATOM      3  H   UNL     1       4.460  -3.972   0.743  0.00  0.00    +0.166 HD
ATOM      4  C   UNL     1       5.672  -4.799  -0.780  0.00  0.00    +0.047 A 
ATOM      5  C   UNL     1       5.611  -6.190  -0.638  0.00  0.00    +0.027 A 
ATOM      6  C   UNL     1       6.309  -6.965  -1.572  0.00  0.00    +0.018 A 
ATOM      7  C   UNL     1       7.065  -6.365  -2.585  0.00  0.00    +0.065 A 
ATOM      8  C   UNL     1       7.144  -4.966  -2.680  0.00  0.00    +0.026 A 
ATOM      9  C   UNL     1       6.419  -4.171  -1.771  0.00  0.00    +0.001 A 
ATOM     10  C   UNL     1       6.223  -2.770  -1.616  0.00  0.00    +0.036 A 
ENDROOT
BRANCH   1  14
ATOM     11  C   UNL     1       5.521   2.351   0.351  0.00  0.00    +0.044 C 
ATOM     12  C   UNL     1       4.763   1.057   0.371  0.00  0.00    -0.050 A 
ATOM     13  C   UNL     1       5.362  -0.116  -0.119  0.00  0.00    +0.013 A 
ATOM     14  C   UNL     1       4.679  -1.340  -0.095  0.00  0.00    -0.001 A 
ATOM     15  C   UNL     1       3.368  -1.367   0.401  0.00  0.00    +0.010 A 
ATOM     16  C   UNL     1       2.760  -0.204   0.877  0.00  0.00    +0.001 A 
ATOM     17  C   UNL     1       3.456   1.002   0.865  0.00  0.00    +0.003 A 
ENDBRANCH   1  14
BRANCH   7  18
ATOM     18  C   UNL     1       7.748  -7.199  -3.616  0.00  0.00    +0.308 C 
ATOM     19  N   UNL     1       8.165  -8.405  -3.394  0.00  0.00    -0.099 NA
ATOM     20  H   UNL     1       8.017  -8.681  -2.423  0.00  0.00    +0.363 HD
ATOM     21  N   UNL     1       7.944  -6.709  -4.874  0.00  0.00    -0.247 N 
ATOM     22  H   UNL     1       8.207  -7.452  -5.513  0.00  0.00    +0.288 HD
ATOM     23  H   UNL     1       7.203  -6.124  -5.241  0.00  0.00    +0.288 HD
ENDBRANCH   7  18
TORSDOF 2
