REMARK  Name = 
REMARK  35 active torsions:
REMARK  status: ('A' for Active; 'I' for Inactive)
REMARK    1  A    between atoms: C_1  and  O_2
REMARK    2  A    between atoms: O_2  and  C_3
REMARK    3  A    between atoms: C_3  and  C_5
REMARK    4  A    between atoms: C_3  and  C_92
REMARK    5  A    between atoms: C_12  and  O_13
REMARK    6  A    between atoms: O_13  and  C_14
REMARK    7  A    between atoms: C_17  and  O_19
REMARK    8  A    between atoms: O_19  and  C_20
REMARK    9  A    between atoms: C_23  and  O_25
REMARK   10  A    between atoms: C_26  and  O_28
REMARK   11  A    between atoms: C_29  and  C_31
REMARK   12  A    between atoms: C_33  and  O_35
REMARK   13  A    between atoms: C_36  and  C_38
REMARK   14  A    between atoms: C_40  and  C_41
REMARK   15  A    between atoms: C_42  and  O_43
REMARK   16  A    between atoms: C_45  and  O_46
REMARK   17  A    between atoms: C_50  and  O_52
REMARK   18  A    between atoms: O_52  and  C_53
REMARK   19  A    between atoms: C_56  and  O_58
REMARK   20  A    between atoms: O_58  and  C_59
REMARK   21  A    between atoms: C_62  and  O_64
REMARK   22  A    between atoms: O_64  and  C_65
REMARK   23  A    between atoms: C_68  and  C_69
REMARK   24  A    between atoms: C_68  and  O_70
REMARK   25  A    between atoms: C_71  and  O_73
REMARK   26  A    between atoms: C_74  and  C_76
REMARK   27  A    between atoms: C_78  and  O_80
REMARK   28  A    between atoms: C_81  and  C_83
REMARK   29  A    between atoms: C_85  and  O_87
REMARK   30  A    between atoms: C_88  and  C_90
REMARK   31  A    between atoms: C_92  and  C_94
REMARK   32  A    between atoms: C_94  and  O_96
REMARK   33  A    between atoms: C_94  and  C_97
REMARK   34  A    between atoms: C_97  and  C_99
REMARK   35  A    between atoms: C_97  and  O_100
REMARK                            x       y       z     vdW  Elec       q    Type
REMARK                         _______ _______ _______ _____ _____    ______ ____
ROOT
ATOM      1  C   UNL     1       3.090   2.182   2.067  0.00  0.00    +0.066 C 
ATOM      2  C   UNL     1       1.827   1.276   1.888  0.00  0.00    +0.198 C 
ATOM      3  C   UNL     1       1.107   1.185   3.241  0.00  0.00    +0.196 C 
ATOM      4  O   UNL     1       0.755   0.095   3.682  0.00  0.00    -0.289 OA
ATOM      5  C   UNL     1       0.889   2.493   3.950  0.00  0.00    +0.065 A 
ATOM      6  C   UNL     1       1.550   3.624   3.428  0.00  0.00    -0.032 A 
ATOM      7  C   UNL     1       1.335   4.860   4.005  0.00  0.00    +0.013 A 
ATOM      8  C   UNL     1       0.642   4.957   5.199  0.00  0.00    -0.007 A 
ATOM      9  C   UNL     1       0.033   3.865   5.822  0.00  0.00    +0.066 A 
ATOM     10  C   UNL     1      -0.574   4.135   7.091  0.00  0.00    +0.134 A 
ATOM     11  C   UNL     1      -0.525   5.416   7.710  0.00  0.00    +0.033 A 
ATOM     12  C   UNL     1      -1.085   5.609   9.102  0.00  0.00    +0.051 C 
ATOM     13  C   UNL     1       0.071   6.469   7.015  0.00  0.00    +0.131 A 
ATOM     14  C   UNL     1       0.643   6.203   5.780  0.00  0.00    +0.055 A 
ATOM     15  C   UNL     1       0.129   2.618   5.130  0.00  0.00    +0.139 A 
ATOM     16  C   UNL     1       2.524   3.587   2.286  0.00  0.00    +0.045 C 
ENDROOT
BRANCH  10  17
ATOM     17  O   UNL     1      -1.186   3.062   7.707  0.00  0.00    -0.506 OA
ATOM     18  H   UNL     1      -1.550   3.341   8.563  0.00  0.00    +0.292 HD
ENDBRANCH  10  17
BRANCH  15  19
ATOM     19  O   UNL     1      -0.504   1.519   5.654  0.00  0.00    -0.505 OA
ATOM     20  H   UNL     1      -0.864   1.788   6.523  0.00  0.00    +0.292 HD
ENDBRANCH  15  19
BRANCH  13  21
ATOM     21  O   UNL     1       0.150   7.747   7.548  0.00  0.00    -0.463 OA
BRANCH  21  22
ATOM     22  C   UNL     1       0.241   8.800   6.552  0.00  0.00    +0.310 C 
ATOM     23  O   UNL     1       1.493   8.903   5.862  0.00  0.00    -0.336 OA
ATOM     24  C   UNL     1       2.586   9.558   6.498  0.00  0.00    +0.150 C 
ATOM     25  C   UNL     1       3.251   8.692   7.565  0.00  0.00    +0.041 C 
ATOM     26  C   UNL     1       2.167  10.956   6.958  0.00  0.00    +0.172 C 
ATOM     27  C   UNL     1       0.904  10.887   7.825  0.00  0.00    +0.158 C 
ATOM     28  C   UNL     1      -0.214  10.146   7.094  0.00  0.00    +0.109 C 
BRANCH  26  29
ATOM     29  O   UNL     1       1.902  11.749   5.786  0.00  0.00    -0.387 OA
ATOM     30  H   UNL     1       1.542  12.608   6.061  0.00  0.00    +0.210 HD
ENDBRANCH  26  29
BRANCH  27  31
ATOM     31  O   UNL     1       1.074  10.245   9.090  0.00  0.00    -0.345 OA
BRANCH  31  32
ATOM     32  C   UNL     1       2.030  10.816   9.985  0.00  0.00    +0.254 C 
ATOM     33  O   UNL     1       2.220   9.955  11.106  0.00  0.00    -0.346 OA
ATOM     34  C   UNL     1       1.133   9.855  12.035  0.00  0.00    +0.149 C 
ATOM     35  C   UNL     1       0.115   8.801  11.595  0.00  0.00    +0.041 C 
ATOM     36  C   UNL     1       0.514  11.221  12.410  0.00  0.00    +0.172 C 
ATOM     37  C   UNL     1       0.323  12.143  11.200  0.00  0.00    +0.150 C 
ATOM     38  C   UNL     1       1.624  12.214  10.411  0.00  0.00    +0.095 C 
BRANCH  37  39
ATOM     39  O   UNL     1      -0.777  11.729  10.386  0.00  0.00    -0.389 OA
ATOM     40  H   UNL     1      -0.523  10.896   9.939  0.00  0.00    +0.210 HD
ENDBRANCH  37  39
BRANCH  36  41
ATOM     41  O   UNL     1       1.414  11.873  13.325  0.00  0.00    -0.387 OA
ATOM     42  H   UNL     1       1.059  12.759  13.513  0.00  0.00    +0.210 HD
ENDBRANCH  36  41
ENDBRANCH  31  32
ENDBRANCH  27  31
ENDBRANCH  21  22
ENDBRANCH  13  21
BRANCH   2  43
ATOM     43  O   UNL     1       1.051   1.916   0.874  0.00  0.00    -0.340 OA
BRANCH  43  44
ATOM     44  C   UNL     1      -0.058   1.269   0.251  0.00  0.00    +0.254 C 
ATOM     45  O   UNL     1      -0.173   1.968  -0.983  0.00  0.00    -0.346 OA
ATOM     46  C   UNL     1      -1.398   2.010  -1.701  0.00  0.00    +0.149 C 
ATOM     47  C   UNL     1      -1.515   3.449  -2.209  0.00  0.00    +0.041 C 
ATOM     48  C   UNL     1      -2.655   1.587  -0.935  0.00  0.00    +0.172 C 
ATOM     49  C   UNL     1      -2.565   1.952   0.542  0.00  0.00    +0.157 C 
ATOM     50  C   UNL     1      -1.309   1.299   1.141  0.00  0.00    +0.095 C 
BRANCH  48  51
ATOM     51  O   UNL     1      -2.809   0.160  -1.025  0.00  0.00    -0.387 OA
ATOM     52  H   UNL     1      -3.548  -0.021  -1.632  0.00  0.00    +0.210 HD
ENDBRANCH  48  51
BRANCH  49  53
ATOM     53  O   UNL     1      -2.609   3.359   0.834  0.00  0.00    -0.345 OA
BRANCH  53  54
ATOM     54  C   UNL     1      -3.779   4.108   0.431  0.00  0.00    +0.254 C 
ATOM     55  O   UNL     1      -3.503   5.482   0.642  0.00  0.00    -0.346 OA
ATOM     56  C   UNL     1      -4.485   6.380   1.135  0.00  0.00    +0.149 C 
ATOM     57  C   UNL     1      -3.941   6.958   2.436  0.00  0.00    +0.041 C 
ATOM     58  C   UNL     1      -5.941   5.894   1.128  0.00  0.00    +0.172 C 
ATOM     59  C   UNL     1      -6.128   4.450   1.569  0.00  0.00    +0.157 C 
ATOM     60  C   UNL     1      -5.075   3.515   0.994  0.00  0.00    +0.095 C 
BRANCH  58  61
ATOM     61  O   UNL     1      -6.826   6.803   1.786  0.00  0.00    -0.387 OA
ATOM     62  H   UNL     1      -7.198   6.373   2.584  0.00  0.00    +0.210 HD
ENDBRANCH  58  61
BRANCH  59  63
ATOM     63  O   UNL     1      -6.100   4.285   2.991  0.00  0.00    -0.345 OA
BRANCH  63  64
ATOM     64  C   UNL     1      -7.372   4.232   3.633  0.00  0.00    +0.254 C 
ATOM     65  O   UNL     1      -7.726   5.522   4.112  0.00  0.00    -0.346 OA
ATOM     66  C   UNL     1      -7.274   5.940   5.411  0.00  0.00    +0.149 C 
ATOM     67  C   UNL     1      -6.090   6.896   5.323  0.00  0.00    +0.041 C 
ATOM     68  C   UNL     1      -7.048   4.837   6.461  0.00  0.00    +0.174 C 
ATOM     69  C   UNL     1      -6.491   3.527   5.879  0.00  0.00    +0.096 C 
ATOM     70  C   UNL     1      -4.999   3.583   5.534  0.00  0.00    +0.044 C 
ATOM     71  C   UNL     1      -7.370   3.141   4.694  0.00  0.00    +0.098 C 
BRANCH  69  72
ATOM     72  O   UNL     1      -6.649   2.514   6.898  0.00  0.00    -0.386 OA
ATOM     73  H   UNL     1      -6.194   1.710   6.584  0.00  0.00    +0.210 HD
ENDBRANCH  69  72
BRANCH  68  74
ATOM     74  O   UNL     1      -8.333   4.540   7.053  0.00  0.00    -0.386 OA
ATOM     75  H   UNL     1      -8.202   3.677   7.497  0.00  0.00    +0.210 HD
ENDBRANCH  68  74
ENDBRANCH  63  64
ENDBRANCH  59  63
ENDBRANCH  53  54
ENDBRANCH  49  53
ENDBRANCH  43  44
ENDBRANCH   2  43
BRANCH   1  76
ATOM     76  C   UNL     1       4.115   1.658   3.131  0.00  0.00    +0.193 C 
BRANCH  76  77
ATOM     77  C   UNL     1       5.464   2.410   3.182  0.00  0.00    +0.193 C 
ATOM     78  O   UNL     1       6.476   1.880   2.705  0.00  0.00    -0.292 OA
BRANCH  77  79
ATOM     79  C   UNL     1       5.560   3.756   3.928  0.00  0.00    +0.211 C 
BRANCH  79  80
ATOM     80  O   UNL     1       5.746   3.560   5.334  0.00  0.00    -0.382 OA
ATOM     81  H   UNL     1       6.699   3.519   5.514  0.00  0.00    +0.210 HD
ENDBRANCH  79  80
BRANCH  79  82
ATOM     82  C   UNL     1       6.715   4.608   3.346  0.00  0.00    +0.147 C 
ATOM     83  C   UNL     1       6.578   4.847   1.846  0.00  0.00    +0.041 C 
BRANCH  82  84
ATOM     84  O   UNL     1       6.735   5.885   3.998  0.00  0.00    -0.389 OA
ATOM     85  H   UNL     1       7.529   6.359   3.696  0.00  0.00    +0.210 HD
ENDBRANCH  82  84
ENDBRANCH  79  82
ENDBRANCH  77  79
ENDBRANCH  76  77
BRANCH  76  87
ATOM     86  C   UNL     1       4.314   0.695   5.296  0.00  0.00    +0.194 C 
ATOM     87  O   UNL     1       3.577   1.572   4.442  0.00  0.00    -0.372 OA
ENDBRANCH  76  87
ENDBRANCH   1  76
TORSDOF 26
