REMARK  Name = 
REMARK  12 active torsions:
REMARK  status: ('A' for Active; 'I' for Inactive)
REMARK    1  A    between atoms: C_2  and  C_3
REMARK    2  A    between atoms: C_9  and  C_10
REMARK    3  A    between atoms: C_15  and  C_17
REMARK    4  A    between atoms: C_17  and  C_19
REMARK    5  A    between atoms: C_17  and  C_20
REMARK    6  A    between atoms: C_22  and  C_24
REMARK    7  A    between atoms: C_24  and  C_26
REMARK    8  A    between atoms: C_24  and  C_27
REMARK    9  A    between atoms: C_27  and  C_28
REMARK   10  A    between atoms: C_27  and  C_29
REMARK   11  A    between atoms: C_32  and  O_34
REMARK   12  A    between atoms: C_36  and  O_38
REMARK                            x       y       z     vdW  Elec       q    Type
REMARK                         _______ _______ _______ _____ _____    ______ ____
ROOT
ATOM      1  C   UNL     1      -0.000  -0.000  -0.000  0.00  0.00    -0.000 C 
ATOM      2  C   UNL     1      -0.000  -0.000   0.000  0.00  0.00    -0.066 C 
ATOM      3  C   UNL     1      -0.000  -0.000   0.000  0.00  0.00    +0.021 C 
ATOM      4  C   UNL     1      -0.000  -0.000   0.000  0.00  0.00    +0.009 C 
ATOM      5  C   UNL     1      -0.000  -0.000   0.000  0.00  0.00    +0.005 C 
ATOM      6  C   UNL     1      -0.000  -0.000   0.000  0.00  0.00    +0.002 C 
ATOM      7  C   UNL     1      -0.000  -0.000   0.000  0.00  0.00    -0.022 C 
ATOM      8  C   UNL     1      -0.000  -0.000   0.000  0.00  0.00    +0.012 C 
ATOM      9  C   UNL     1      -0.000  -0.000   0.000  0.00  0.00    +0.008 C 
ATOM     10  C   UNL     1      -0.000  -0.000  -0.000  0.00  0.00    +0.005 C 
ATOM     11  C   UNL     1      -0.000  -0.000   0.000  0.00  0.00    +0.031 C 
ENDROOT
BRANCH   1  12
ATOM     12  C   UNL     1      -0.000  -0.000  -0.000  0.00  0.00    +0.004 C 
ATOM     13  C   UNL     1      -0.000  -0.000   0.000  0.00  0.00    -0.040 C 
ATOM     14  C   UNL     1      -0.000  -0.000   0.000  0.00  0.00    -0.023 C 
ATOM     15  C   UNL     1      -0.000  -0.000   0.000  0.00  0.00    +0.015 C 
ATOM     16  C   UNL     1      -0.000  -0.000   0.000  0.00  0.00    +0.147 C 
ATOM     17  C   UNL     1      -0.000  -0.000   0.000  0.00  0.00    +0.067 C 
ATOM     18  C   UNL     1      -0.000  -0.000   0.000  0.00  0.00    +0.122 C 
ATOM     19  C   UNL     1      -0.000  -0.000   0.000  0.00  0.00    +0.067 C 
BRANCH  16  20
ATOM     20  O   UNL     1      -0.000  -0.000   0.000  0.00  0.00    -0.387 OA
ATOM     21  H   UNL     1      -0.000  -0.000  -0.000  0.00  0.00    +0.210 HD
ENDBRANCH  16  20
BRANCH  18  22
ATOM     22  O   UNL     1      -0.000  -0.000   0.000  0.00  0.00    -0.391 OA
ATOM     23  H   UNL     1      -0.000  -0.000  -0.000  0.00  0.00    +0.210 HD
ENDBRANCH  18  22
ENDBRANCH   1  12
BRANCH   6  24
ATOM     24  C   UNL     1      -0.000  -0.000   0.000  0.00  0.00    +0.012 C 
ATOM     25  C   UNL     1      -0.000  -0.000   0.000  0.00  0.00    +0.012 C 
BRANCH  24  26
ATOM     26  C   UNL     1      -0.000  -0.000   0.000  0.00  0.00    -0.027 C 
ATOM     27  C   UNL     1      -0.000  -0.000   0.000  0.00  0.00    -0.027 C 
BRANCH  27  28
ATOM     28  C   UNL     1      -0.000  -0.000   0.000  0.00  0.00    +0.011 C 
ATOM     29  C   UNL     1      -0.000  -0.000   0.000  0.00  0.00    +0.012 C 
BRANCH  28  30
ATOM     30  C   UNL     1      -0.000  -0.000   0.000  0.00  0.00    -0.011 C 
ATOM     31  C   UNL     1      -0.000  -0.000   0.000  0.00  0.00    +0.008 C 
ATOM     32  C   UNL     1      -0.000  -0.000   0.000  0.00  0.00    +0.008 C 
ENDBRANCH  28  30
ENDBRANCH  27  28
ENDBRANCH  24  26
ENDBRANCH   6  24
TORSDOF 7
