REMARK  Name = 
REMARK  9 active torsions:
REMARK  status: ('A' for Active; 'I' for Inactive)
REMARK    1  A    between atoms: C_2  and  C_3
REMARK    2  A    between atoms: C_3  and  C_4
REMARK    3  A    between atoms: C_9  and  O_10
REMARK    4  A    between atoms: C_11  and  O_12
REMARK    5  A    between atoms: O_12  and  C_13
REMARK    6  A    between atoms: C_13  and  C_14
REMARK    7  A    between atoms: N_19  and  C_20
REMARK    8  A    between atoms: C_20  and  C_21
REMARK    9  A    between atoms: C_21  and  O_22
REMARK                            x       y       z     vdW  Elec       q    Type
REMARK                         _______ _______ _______ _____ _____    ______ ____
ROOT
ATOM      1  C   UNL     1       0.583  -0.133  -0.069  0.00  0.00    +0.060 C 
ENDROOT
BRANCH   1   2
ATOM      2  C   UNL     1       0.048  -1.546  -0.280  0.00  0.00    -0.027 A 
ATOM      3  C   UNL     1      -1.319  -1.778  -0.007  0.00  0.00    +0.054 A 
ATOM      4  C   UNL     1      -1.854  -3.068  -0.040  0.00  0.00    +0.163 A 
ATOM      5  C   UNL     1      -1.006  -4.152  -0.272  0.00  0.00    +0.174 A 
ATOM      6  C   UNL     1       0.344  -3.950  -0.592  0.00  0.00    +0.077 A 
ATOM      7 BR   UNL     1       1.418  -5.496  -0.919  0.00  0.00    -0.045 Br
ATOM      8  C   UNL     1       0.865  -2.642  -0.639  0.00  0.00    +0.039 A 
ATOM      9 BR   UNL     1       2.661  -2.342  -1.224  0.00  0.00    -0.049 Br
BRANCH   5  10
ATOM     10  O   UNL     1      -1.537  -5.417  -0.186  0.00  0.00    -0.503 OA
ATOM     11  H   UNL     1      -0.806  -6.056  -0.266  0.00  0.00    +0.292 HD
ENDBRANCH   5  10
BRANCH   4  12
ATOM     12  O   UNL     1      -3.169  -3.349   0.221  0.00  0.00    -0.489 OA
BRANCH  12  13
ATOM     13  C   UNL     1      -4.122  -2.420  -0.296  0.00  0.00    +0.226 C 
ATOM     14  C   UNL     1      -5.390  -3.183  -0.641  0.00  0.00    +0.048 C 
ENDBRANCH  12  13
ENDBRANCH   4  12
ENDBRANCH   1   2
BRANCH   1  15
ATOM     15  C   UNL     1       0.831   0.182   1.410  0.00  0.00    +0.144 C 
ATOM     16  C   UNL     1       1.266   1.608   1.698  0.00  0.00    +0.235 C 
ATOM     17  O   UNL     1       1.096   2.578   0.968  0.00  0.00    -0.274 OA
ATOM     18  N   UNL     1       1.880   1.690   2.931  0.00  0.00    -0.248 N 
ATOM     19  C   UNL     1       2.394   0.510   3.428  0.00  0.00    +0.117 C 
ATOM     20  S   UNL     1       3.159   0.249   4.879  0.00  0.00    -0.028 S 
ATOM     21  S   UNL     1       2.109  -0.786   2.267  0.00  0.00    -0.089 S 
BRANCH  18  22
ATOM     22  C   UNL     1       2.013   3.000   3.582  0.00  0.00    +0.235 C 
BRANCH  22  23
ATOM     23  C   UNL     1       3.219   3.796   3.118  0.00  0.00    +0.323 C 
ATOM     24  O   UNL     1       4.018   4.316   3.885  0.00  0.00    -0.249 OA
BRANCH  23  25
ATOM     25  O   UNL     1       3.277   4.003   1.780  0.00  0.00    -0.480 OA
ATOM     26  H   UNL     1       2.498   3.668   1.277  0.00  0.00    +0.295 HD
ENDBRANCH  23  25
ENDBRANCH  22  23
ENDBRANCH  18  22
ENDBRANCH   1  15
TORSDOF 8
