REMARK  Name = 
REMARK  9 active torsions:
REMARK  status: ('A' for Active; 'I' for Inactive)
REMARK    1  A    between atoms: C_2  and  N_3
REMARK    2  A    between atoms: C_2  and  C_4
REMARK    3  A    between atoms: C_2  and  C_8
REMARK    4  A    between atoms: C_4  and  C_5
REMARK    5  A    between atoms: C_5  and  C_6
REMARK    6  A    between atoms: C_5  and  C_7
REMARK    7  A    between atoms: C_14  and  C_16
REMARK    8  A    between atoms: N_18  and  C_19
REMARK    9  A    between atoms: C_19  and  C_20
REMARK                            x       y       z     vdW  Elec       q    Type
REMARK                         _______ _______ _______ _____ _____    ______ ____
ROOT
ATOM      1  C   UNL     1       2.748  -0.886   1.076  0.00  0.00    +0.233 C 
ATOM      2  N   UNL     1       4.065  -0.869   1.485  0.00  0.00    -0.289 N 
ATOM      3  C   UNL     1       4.790  -2.148   1.541  0.00  0.00    +0.162 C 
ATOM      4  C   UNL     1       6.238  -1.791   1.174  0.00  0.00    +0.033 C 
ATOM      5  C   UNL     1       6.219  -0.309   0.798  0.00  0.00    +0.021 C 
ATOM      6  C   UNL     1       5.002   0.242   1.512  0.00  0.00    +0.108 C 
ATOM      7  O   UNL     1       2.074  -1.917   1.198  0.00  0.00    -0.274 OA
ENDROOT
BRANCH   3   8
ATOM      8  C   UNL     1       4.751  -2.834   2.920  0.00  0.00    +0.234 C 
ATOM      9  N   UNL     1       4.542  -1.980   3.979  0.00  0.00    -0.310 N 
ATOM     10  H   UNL     1       4.185  -1.058   3.766  0.00  0.00    +0.149 HD
ATOM     11  O   UNL     1       5.061  -4.015   3.065  0.00  0.00    -0.274 OA
BRANCH   9  12
ATOM     12  C   UNL     1       4.551  -2.419   5.351  0.00  0.00    +0.139 C 
BRANCH  12  13
ATOM     13  C   UNL     1       3.260  -2.070   6.044  0.00  0.00    -0.029 A 
ATOM     14  C   UNL     1       2.045  -2.604   5.587  0.00  0.00    +0.005 A 
ATOM     15  C   UNL     1       0.853  -2.336   6.261  0.00  0.00    +0.002 A 
ATOM     16  C   UNL     1       0.860  -1.530   7.399  0.00  0.00    +0.020 A 
ATOM     17  C   UNL     1       2.060  -0.984   7.849  0.00  0.00    +0.041 A 
ATOM     18 CL   UNL     1       2.072   0.010   9.254  0.00  0.00    -0.084 Cl
ATOM     19  C   UNL     1       3.256  -1.246   7.179  0.00  0.00    +0.025 A 
ENDBRANCH  12  13
ENDBRANCH   9  12
ENDBRANCH   3   8
BRANCH   1  20
ATOM     20  C   UNL     1       2.105   0.352   0.397  0.00  0.00    +0.138 C 
BRANCH  20  21
ATOM     21  N   UNL     1       2.984   0.871  -0.674  0.00  0.00    -0.320 NA
ATOM     22  H   UNL     1       3.212   0.100  -1.303  0.00  0.00    +0.119 HD
ATOM     23  H   UNL     1       2.461   1.540  -1.238  0.00  0.00    +0.119 HD
ENDBRANCH  20  21
BRANCH  20  24
ATOM     24  C   UNL     1       1.670   1.430   1.399  0.00  0.00    +0.031 C 
BRANCH  24  25
ATOM     25  C   UNL     1       0.922   2.631   0.771  0.00  0.00    -0.015 C 
ATOM     26  C   UNL     1       0.582   3.670   1.843  0.00  0.00    +0.007 C 
ATOM     27  C   UNL     1      -0.360   2.220   0.041  0.00  0.00    +0.007 C 
ENDBRANCH  24  25
ENDBRANCH  20  24
ENDBRANCH   1  20
TORSDOF 7
