REMARK  Name = 
REMARK  5 active torsions:
REMARK  status: ('A' for Active; 'I' for Inactive)
REMARK    1  A    between atoms: C_5  and  N_8
REMARK    2  A    between atoms: C_10  and  C_11
REMARK    3  A    between atoms: N_14  and  C_15
REMARK    4  A    between atoms: C_15  and  C_16
REMARK    5  A    between atoms: C_16  and  N_17
REMARK                            x       y       z     vdW  Elec       q    Type
REMARK                         _______ _______ _______ _____ _____    ______ ____
ROOT
ATOM      1  N   UNL     1       6.489  -0.035  -1.125  0.00  0.00    -0.316 N 
ATOM      2  C   UNL     1       7.299  -0.965  -0.464  0.00  0.00    +0.054 A 
ATOM      3  C   UNL     1       7.036  -2.236   0.095  0.00  0.00    +0.028 A 
ATOM      4  C   UNL     1       8.078  -2.946   0.703  0.00  0.00    +0.022 A 
ATOM      5  C   UNL     1       9.362  -2.429   0.730  0.00  0.00    +0.042 A 
ATOM      6  C   UNL     1       9.642  -1.200   0.141  0.00  0.00    +0.030 A 
ATOM      7 CL   UNL     1      10.635  -3.319   1.473  0.00  0.00    -0.084 Cl
ATOM      8  C   UNL     1       8.603  -0.460  -0.474  0.00  0.00    +0.005 A 
ATOM      9  C   UNL     1       8.600   0.791  -1.162  0.00  0.00    -0.019 A 
ATOM     10  C   UNL     1       7.299   0.999  -1.569  0.00  0.00    +0.096 A 
ENDROOT
BRANCH   1  15
ATOM     11  F   UNL     1       1.013  -0.373  -2.078  0.00  0.00    -0.205 F 
ATOM     12  C   UNL     1       2.325  -0.268  -1.831  0.00  0.00    +0.124 A 
ATOM     13  C   UNL     1       2.857  -0.852  -0.689  0.00  0.00    +0.040 A 
ATOM     14  C   UNL     1       4.230  -0.759  -0.437  0.00  0.00    +0.029 A 
ATOM     15  C   UNL     1       5.074  -0.096  -1.340  0.00  0.00    +0.047 A 
ATOM     16  C   UNL     1       4.511   0.524  -2.470  0.00  0.00    +0.029 A 
ATOM     17  C   UNL     1       3.137   0.428  -2.716  0.00  0.00    +0.040 A 
ENDBRANCH   1  15
BRANCH   9  18
ATOM     18  C   UNL     1       9.824   1.661  -1.346  0.00  0.00    +0.023 C 
ATOM     19  C   UNL     1      10.167   2.404  -0.041  0.00  0.00    +0.023 C 
ATOM     20  C   UNL     1       9.470   3.759   0.072  0.00  0.00    +0.085 C 
ATOM     21  N   UNL     1       9.693   4.625  -1.097  0.00  0.00    -0.301 NA
ATOM     22  C   UNL     1       9.159   3.951  -2.290  0.00  0.00    +0.085 C 
ATOM     23  C   UNL     1       9.792   2.588  -2.569  0.00  0.00    +0.023 C 
BRANCH  21  24
ATOM     24  C   UNL     1      11.115   5.018  -1.214  0.00  0.00    +0.103 C 
BRANCH  24  25
ATOM     25  C   UNL     1      11.398   6.032  -2.334  0.00  0.00    +0.124 C 
BRANCH  25  26
ATOM     26  N   UNL     1      12.800   6.387  -2.443  0.00  0.00    -0.283 N 
ATOM     27  C   UNL     1      13.765   5.598  -3.063  0.00  0.00    +0.302 C 
ATOM     28  O   UNL     1      13.597   4.548  -3.654  0.00  0.00    -0.253 OA
ATOM     29  N   UNL     1      14.986   6.245  -2.906  0.00  0.00    -0.298 N 
ATOM     30  H   UNL     1      15.769   5.949  -3.473  0.00  0.00    +0.150 HD
ATOM     31  C   UNL     1      14.774   7.570  -2.383  0.00  0.00    +0.124 C 
ATOM     32  C   UNL     1      13.425   7.446  -1.685  0.00  0.00    +0.128 C 
ENDBRANCH  25  26
ENDBRANCH  24  25
ENDBRANCH  21  24
ENDBRANCH   9  18
TORSDOF 5
