REMARK  Name = 
REMARK  4 active torsions:
REMARK  status: ('A' for Active; 'I' for Inactive)
REMARK    1  A    between atoms: N_1  and  C_2
REMARK    2  A    between atoms: C_2  and  C_3
REMARK    3  A    between atoms: C_6  and  S_9
REMARK    4  A    between atoms: S_9  and  N_10
REMARK                            x       y       z     vdW  Elec       q    Type
REMARK                         _______ _______ _______ _____ _____    ______ ____
ROOT
ATOM      1  C   UNL     1       2.974  -0.223  -1.382  0.00  0.00    -0.034 A 
ATOM      2  C   UNL     1       3.002  -1.542  -1.860  0.00  0.00    +0.007 A 
ATOM      3  C   UNL     1       3.304  -1.804  -3.197  0.00  0.00    +0.029 A 
ATOM      4  C   UNL     1       3.592  -0.743  -4.059  0.00  0.00    +0.105 A 
ATOM      5  C   UNL     1       3.583   0.575  -3.597  0.00  0.00    +0.029 A 
ATOM      6  C   UNL     1       3.283   0.829  -2.260  0.00  0.00    +0.007 A 
ENDROOT
BRANCH   4   7
ATOM      7  S   UNL     1       3.901  -1.061  -5.769  0.00  0.00    +0.056 S 
ATOM      8  O   UNL     1       3.568   0.114  -6.542  0.00  0.00    -0.153 OA
ATOM      9  O   UNL     1       3.416  -2.378  -6.111  0.00  0.00    -0.153 OA
BRANCH   7  10
ATOM     10  N   UNL     1       5.577  -1.166  -5.794  0.00  0.00    -0.204 NA
ATOM     11  H   UNL     1       5.963  -0.411  -6.360  0.00  0.00    +0.144 HD
ATOM     12  H   UNL     1       5.859  -2.099  -6.095  0.00  0.00    +0.144 HD
ENDBRANCH   7  10
ENDBRANCH   4   7
BRANCH   1  13
ATOM     13  C   UNL     1       2.575   0.073   0.042  0.00  0.00    +0.113 C 
BRANCH  13  14
ATOM     14  N   UNL     1       1.341   0.848   0.080  0.00  0.00    -0.326 NA
ATOM     15  H   UNL     1       0.621   0.346  -0.439  0.00  0.00    +0.119 HD
ATOM     16  H   UNL     1       1.013   0.915   1.041  0.00  0.00    +0.119 HD
ENDBRANCH  13  14
ENDBRANCH   1  13
TORSDOF 4
