REMARK  Name = 
REMARK  4 active torsions:
REMARK  status: ('A' for Active; 'I' for Inactive)
REMARK    1  A    between atoms: C_1  and  C_2
REMARK    2  A    between atoms: C_1  and  O_8
REMARK    3  A    between atoms: C_2  and  N_3
REMARK    4  A    between atoms: O_8  and  C_9
REMARK                            x       y       z     vdW  Elec       q    Type
REMARK                         _______ _______ _______ _____ _____    ______ ____
ROOT
ATOM      1  C   UNL     1       3.078   0.269   1.299  0.00  0.00    +0.121 A 
ATOM      2  C   UNL     1       4.365  -0.237   1.490  0.00  0.00    +0.047 A 
ATOM      3  C   UNL     1       5.091   0.028   2.659  0.00  0.00    +0.030 A 
ATOM      4  C   UNL     1       4.484   0.842   3.624  0.00  0.00    +0.047 A 
ATOM      5  N   UNL     1       4.945   1.284   4.843  0.00  0.00    -0.361 N 
ATOM      6  H   UNL     1       5.850   1.057   5.231  0.00  0.00    +0.165 HD
ATOM      7  C   UNL     1       4.009   2.084   5.442  0.00  0.00    +0.083 A 
ATOM      8  C   UNL     1       2.919   2.154   4.607  0.00  0.00    +0.027 A 
ATOM      9  C   UNL     1       3.207   1.372   3.458  0.00  0.00    +0.003 A 
ATOM     10  C   UNL     1       2.493   1.076   2.281  0.00  0.00    +0.055 A 
ENDROOT
BRANCH   1  11
ATOM     11  O   UNL     1       2.488  -0.052   0.100  0.00  0.00    -0.490 OA
BRANCH  11  12
ATOM     12  C   UNL     1       1.062   0.053   0.075  0.00  0.00    +0.250 C 
BRANCH  12  13
ATOM     13  C   UNL     1       0.552  -0.228  -1.330  0.00  0.00    +0.162 C 
BRANCH  13  14
ATOM     14  N   UNL     1      -0.898  -0.170  -1.374  0.00  0.00    -0.350 N 
ATOM     15  C   UNL     1      -1.640   0.965  -1.573  0.00  0.00    +0.086 A 
ATOM     16  C   UNL     1      -2.972   0.618  -1.498  0.00  0.00    +0.019 A 
ATOM     17  C   UNL     1      -3.031  -0.773  -1.240  0.00  0.00    +0.019 A 
ATOM     18  C   UNL     1      -1.735  -1.234  -1.165  0.00  0.00    +0.086 A 
ENDBRANCH  13  14
ENDBRANCH  12  13
ENDBRANCH  11  12
ENDBRANCH   1  11
TORSDOF 4
