REMARK  Name = 
REMARK  3 active torsions:
REMARK  status: ('A' for Active; 'I' for Inactive)
REMARK    1  A    between atoms: C_2  and  C_4
REMARK    2  A    between atoms: N_6  and  C_7
REMARK    3  A    between atoms: C_7  and  C_8
REMARK                            x       y       z     vdW  Elec       q    Type
REMARK                         _______ _______ _______ _____ _____    ______ ____
ROOT
ATOM      1  C   UNL     1       2.624  -1.978  -0.210  0.00  0.00    +0.167 A 
ATOM      2  N   UNL     1       2.854  -2.119   1.139  0.00  0.00    -0.125 NA
ATOM      3  N   UNL     1       4.125  -2.459   1.311  0.00  0.00    -0.065 NA
ATOM      4  N   UNL     1       4.695  -2.534   0.092  0.00  0.00    -0.246 N 
ATOM      5  C   UNL     1       3.806  -2.196  -0.887  0.00  0.00    +0.143 A 
ENDROOT
BRANCH   1   9
ATOM      6  N   UNL     1       0.302  -1.613   0.130  0.00  0.00    -0.324 N 
ATOM      7  H   UNL     1       0.480  -1.757   1.117  0.00  0.00    +0.145 HD
ATOM      8  H   UNL     1      -0.642  -1.493  -0.204  0.00  0.00    +0.145 HD
ATOM      9  C   UNL     1       1.316  -1.707  -0.782  0.00  0.00    +0.263 C 
ATOM     10  O   UNL     1       1.103  -1.598  -1.984  0.00  0.00    -0.269 OA
ENDBRANCH   1   9
BRANCH   4  11
ATOM     11  C   UNL     1       5.962  -3.222  -0.081  0.00  0.00    +0.186 C 
BRANCH  11  12
ATOM     12  C   UNL     1       7.152  -2.316  -0.113  0.00  0.00    +0.044 A 
ATOM     13  C   UNL     1       7.615  -1.779  -1.314  0.00  0.00    +0.131 A 
ATOM     14  F   UNL     1       6.928  -1.997  -2.445  0.00  0.00    -0.205 F 
ATOM     15  C   UNL     1       8.806  -1.057  -1.380  0.00  0.00    +0.039 A 
ATOM     16  C   UNL     1       9.553  -0.847  -0.222  0.00  0.00    +0.006 A 
ATOM     17  C   UNL     1       9.083  -1.335   0.997  0.00  0.00    +0.039 A 
ATOM     18  C   UNL     1       7.890  -2.055   1.041  0.00  0.00    +0.131 A 
ATOM     19  F   UNL     1       7.480  -2.546   2.218  0.00  0.00    -0.205 F 
ENDBRANCH  11  12
ENDBRANCH   4  11
TORSDOF 3
