REMARK  Name = 
REMARK  11 active torsions:
REMARK  status: ('A' for Active; 'I' for Inactive)
REMARK    1  A    between atoms: C_1  and  N_2
REMARK    2  A    between atoms: C_3  and  C_4
REMARK    3  A    between atoms: C_4  and  C_5
REMARK    4  A    between atoms: C_5  and  C_6
REMARK    5  A    between atoms: C_6  and  C_7
REMARK    6  A    between atoms: C_7  and  O_8
REMARK    7  A    between atoms: C_13  and  N_17
REMARK    8  A    between atoms: N_17  and  C_18
REMARK    9  A    between atoms: N_17  and  C_21
REMARK   10  A    between atoms: C_18  and  C_19
REMARK   11  A    between atoms: C_21  and  C_22
REMARK                            x       y       z     vdW  Elec       q    Type
REMARK                         _______ _______ _______ _____ _____    ______ ____
ROOT
ATOM      1  C   UNL     1       0.935  -0.196  -0.065  0.00  0.00    +0.150 C 
ATOM      2  N   UNL     1       2.373  -0.081  -0.070  0.00  0.00    -0.331 N 
ATOM      3  C   UNL     1       3.225  -1.167  -0.087  0.00  0.00    +0.069 A 
ATOM      4  C   UNL     1       4.490  -0.606  -0.087  0.00  0.00    +0.091 A 
ATOM      5  C   UNL     1       5.619  -1.438  -0.113  0.00  0.00    +0.053 A 
ATOM      6  C   UNL     1       5.498  -2.840  -0.110  0.00  0.00    +0.032 A 
ATOM      7  C   UNL     1       4.190  -3.359  -0.119  0.00  0.00    +0.025 A 
ATOM      8  N   UNL     1       4.426   0.759  -0.062  0.00  0.00    -0.232 NA
ATOM      9  C   UNL     1       3.034  -2.550  -0.107  0.00  0.00    +0.030 A 
ATOM     10  C   UNL     1       3.143   1.064  -0.073  0.00  0.00    +0.111 A 
ENDROOT
BRANCH   6  11
ATOM     11  N   UNL     1       6.627  -3.653  -0.078  0.00  0.00    -0.328 N 
BRANCH  11  12
ATOM     12  C   UNL     1       7.868  -3.172   0.564  0.00  0.00    +0.121 C 
BRANCH  12  13
ATOM     13  C   UNL     1       7.704  -2.866   2.059  0.00  0.00    +0.127 C 
ATOM     14 CL   UNL     1       7.291  -4.326   3.001  0.00  0.00    -0.124 Cl
ENDBRANCH  12  13
ENDBRANCH  11  12
BRANCH  11  15
ATOM     15  C   UNL     1       6.617  -5.053  -0.535  0.00  0.00    +0.121 C 
BRANCH  15  16
ATOM     16  C   UNL     1       6.407  -5.201  -2.047  0.00  0.00    +0.127 C 
ATOM     17 CL   UNL     1       7.679  -4.382  -2.994  0.00  0.00    -0.124 Cl
ENDBRANCH  15  16
ENDBRANCH  11  15
ENDBRANCH   6  11
BRANCH  10  18
ATOM     18  C   UNL     1       2.655   2.479  -0.116  0.00  0.00    +0.075 C 
BRANCH  18  19
ATOM     19  C   UNL     1       3.257   3.196  -1.331  0.00  0.00    +0.019 C 
BRANCH  19  20
ATOM     20  C   UNL     1       2.947   4.686  -1.347  0.00  0.00    +0.121 C 
BRANCH  20  21
ATOM     21  C   UNL     1       3.444   5.339  -2.611  0.00  0.00    +0.305 C 
ATOM     22  O   UNL     1       2.708   5.855  -3.441  0.00  0.00    -0.251 OA
BRANCH  21  23
ATOM     23  O   UNL     1       4.788   5.332  -2.745  0.00  0.00    -0.481 OA
ATOM     24  H   UNL     1       5.264   4.889  -2.018  0.00  0.00    +0.295 HD
ENDBRANCH  21  23
ENDBRANCH  20  21
ENDBRANCH  19  20
ENDBRANCH  18  19
ENDBRANCH  10  18
TORSDOF 10
