REMARK  Name = 
REMARK  5 active torsions:
REMARK  status: ('A' for Active; 'I' for Inactive)
REMARK    1  A    between atoms: N_1  and  S_2
REMARK    2  A    between atoms: S_2  and  O_5
REMARK    3  A    between atoms: O_5  and  C_6
REMARK    4  A    between atoms: C_11  and  C_12
REMARK    5  A    between atoms: C_12  and  C_13
REMARK                            x       y       z     vdW  Elec       q    Type
REMARK                         _______ _______ _______ _____ _____    ______ ____
ROOT
ATOM      1  C   UNL     1       4.696  -0.237   2.586  0.00  0.00    +0.160 A 
ATOM      2  C   UNL     1       5.799  -0.097   3.423  0.00  0.00    +0.076 A 
ATOM      3  C   UNL     1       6.840   0.688   2.960  0.00  0.00    +0.104 A 
ATOM      4  C   UNL     1       6.864   1.297   1.709  0.00  0.00    +0.002 A 
ATOM      5  C   UNL     1       8.064   2.103   1.494  0.00  0.00    +0.032 C 
ATOM      6  C   UNL     1       8.900   2.095   2.552  0.00  0.00    +0.072 C 
ATOM      7  C   UNL     1       5.787   1.114   0.857  0.00  0.00    +0.013 A 
ATOM      8  S   UNL     1       8.277   1.111   3.856  0.00  0.00    +0.022 S 
ATOM      9  O   UNL     1       7.879   1.946   4.969  0.00  0.00    -0.165 OA
ATOM     10  O   UNL     1       9.064  -0.095   4.012  0.00  0.00    -0.165 OA
ATOM     11  C   UNL     1       4.702   0.340   1.300  0.00  0.00    +0.049 A 
ENDROOT
BRANCH   1  12
ATOM     12  O   UNL     1       3.550  -0.909   2.929  0.00  0.00    -0.334 OA
BRANCH  12  13
ATOM     13  S   UNL     1       3.117  -1.098   4.490  0.00  0.00    +0.189 S 
ATOM     14  O   UNL     1       3.683  -2.333   4.984  0.00  0.00    -0.119 OA
ATOM     15  O   UNL     1       3.260   0.144   5.210  0.00  0.00    -0.119 OA
BRANCH  13  16
ATOM     16  N   UNL     1       1.465  -1.385   4.424  0.00  0.00    -0.174 NA
ATOM     17  H   UNL     1       1.301  -2.362   4.190  0.00  0.00    +0.147 HD
ATOM     18  H   UNL     1       1.070  -1.142   5.334  0.00  0.00    +0.147 HD
ENDBRANCH  13  16
ENDBRANCH  12  13
ENDBRANCH   1  12
BRANCH   6  19
ATOM     19  C   UNL     1      10.152   2.887   2.748  0.00  0.00    +0.058 C 
BRANCH  19  20
ATOM     20  C   UNL     1      11.452   2.076   3.000  0.00  0.00    -0.005 C 
ATOM     21  C   UNL     1      12.586   3.067   3.342  0.00  0.00    +0.004 C 
ATOM     22  C   UNL     1      13.842   2.398   3.898  0.00  0.00    +0.000 C 
ATOM     23  C   UNL     1      14.858   1.976   2.841  0.00  0.00    +0.000 C 
ATOM     24  C   UNL     1      14.283   1.352   1.575  0.00  0.00    +0.000 C 
ATOM     25  C   UNL     1      13.098   0.423   1.818  0.00  0.00    +0.000 C 
ATOM     26  C   UNL     1      11.754   1.153   1.804  0.00  0.00    +0.004 C 
ENDBRANCH  19  20
ENDBRANCH   6  19
TORSDOF 5
