REMARK  Name = 
REMARK  37 active torsions:
REMARK  status: ('A' for Active; 'I' for Inactive)
REMARK    1  A    between atoms: C_1  and  C_2
REMARK    2  A    between atoms: C_2  and  C_3
REMARK    3  A    between atoms: C_2  and  C_4
REMARK    4  A    between atoms: C_4  and  C_5
REMARK    5  A    between atoms: C_5  and  N_7
REMARK    6  A    between atoms: C_5  and  C_78
REMARK    7  A    between atoms: C_8  and  C_10
REMARK    8  A    between atoms: C_10  and  C_12
REMARK    9  A    between atoms: C_10  and  N_22
REMARK   10  A    between atoms: C_12  and  C_13
REMARK   11  A    between atoms: C_23  and  C_25
REMARK   12  A    between atoms: C_25  and  C_27
REMARK   13  A    between atoms: C_25  and  N_35
REMARK   14  A    between atoms: C_27  and  C_28
REMARK   15  A    between atoms: C_31  and  O_32
REMARK   16  A    between atoms: C_36  and  CA_38
REMARK   17  A    between atoms: CA_38  and  C_40
REMARK   18  A    between atoms: CA_38  and  N_42
REMARK   19  A    between atoms: C_40  and  O_41
REMARK   20  A    between atoms: C_43  and  CA_45
REMARK   21  A    between atoms: CA_45  and  CB_47
REMARK   22  A    between atoms: CA_45  and  N_57
REMARK   23  A    between atoms: CB_47  and  CG_48
REMARK   24  A    between atoms: C_58  and  CA_60
REMARK   25  A    between atoms: CA_60  and  CB_62
REMARK   26  A    between atoms: CA_60  and  N_68
REMARK   27  A    between atoms: CB_62  and  CG_63
REMARK   28  A    between atoms: C_69  and  CA_71
REMARK   29  A    between atoms: N_80  and  C_81
REMARK   30  A    between atoms: C_81  and  C_83
REMARK   31  A    between atoms: C_81  and  C_90
REMARK   32  A    between atoms: C_83  and  C_84
REMARK   33  A    between atoms: C_84  and  C_85
REMARK   34  A    between atoms: C_85  and  N_86
REMARK   35  A    between atoms: C_96  and  C_98
REMARK   36  A    between atoms: N_100  and  C_101
REMARK   37  A    between atoms: C_101  and  C_102
REMARK                            x       y       z     vdW  Elec       q    Type
REMARK                         _______ _______ _______ _____ _____    ______ ____
ROOT
ATOM      1  N   UNL     1       1.551   0.546  18.975  0.00  0.00    -0.302 N 
ATOM      2  H   UNL     1       1.596   1.420  18.439  0.00  0.00    +0.150 HD
ATOM      3  C   UNL     1       2.780   0.210  19.510  0.00  0.00    +0.234 C 
ATOM      4  O   UNL     1       2.845  -0.401  20.582  0.00  0.00    -0.274 OA
ENDROOT
BRANCH   3   5
ATOM      5  C   UNL     1       4.098   0.478  18.663  0.00  0.00    +0.163 C 
BRANCH   5   6
ATOM      6  N   UNL     1       4.197   1.201  17.358  0.00  0.00    -0.302 N 
ATOM      7  H   UNL     1       5.041   1.015  16.818  0.00  0.00    +0.150 HD
ATOM      8  C   UNL     1       3.383   2.194  16.866  0.00  0.00    +0.236 C 
ATOM      9  O   UNL     1       2.495   2.690  17.559  0.00  0.00    -0.274 OA
BRANCH   8  10
ATOM     10  CA  UNL     1       3.614   2.679  15.377  0.00  0.00    +0.184 C 
BRANCH  10  11
ATOM     11  N   UNL     1       4.113   4.067  15.277  0.00  0.00    -0.301 N 
ATOM     12  H   UNL     1       4.436   4.505  16.131  0.00  0.00    +0.150 HD
ATOM     13  C   UNL     1       4.121   4.753  14.065  0.00  0.00    +0.234 C 
ATOM     14  O   UNL     1       3.643   4.252  13.046  0.00  0.00    -0.274 OA
BRANCH  13  15
ATOM     15  CA  UNL     1       4.929   6.087  14.029  0.00  0.00    +0.163 C 
BRANCH  15  16
ATOM     16  N   UNL     1       5.173   6.539  12.628  0.00  0.00    -0.302 N 
ATOM     17  H   UNL     1       5.849   5.988  12.120  0.00  0.00    +0.150 HD
ATOM     18  C   UNL     1       4.230   7.187  11.850  0.00  0.00    +0.234 C 
ATOM     19  O   UNL     1       3.119   7.473  12.304  0.00  0.00    -0.274 OA
BRANCH  18  20
ATOM     20  CA  UNL     1       4.522   7.331  10.318  0.00  0.00    +0.165 C 
BRANCH  20  21
ATOM     21  N   UNL     1       3.393   8.010   9.668  0.00  0.00    -0.302 N 
ATOM     22  H   UNL     1       2.926   8.753  10.179  0.00  0.00    +0.150 HD
ATOM     23  C   UNL     1       2.897   7.554   8.476  0.00  0.00    +0.234 C 
ATOM     24  O   UNL     1       3.544   6.785   7.763  0.00  0.00    -0.274 OA
BRANCH  23  25
ATOM     25  CA  UNL     1       1.425   7.860   8.157  0.00  0.00    +0.159 C 
ATOM     26  N   UNL     1       0.720   8.885   8.886  0.00  0.00    -0.304 N 
ATOM     27  H   UNL     1       0.240   8.723   9.764  0.00  0.00    +0.149 HD
ATOM     28  C   UNL     1       0.255   9.882   8.051  0.00  0.00    +0.214 C 
ATOM     29  O   UNL     1      -0.578  10.719   8.344  0.00  0.00    -0.276 OA
ATOM     30  C   UNL     1       0.968   9.748   6.737  0.00  0.00    +0.098 C 
ATOM     31  C   UNL     1       1.254   8.253   6.691  0.00  0.00    +0.041 C 
ENDBRANCH  23  25
ENDBRANCH  20  21
BRANCH  20  32
ATOM     32  CB  UNL     1       5.908   7.720   9.776  0.00  0.00    +0.088 C 
BRANCH  32  33
ATOM     33  CG  UNL     1       6.313   9.153   9.641  0.00  0.00    +0.061 A 
ATOM     34  ND1 UNL     1       5.719  10.174  10.335  0.00  0.00    -0.241 NA
ATOM     35  CE1 UNL     1       6.424  11.249  10.058  0.00  0.00    +0.196 A 
ATOM     36  NE2 UNL     1       7.426  10.984   9.173  0.00  0.00    -0.351 N 
ATOM     37  HE2 UNL     1       8.105  11.651   8.820  0.00  0.00    +0.166 HD
ATOM     38  CD2 UNL     1       7.365   9.650   8.886  0.00  0.00    +0.107 A 
ENDBRANCH  32  33
ENDBRANCH  20  32
ENDBRANCH  18  20
ENDBRANCH  15  16
BRANCH  15  39
ATOM     39  CB  UNL     1       4.376   7.128  15.017  0.00  0.00    +0.069 C 
BRANCH  39  40
ATOM     40  CG  UNL     1       5.259   8.332  15.182  0.00  0.00    -0.020 A 
ATOM     41  CD2 UNL     1       5.043   9.614  14.585  0.00  0.00    +0.003 A 
ATOM     42  CE3 UNL     1       4.068  10.128  13.716  0.00  0.00    +0.010 A 
ATOM     43  CZ3 UNL     1       4.097  11.470  13.345  0.00  0.00    +0.001 A 
ATOM     44  CH2 UNL     1       5.083  12.311  13.847  0.00  0.00    +0.002 A 
ATOM     45  CZ2 UNL     1       6.080  11.827  14.703  0.00  0.00    +0.026 A 
ATOM     46  CE2 UNL     1       6.038  10.470  15.052  0.00  0.00    +0.047 A 
ATOM     47  NE1 UNL     1       6.858   9.729  15.870  0.00  0.00    -0.360 N 
ATOM     48  HE1 UNL     1       7.665  10.097  16.352  0.00  0.00    +0.165 HD
ATOM     49  CD1 UNL     1       6.385   8.445  15.973  0.00  0.00    +0.087 A 
ENDBRANCH  39  40
ENDBRANCH  15  39
ENDBRANCH  13  15
ENDBRANCH  10  11
BRANCH  10  50
ATOM     50  C   UNL     1       4.487   1.729  14.534  0.00  0.00    +0.187 C 
BRANCH  50  51
ATOM     51  O   UNL     1       5.843   1.753  14.996  0.00  0.00    -0.393 OA
ATOM     52  H   UNL     1       6.231   2.571  14.631  0.00  0.00    +0.209 HD
ENDBRANCH  50  51
ENDBRANCH  10  50
ENDBRANCH   8  10
ENDBRANCH   5   6
BRANCH   5  53
ATOM     53  C   UNL     1       5.374   0.592  19.581  0.00  0.00    +0.067 C 
BRANCH  53  54
ATOM     54  C   UNL     1       5.761   1.972  20.056  0.00  0.00    -0.045 A 
ATOM     55  C   UNL     1       7.006   2.534  19.718  0.00  0.00    +0.007 A 
ATOM     56  C   UNL     1       7.279   3.872  20.009  0.00  0.00    +0.045 A 
ATOM     57  C   UNL     1       6.317   4.637  20.652  0.00  0.00    +0.117 A 
ATOM     58  C   UNL     1       5.153   4.054  21.138  0.00  0.00    +0.045 A 
ATOM     59  C   UNL     1       4.887   2.713  20.858  0.00  0.00    +0.007 A 
BRANCH  57  60
ATOM     60  O   UNL     1       6.526   5.980  20.761  0.00  0.00    -0.507 OA
ATOM     61  H   UNL     1       5.661   6.394  20.926  0.00  0.00    +0.292 HD
ENDBRANCH  57  60
ENDBRANCH  53  54
ENDBRANCH   5  53
ENDBRANCH   3   5
BRANCH   1  62
ATOM     62  C   UNL     1       0.295   0.384  19.772  0.00  0.00    +0.163 C 
BRANCH  62  65
ATOM     63  N   UNL     1      -1.952   1.349  19.215  0.00  0.00    -0.302 N 
ATOM     64  H   UNL     1      -2.277   0.413  18.988  0.00  0.00    +0.150 HD
ATOM     65  C   UNL     1      -0.634   1.588  19.524  0.00  0.00    +0.234 C 
ATOM     66  O   UNL     1      -0.201   2.735  19.627  0.00  0.00    -0.274 OA
BRANCH  63  67
ATOM     67  C   UNL     1      -2.896   2.426  18.996  0.00  0.00    +0.159 C 
BRANCH  67  68
ATOM     68  C   UNL     1      -4.365   1.981  19.381  0.00  0.00    +0.234 C 
ATOM     69  N   UNL     1      -5.232   3.035  19.573  0.00  0.00    -0.302 N 
ATOM     70  H   UNL     1      -4.743   3.821  19.962  0.00  0.00    +0.150 HD
ATOM     71  O   UNL     1      -4.691   0.816  19.590  0.00  0.00    -0.274 OA
BRANCH  69  72
ATOM     72  C   UNL     1      -6.680   3.023  19.871  0.00  0.00    +0.159 C 
BRANCH  72  73
ATOM     73  C   UNL     1      -7.486   4.329  19.451  0.00  0.00    +0.237 C 
ATOM     74  N   UNL     1      -6.808   5.481  19.058  0.00  0.00    -0.288 N 
ATOM     75  C   UNL     1      -5.500   5.531  18.403  0.00  0.00    +0.162 C 
ATOM     76  C   UNL     1      -5.604   6.598  17.329  0.00  0.00    +0.033 C 
ATOM     77  C   UNL     1      -7.015   7.162  17.443  0.00  0.00    +0.021 C 
ATOM     78  C   UNL     1      -7.504   6.739  18.813  0.00  0.00    +0.109 C 
ATOM     79  O   UNL     1      -8.718   4.350  19.615  0.00  0.00    -0.274 OA
BRANCH  75  80
ATOM     80  C   UNL     1      -4.366   5.913  19.381  0.00  0.00    +0.234 C 
ATOM     81  N   UNL     1      -4.727   6.655  20.473  0.00  0.00    -0.305 N 
ATOM     82  H   UNL     1      -5.699   6.644  20.736  0.00  0.00    +0.149 HD
ATOM     83  O   UNL     1      -3.194   5.625  19.174  0.00  0.00    -0.274 OA
BRANCH  81  84
ATOM     84  C   UNL     1      -3.715   7.075  21.422  0.00  0.00    +0.199 C 
BRANCH  84  85
ATOM     85  C   UNL     1      -4.257   7.595  22.738  0.00  0.00    +0.228 C 
ATOM     86  O   UNL     1      -3.541   7.673  23.735  0.00  0.00    -0.274 OA
ATOM     87  N   UNL     1      -5.551   8.035  22.774  0.00  0.00    -0.328 N 
ATOM     88  H   UNL     1      -5.888   8.155  23.732  0.00  0.00    +0.145 HD
ATOM     89  H   UNL     1      -6.262   7.717  22.138  0.00  0.00    +0.145 HD
ENDBRANCH  84  85
ENDBRANCH  81  84
ENDBRANCH  75  80
ENDBRANCH  72  73
BRANCH  72  90
ATOM     90  C   UNL     1      -6.924   2.815  21.388  0.00  0.00    +0.035 C 
BRANCH  90  91
ATOM     91  C   UNL     1      -6.335   3.975  22.205  0.00  0.00    +0.039 C 
BRANCH  91  92
ATOM     92  C   UNL     1      -6.399   3.774  23.711  0.00  0.00    +0.196 C 
BRANCH  92  93
ATOM     93  N   UNL     1      -5.724   4.882  24.368  0.00  0.00    -0.276 N 
ATOM     94  H   UNL     1      -4.725   4.938  24.196  0.00  0.00    +0.258 HD
ATOM     95  C   UNL     1      -6.284   5.956  24.958  0.00  0.00    +0.376 C 
ATOM     96  N   UNL     1      -5.654   6.987  25.392  0.00  0.00    -0.130 NA
ATOM     97  H   UNL     1      -4.641   6.895  25.215  0.00  0.00    +0.306 HD
ATOM     98  N   UNL     1      -7.620   5.991  25.057  0.00  0.00    -0.289 N 
ATOM     99  H   UNL     1      -7.866   6.815  25.602  0.00  0.00    +0.255 HD
ATOM    100  H   UNL     1      -7.993   5.171  25.511  0.00  0.00    +0.255 HD
ENDBRANCH  92  93
ENDBRANCH  91  92
ENDBRANCH  90  91
ENDBRANCH  72  90
ENDBRANCH  69  72
ENDBRANCH  67  68
BRANCH  67 101
ATOM    101  C   UNL     1      -2.642   3.138  17.642  0.00  0.00    +0.034 C 
BRANCH 101 103
ATOM    102  C   UNL     1      -2.466   3.510  15.185  0.00  0.00    +0.007 C 
ATOM    103  C   UNL     1      -2.804   2.461  16.265  0.00  0.00    -0.015 C 
ATOM    104  C   UNL     1      -1.929   1.245  15.998  0.00  0.00    +0.007 C 
ENDBRANCH 101 103
ENDBRANCH  67 101
ENDBRANCH  63  67
ENDBRANCH  62  65
BRANCH  62 105
ATOM    105  C   UNL     1      -0.406  -1.017  19.807  0.00  0.00    +0.069 C 
BRANCH 105 106
ATOM    106  C   UNL     1      -0.897  -1.606  18.498  0.00  0.00    -0.020 A 
ATOM    107  C   UNL     1      -2.228  -2.000  18.042  0.00  0.00    +0.003 A 
ATOM    108  C   UNL     1      -2.103  -2.353  16.692  0.00  0.00    +0.047 A 
ATOM    109  C   UNL     1      -3.185  -2.665  15.855  0.00  0.00    +0.026 A 
ATOM    110  C   UNL     1      -4.453  -2.728  16.422  0.00  0.00    +0.002 A 
ATOM    111  C   UNL     1      -4.624  -2.472  17.778  0.00  0.00    +0.001 A 
ATOM    112  N   UNL     1      -0.764  -2.344  16.396  0.00  0.00    -0.360 N 
ATOM    113  H   UNL     1      -0.381  -2.618  15.503  0.00  0.00    +0.165 HD
ATOM    114  C   UNL     1      -3.534  -2.082  18.591  0.00  0.00    +0.010 A 
ATOM    115  C   UNL     1      -0.036  -1.984  17.488  0.00  0.00    +0.087 A 
ENDBRANCH 105 106
ENDBRANCH  62 105
ENDBRANCH   1  62
TORSDOF 35
