REMARK  Name = 
REMARK  9 active torsions:
REMARK  status: ('A' for Active; 'I' for Inactive)
REMARK    1  A    between atoms: C_1  and  C_2
REMARK    2  A    between atoms: C_4  and  C_28
REMARK    3  A    between atoms: C_6  and  C_7
REMARK    4  A    between atoms: C_8  and  O_9
REMARK    5  A    between atoms: O_9  and  C_10
REMARK    6  A    between atoms: CA_13  and  C_14
REMARK    7  A    between atoms: C_14  and  O_15
REMARK    8  A    between atoms: N_18  and  C_19
REMARK    9  A    between atoms: C_22  and  C_25
REMARK                            x       y       z     vdW  Elec       q    Type
REMARK                         _______ _______ _______ _____ _____    ______ ____
ROOT
ATOM      1  C   UNL     1       0.952  -2.448   0.029  0.00  0.00    +0.239 A 
ATOM      2  N   UNL     1       0.156  -1.401  -0.224  0.00  0.00    -0.178 NA
ATOM      3  C   UNL     1      -1.173  -1.564  -0.252  0.00  0.00    +0.223 A 
ATOM      4  N   UNL     1      -1.922  -0.389  -0.393  0.00  0.00    -0.284 N 
ATOM      5  H   UNL     1      -1.278   0.386  -0.475  0.00  0.00    +0.155 HD
ATOM      6  N   UNL     1      -1.744  -2.761  -0.108  0.00  0.00    -0.216 NA
ATOM      7  CA  UNL     1      -0.933  -3.844   0.045  0.00  0.00    +0.089 A 
ATOM      8  C   UNL     1       0.448  -3.735   0.115  0.00  0.00    +0.103 A 
ATOM      9 BR   UNL     1       1.569  -5.248   0.311  0.00  0.00    -0.043 Br
ENDROOT
BRANCH   4  10
ATOM     10  C   UNL     1      -3.212  -0.054   0.066  0.00  0.00    +0.034 A 
ATOM     11  C   UNL     1      -3.549   1.300   0.242  0.00  0.00    +0.024 A 
ATOM     12  C   UNL     1      -4.803   1.674   0.754  0.00  0.00    +0.020 A 
ATOM     13  C   UNL     1      -5.762   0.715   1.084  0.00  0.00    +0.052 A 
ATOM     14  C   UNL     1      -5.449  -0.634   0.864  0.00  0.00    +0.020 A 
ATOM     15  C   UNL     1      -4.193  -1.002   0.351  0.00  0.00    +0.024 A 
BRANCH  13  16
ATOM     16  C   UNL     1      -7.030   1.077   1.642  0.00  0.00    +0.099 C 
ATOM     17  N   UNL     1      -8.054   1.377   2.097  0.00  0.00    -0.191 NA
ENDBRANCH  13  16
ENDBRANCH   4  10
BRANCH   1  18
ATOM     18  O   UNL     1       2.334  -2.285   0.115  0.00  0.00    -0.436 OA
BRANCH  18  21
ATOM     19  C   UNL     1       1.498   0.816  -0.084  0.00  0.00    +0.047 C 
ATOM     20  C   UNL     1       2.766   0.192   0.412  0.00  0.00    -0.007 A 
ATOM     21  C   UNL     1       3.025  -1.183   0.603  0.00  0.00    +0.136 A 
ATOM     22  C   UNL     1       4.254  -1.538   1.243  0.00  0.00    -0.007 A 
ATOM     23  C   UNL     1       4.588  -2.963   1.614  0.00  0.00    +0.047 C 
ATOM     24  C   UNL     1       5.214  -0.556   1.575  0.00  0.00    +0.025 A 
ATOM     25  C   UNL     1       4.978   0.783   1.302  0.00  0.00    +0.052 A 
ATOM     26  C   UNL     1       3.760   1.144   0.744  0.00  0.00    +0.025 A 
BRANCH  25  27
ATOM     27  C   UNL     1       5.948   1.793   1.607  0.00  0.00    +0.099 C 
ATOM     28  N   UNL     1       6.714   2.632   1.845  0.00  0.00    -0.191 NA
ENDBRANCH  25  27
ENDBRANCH  18  21
ENDBRANCH   1  18
BRANCH   7  29
ATOM     29  C   UNL     1      -1.657  -5.170   0.135  0.00  0.00    +0.212 C 
BRANCH  29  30
ATOM     30  O   UNL     1      -3.074  -4.989   0.214  0.00  0.00    -0.389 OA
ATOM     31  H   UNL     1      -3.207  -4.021   0.225  0.00  0.00    +0.210 HD
ENDBRANCH  29  30
ENDBRANCH   7  29
TORSDOF 7
