REMARK  Name = 
REMARK  5 active torsions:
REMARK  status: ('A' for Active; 'I' for Inactive)
REMARK    1  A    between atoms: O_1  and  C_2
REMARK    2  A    between atoms: C_4  and  O_5
REMARK    3  A    between atoms: C_7  and  O_8
REMARK    4  A    between atoms: C_10  and  O_11
REMARK    5  A    between atoms: C_12  and  O_13
REMARK                            x       y       z     vdW  Elec       q    Type
REMARK                         _______ _______ _______ _____ _____    ______ ____
ROOT
ATOM      1  C   UNL     1       2.304  -0.031  -0.033  0.00  0.00    +0.121 A 
ATOM      2  C   UNL     1       2.999   1.173  -0.032  0.00  0.00    +0.058 A 
ATOM      3  C   UNL     1       4.408   1.199  -0.030  0.00  0.00    +0.038 A 
ATOM      4  C   UNL     1       5.126  -0.022  -0.029  0.00  0.00    +0.069 A 
ATOM      5  C   UNL     1       6.547   0.045  -0.027  0.00  0.00    +0.132 A 
ATOM      6  C   UNL     1       7.244   1.252  -0.026  0.00  0.00    +0.095 A 
ATOM      7  C   UNL     1       6.523   2.431  -0.027  0.00  0.00    +0.162 A 
ATOM      8  C   UNL     1       4.377  -1.229  -0.029  0.00  0.00    +0.132 A 
ATOM      9  C   UNL     1       5.128   2.409  -0.029  0.00  0.00    +0.167 A 
ATOM     10  C   UNL     1       2.981  -1.241  -0.031  0.00  0.00    +0.091 A 
ENDROOT
BRANCH   1  11
ATOM     11  O   UNL     1       0.942   0.023  -0.035  0.00  0.00    -0.507 OA
ATOM     12  H   UNL     1       0.583  -0.878  -0.037  0.00  0.00    +0.292 HD
ENDBRANCH   1  11
BRANCH   7  13
ATOM     13  O   UNL     1       7.139   3.654  -0.026  0.00  0.00    -0.503 OA
ATOM     14  H   UNL     1       8.101   3.504  -0.026  0.00  0.00    +0.292 HD
ENDBRANCH   7  13
BRANCH   5  15
ATOM     15  O   UNL     1       7.326  -1.087  -0.027  0.00  0.00    -0.506 OA
ATOM     16  H   UNL     1       6.705  -1.845  -0.028  0.00  0.00    +0.292 HD
ENDBRANCH   5  15
BRANCH   8  17
ATOM     17  O   UNL     1       5.057  -2.427  -0.027  0.00  0.00    -0.506 OA
ATOM     18  H   UNL     1       4.407  -3.152  -0.022  0.00  0.00    +0.292 HD
ENDBRANCH   8  17
BRANCH   9  19
ATOM     19  O   UNL     1       4.466   3.613  -0.029  0.00  0.00    -0.503 OA
ATOM     20  H   UNL     1       5.178   4.284  -0.028  0.00  0.00    +0.292 HD
ENDBRANCH   9  19
TORSDOF 5
