REMARK  Name = 
REMARK  10 active torsions:
REMARK  status: ('A' for Active; 'I' for Inactive)
REMARK    1  A    between atoms: C_2  and  N_3
REMARK    2  A    between atoms: C_2  and  C_4
REMARK    3  A    between atoms: C_2  and  C_8
REMARK    4  A    between atoms: C_4  and  C_5
REMARK    5  A    between atoms: C_5  and  C_6
REMARK    6  A    between atoms: C_5  and  C_7
REMARK    7  A    between atoms: C_14  and  C_16
REMARK    8  A    between atoms: N_18  and  C_19
REMARK    9  A    between atoms: C_19  and  C_20
REMARK   10  A    between atoms: C_23  and  C_26
REMARK                            x       y       z     vdW  Elec       q    Type
REMARK                         _______ _______ _______ _____ _____    ______ ____
ROOT
ATOM      1  C   UNL     1       5.255  -0.516   2.380  0.00  0.00    +0.234 C 
ATOM      2  N   UNL     1       4.331  -0.110   3.319  0.00  0.00    -0.310 N 
ATOM      3  H   UNL     1       3.863   0.775   3.164  0.00  0.00    +0.149 HD
ATOM      4  O   UNL     1       6.049  -1.434   2.576  0.00  0.00    -0.274 OA
ENDROOT
BRANCH   1   7
ATOM      5  C   UNL     1       2.843   1.222   0.837  0.00  0.00    +0.233 C 
ATOM      6  N   UNL     1       4.209   1.319   1.022  0.00  0.00    -0.289 N 
ATOM      7  C   UNL     1       5.201   0.240   1.027  0.00  0.00    +0.162 C 
ATOM      8  C   UNL     1       6.540   0.945   0.763  0.00  0.00    +0.033 C 
ATOM      9  C   UNL     1       6.191   2.411   0.514  0.00  0.00    +0.021 C 
ATOM     10  C   UNL     1       4.857   2.600   1.209  0.00  0.00    +0.108 C 
ATOM     11  O   UNL     1       2.123   2.212   0.995  0.00  0.00    -0.274 OA
BRANCH   5  12
ATOM     12  C   UNL     1       2.264  -0.162   0.430  0.00  0.00    +0.138 C 
BRANCH  12  13
ATOM     13  N   UNL     1       2.356  -0.309  -1.034  0.00  0.00    -0.320 NA
ATOM     14  H   UNL     1       3.323  -0.237  -1.339  0.00  0.00    +0.119 HD
ATOM     15  H   UNL     1       2.023  -1.229  -1.315  0.00  0.00    +0.119 HD
ENDBRANCH  12  13
BRANCH  12  16
ATOM     16  C   UNL     1       0.804  -0.264   0.908  0.00  0.00    +0.031 C 
BRANCH  16  17
ATOM     17  C   UNL     1       0.088  -1.602   0.636  0.00  0.00    -0.015 C 
ATOM     18  C   UNL     1      -1.344  -1.529   1.178  0.00  0.00    +0.007 C 
ATOM     19  C   UNL     1       0.812  -2.796   1.258  0.00  0.00    +0.007 C 
ENDBRANCH  16  17
ENDBRANCH  12  16
ENDBRANCH   5  12
ENDBRANCH   1   7
BRANCH   2  20
ATOM     20  C   UNL     1       4.234  -0.705   4.631  0.00  0.00    +0.139 C 
BRANCH  20  21
ATOM     21  C   UNL     1       5.003   0.087   5.656  0.00  0.00    -0.030 A 
ATOM     22  C   UNL     1       6.373  -0.144   5.845  0.00  0.00    +0.006 A 
ATOM     23  C   UNL     1       7.102   0.610   6.770  0.00  0.00    +0.016 A 
ATOM     24  C   UNL     1       6.468   1.613   7.511  0.00  0.00    +0.065 A 
ATOM     25  C   UNL     1       5.098   1.839   7.340  0.00  0.00    +0.016 A 
ATOM     26  C   UNL     1       4.372   1.085   6.413  0.00  0.00    +0.006 A 
BRANCH  24  27
ATOM     27  C   UNL     1       7.259   2.436   8.467  0.00  0.00    +0.308 C 
ATOM     28  N   UNL     1       6.962   3.665   8.754  0.00  0.00    -0.099 NA
ATOM     29  H   UNL     1       6.162   3.993   8.208  0.00  0.00    +0.363 HD
ATOM     30  N   UNL     1       8.355   1.919   9.090  0.00  0.00    -0.247 N 
ATOM     31  H   UNL     1       8.659   2.528   9.845  0.00  0.00    +0.288 HD
ATOM     32  H   UNL     1       8.291   0.950   9.374  0.00  0.00    +0.288 HD
ENDBRANCH  24  27
ENDBRANCH  20  21
ENDBRANCH   2  20
TORSDOF 8
