REMARK  Name = 
REMARK  4 active torsions:
REMARK  status: ('A' for Active; 'I' for Inactive)
REMARK    1  A    between atoms: C_2  and  C_4
REMARK    2  A    between atoms: C_9  and  C_11
REMARK    3  A    between atoms: C_15  and  C_16
REMARK    4  A    between atoms: C_22  and  O_23
REMARK                            x       y       z     vdW  Elec       q    Type
REMARK                         _______ _______ _______ _____ _____    ______ ____
ROOT
ATOM      1  C   UNL     1       3.262  -1.158   0.691  0.00  0.00    +0.067 A 
ATOM      2  C   UNL     1       2.848  -2.455   0.354  0.00  0.00    +0.018 A 
ATOM      3  C   UNL     1       3.476  -3.580   0.894  0.00  0.00    +0.028 A 
ATOM      4  C   UNL     1       4.509  -3.335   1.797  0.00  0.00    +0.067 A 
ATOM      5  N   UNL     1       5.304  -4.174   2.522  0.00  0.00    -0.338 N 
ATOM      6  H   UNL     1       5.277  -5.187   2.525  0.00  0.00    +0.167 HD
ATOM      7  C   UNL     1       6.132  -3.436   3.331  0.00  0.00    +0.143 A 
ATOM      8  N   UNL     1       5.947  -2.144   3.099  0.00  0.00    -0.228 NA
ATOM      9  C   UNL     1       4.936  -2.066   2.168  0.00  0.00    +0.090 A 
ATOM     10  C   UNL     1       4.315  -0.945   1.598  0.00  0.00    +0.045 A 
ENDROOT
BRANCH   1  14
ATOM     11  N   UNL     1       3.196   1.187  -0.107  0.00  0.00    -0.247 N 
ATOM     12  H   UNL     1       4.203   1.119  -0.212  0.00  0.00    +0.288 HD
ATOM     13  H   UNL     1       2.788   1.797  -0.804  0.00  0.00    +0.288 HD
ATOM     14  C   UNL     1       2.547   0.000   0.088  0.00  0.00    +0.308 C 
ATOM     15  N   UNL     1       1.313  -0.132  -0.269  0.00  0.00    -0.099 NA
ATOM     16  H   UNL     1       0.958   0.758  -0.623  0.00  0.00    +0.363 HD
ENDBRANCH   1  14
BRANCH   7  17
ATOM     17  C   UNL     1       7.065  -4.050   4.290  0.00  0.00    +0.059 A 
ATOM     18  C   UNL     1       7.175  -5.452   4.468  0.00  0.00    +0.135 A 
ATOM     19  C   UNL     1       8.124  -6.033   5.346  0.00  0.00    +0.024 A 
ATOM     20  C   UNL     1       8.892  -5.142   6.121  0.00  0.00    +0.012 A 
ATOM     21  C   UNL     1       8.760  -3.757   6.000  0.00  0.00    +0.002 A 
ATOM     22  C   UNL     1       7.870  -3.218   5.075  0.00  0.00    +0.015 A 
BRANCH  19  23
ATOM     23  C   UNL     1       8.379  -7.499   5.440  0.00  0.00    -0.014 A 
ATOM     24  C   UNL     1       8.360  -8.326   4.299  0.00  0.00    +0.008 A 
ATOM     25  C   UNL     1       8.628  -9.697   4.378  0.00  0.00    +0.001 A 
ATOM     26  C   UNL     1       8.971 -10.269   5.597  0.00  0.00    +0.000 A 
ATOM     27  C   UNL     1       9.022  -9.476   6.738  0.00  0.00    +0.001 A 
ATOM     28  C   UNL     1       8.711  -8.113   6.662  0.00  0.00    +0.008 A 
ENDBRANCH  19  23
BRANCH  18  29
ATOM     29  O   UNL     1       6.289  -6.256   3.774  0.00  0.00    -0.505 OA
ATOM     30  H   UNL     1       6.204  -7.089   4.275  0.00  0.00    +0.292 HD
ENDBRANCH  18  29
ENDBRANCH   7  17
TORSDOF 4
