REMARK  Name = 
REMARK  18 active torsions:
REMARK  status: ('A' for Active; 'I' for Inactive)
REMARK    1  A    between atoms: C_1  and  C_2
REMARK    2  A    between atoms: C_2  and  C_3
REMARK    3  A    between atoms: C_2  and  N_4
REMARK    4  A    between atoms: N_4  and  C_5
REMARK    5  A    between atoms: N_4  and  C_29
REMARK    6  A    between atoms: C_5  and  C_6
REMARK    7  A    between atoms: C_6  and  C_7
REMARK    8  A    between atoms: C_7  and  C_9
REMARK    9  A    between atoms: C_7  and  C_15
REMARK   10  A    between atoms: C_16  and  O_17
REMARK   11  A    between atoms: O_17  and  C_18
REMARK   12  A    between atoms: C_18  and  C_20
REMARK   13  A    between atoms: C_20  and  C_21
REMARK   14  A    between atoms: C_20  and  C_22
REMARK   15  A    between atoms: C_25  and  C_26
REMARK   16  A    between atoms: C_26  and  O_27
REMARK   17  A    between atoms: C_29  and  C_30
REMARK   18  A    between atoms: C_29  and  C_31
REMARK                            x       y       z     vdW  Elec       q    Type
REMARK                         _______ _______ _______ _____ _____    ______ ____
ROOT
ATOM      1  C   UNL     1       0.405   3.062   2.142  0.00  0.00    +0.054 C 
ENDROOT
BRANCH   1   2
ATOM      2  C   UNL     1      -1.149   2.974   2.093  0.00  0.00    +0.003 A 
ATOM      3  C   UNL     1      -1.944   4.140   2.168  0.00  0.00    +0.013 A 
ATOM      4  C   UNL     1      -3.343   4.143   2.028  0.00  0.00    -0.022 A 
ATOM      5  C   UNL     1      -3.996   2.922   1.886  0.00  0.00    +0.009 A 
ATOM      6  C   UNL     1      -3.262   1.739   1.858  0.00  0.00    +0.047 A 
ATOM      7  C   UNL     1      -1.859   1.754   1.966  0.00  0.00    +0.135 A 
BRANCH   4   8
ATOM      8  C   UNL     1      -4.124   5.430   1.907  0.00  0.00    +0.191 C 
BRANCH   8   9
ATOM      9  O   UNL     1      -3.457   6.544   2.486  0.00  0.00    -0.390 OA
ATOM     10  H   UNL     1      -3.099   6.249   3.340  0.00  0.00    +0.210 HD
ENDBRANCH   8   9
ENDBRANCH   4   8
BRANCH   7  11
ATOM     11  O   UNL     1      -1.164   0.515   1.874  0.00  0.00    -0.425 OA
BRANCH  11  12
ATOM     12  C   UNL     1      -1.654  -0.598   2.582  0.00  0.00    +0.315 C 
ATOM     13  O   UNL     1      -2.612  -0.588   3.348  0.00  0.00    -0.250 OA
BRANCH  12  14
ATOM     14  C   UNL     1      -0.893  -1.877   2.231  0.00  0.00    +0.092 C 
ATOM     15  C   UNL     1      -1.091  -2.915   3.343  0.00  0.00    +0.019 C 
ATOM     16  C   UNL     1       0.598  -1.648   2.011  0.00  0.00    +0.019 C 
ENDBRANCH  12  14
ENDBRANCH  11  12
ENDBRANCH   7  11
ENDBRANCH   1   2
BRANCH   1  17
ATOM     17  C   UNL     1       1.064   4.469   1.978  0.00  0.00    -0.040 A 
ATOM     18  C   UNL     1       0.560   5.471   1.132  0.00  0.00    +0.004 A 
ATOM     19  C   UNL     1       0.962   6.808   1.272  0.00  0.00    +0.000 A 
ATOM     20  C   UNL     1       1.953   7.157   2.181  0.00  0.00    +0.000 A 
ATOM     21  C   UNL     1       2.624   6.149   2.853  0.00  0.00    +0.000 A 
ATOM     22  C   UNL     1       2.216   4.822   2.693  0.00  0.00    +0.004 A 
ENDBRANCH   1  17
BRANCH   1  23
ATOM     23  C   UNL     1       0.933   2.284   3.403  0.00  0.00    +0.028 C 
BRANCH  23  24
ATOM     24  C   UNL     1       0.651   2.946   4.778  0.00  0.00    +0.086 C 
BRANCH  24  25
ATOM     25  N   UNL     1       1.081   2.166   5.976  0.00  0.00    -0.297 NA
BRANCH  25  27
ATOM     26  C   UNL     1       3.250   3.455   6.048  0.00  0.00    +0.024 C 
ATOM     27  C   UNL     1       2.569   2.067   6.099  0.00  0.00    +0.051 C 
ATOM     28  C   UNL     1       3.126   1.440   7.388  0.00  0.00    +0.024 C 
ENDBRANCH  25  27
BRANCH  25  29
ATOM     29  C   UNL     1       0.293   0.903   6.120  0.00  0.00    +0.051 C 
ATOM     30  C   UNL     1      -1.238   1.162   6.021  0.00  0.00    +0.024 C 
ATOM     31  C   UNL     1       0.463   0.131   7.440  0.00  0.00    +0.024 C 
ENDBRANCH  25  29
ENDBRANCH  24  25
ENDBRANCH  23  24
ENDBRANCH   1  23
TORSDOF 12
