REMARK  Name = 
REMARK  27 active torsions:
REMARK  status: ('A' for Active; 'I' for Inactive)
REMARK    1  A    between atoms: C_2  and  O_3
REMARK    2  A    between atoms: C_2  and  C_4
REMARK    3  A    between atoms: C_2  and  C_20
REMARK    4  A    between atoms: C_4  and  N_6
REMARK    5  A    between atoms: C_4  and  C_14
REMARK    6  A    between atoms: C_7  and  O_9
REMARK    7  A    between atoms: O_9  and  C_10
REMARK    8  A    between atoms: C_10  and  C_11
REMARK    9  A    between atoms: C_10  and  C_12
REMARK   10  A    between atoms: C_10  and  C_13
REMARK   11  A    between atoms: C_20  and  O_22
REMARK   12  A    between atoms: O_22  and  C_23
REMARK   13  A    between atoms: C_26  and  O_27
REMARK   14  A    between atoms: C_28  and  O_30
REMARK   15  A    between atoms: O_30  and  C_31
REMARK   16  A    between atoms: C_31  and  C_33
REMARK   17  A    between atoms: C_41  and  O_65
REMARK   18  A    between atoms: C_47  and  O_49
REMARK   19  A    between atoms: O_49  and  C_50
REMARK   20  A    between atoms: C_51  and  C_52
REMARK   21  A    between atoms: C_55  and  O_57
REMARK   22  A    between atoms: O_57  and  C_58
REMARK   23  A    between atoms: C_60  and  C_61
REMARK   24  A    between atoms: C_62  and  C_63
REMARK   25  A    between atoms: C_62  and  C_64
REMARK   26  A    between atoms: O_65  and  C_66
REMARK   27  A    between atoms: C_66  and  C_67
REMARK                            x       y       z     vdW  Elec       q    Type
REMARK                         _______ _______ _______ _____ _____    ______ ____
ROOT
ATOM      1  C   UNL     1      -0.000  -0.000  -0.000  0.00  0.00    +0.205 C 
ATOM      2  C   UNL     1      -0.000  -0.000  -0.000  0.00  0.00    -0.030 C 
ATOM      3  C   UNL     1      -0.000  -0.000  -0.000  0.00  0.00    +0.043 C 
ATOM      4  C   UNL     1      -0.000  -0.000  -0.000  0.00  0.00    -0.023 C 
ATOM      5  C   UNL     1      -0.000  -0.000  -0.000  0.00  0.00    +0.022 C 
ATOM      6  C   UNL     1      -0.000  -0.000  -0.000  0.00  0.00    +0.018 C 
ATOM      7  C   UNL     1      -0.000  -0.000  -0.000  0.00  0.00    +0.018 C 
ATOM      8  C   UNL     1      -0.000  -0.000  -0.000  0.00  0.00    +0.116 C 
ATOM      9  C   UNL     1      -0.000  -0.000  -0.000  0.00  0.00    +0.217 C 
ATOM     10  C   UNL     1      -0.000  -0.000  -0.000  0.00  0.00    +0.097 C 
ATOM     11  C   UNL     1      -0.000  -0.000  -0.000  0.00  0.00    +0.065 C 
ATOM     12  C   UNL     1      -0.000  -0.000  -0.000  0.00  0.00    +0.175 C 
ATOM     13  O   UNL     1      -0.000  -0.000  -0.000  0.00  0.00    -0.294 OA
ATOM     14  C   UNL     1      -0.000  -0.000  -0.000  0.00  0.00    +0.022 C 
ATOM     15  C   UNL     1      -0.000  -0.000  -0.000  0.00  0.00    +0.134 C 
ATOM     16  C   UNL     1      -0.000  -0.000  -0.000  0.00  0.00    +0.068 C 
ATOM     17  C   UNL     1      -0.000   0.000   0.000  0.00  0.00    +0.167 C 
ATOM     18  O   UNL     1      -0.000  -0.000  -0.000  0.00  0.00    -0.368 OA
ATOM     19  C   UNL     1      -0.000  -0.000  -0.000  0.00  0.00    +0.211 C 
ATOM     20  C   UNL     1      -0.000  -0.000  -0.000  0.00  0.00    +0.170 C 
ATOM     21  C   UNL     1      -0.000  -0.000   0.000  0.00  0.00    +0.211 C 
ATOM     22  C   UNL     1      -0.000  -0.000  -0.000  0.00  0.00    +0.088 C 
ENDROOT
BRANCH  21  23
ATOM     23  O   UNL     1      -0.000  -0.000  -0.000  0.00  0.00    -0.368 OA
ATOM     24  C   UNL     1      -0.000  -0.000   0.000  0.00  0.00    +0.195 C 
ENDBRANCH  21  23
BRANCH   8  25
ATOM     25  O   UNL     1      -0.000  -0.000  -0.000  0.00  0.00    -0.384 OA
ATOM     26  H   UNL     1       0.000   0.000   0.000  0.00  0.00    +0.210 HD
ENDBRANCH   8  25
BRANCH  15  27
ATOM     27  O   UNL     1      -0.000  -0.000  -0.000  0.00  0.00    -0.379 OA
ATOM     28  C   UNL     1      -0.000  -0.000  -0.000  0.00  0.00    +0.194 C 
ENDBRANCH  15  27
BRANCH  20  29
ATOM     29  O   UNL     1      -0.000  -0.000  -0.000  0.00  0.00    -0.453 OA
BRANCH  29  30
ATOM     30  C   UNL     1      -0.000  -0.000  -0.000  0.00  0.00    +0.305 C 
ATOM     31  O   UNL     1      -0.000  -0.000  -0.000  0.00  0.00    -0.251 OA
ATOM     32  C   UNL     1      -0.000  -0.000  -0.000  0.00  0.00    +0.136 C 
ENDBRANCH  29  30
ENDBRANCH  20  29
BRANCH   9  33
ATOM     33  O   UNL     1      -0.000  -0.000  -0.000  0.00  0.00    -0.454 OA
BRANCH  33  34
ATOM     34  C   UNL     1      -0.000  -0.000  -0.000  0.00  0.00    +0.340 C 
ATOM     35  O   UNL     1      -0.000  -0.000  -0.000  0.00  0.00    -0.245 OA
BRANCH  34  36
ATOM     36  C   UNL     1      -0.000  -0.000  -0.000  0.00  0.00    +0.059 A 
ATOM     37  C   UNL     1      -0.000  -0.000  -0.000  0.00  0.00    +0.015 A 
ATOM     38  C   UNL     1      -0.000  -0.000  -0.000  0.00  0.00    +0.001 A 
ATOM     39  C   UNL     1      -0.000  -0.000  -0.000  0.00  0.00    +0.000 A 
ATOM     40  C   UNL     1      -0.000  -0.000  -0.000  0.00  0.00    +0.001 A 
ATOM     41  C   UNL     1      -0.000  -0.000  -0.000  0.00  0.00    +0.015 A 
ENDBRANCH  34  36
ENDBRANCH  33  34
ENDBRANCH   9  33
BRANCH   1  42
ATOM     42  O   UNL     1      -0.000  -0.000  -0.000  0.00  0.00    -0.455 OA
BRANCH  42  43
ATOM     43  C   UNL     1      -0.000  -0.000  -0.000  0.00  0.00    +0.339 C 
ATOM     44  O   UNL     1      -0.000  -0.000  -0.000  0.00  0.00    -0.248 OA
BRANCH  43  45
ATOM     45  C   UNL     1      -0.000  -0.000  -0.000  0.00  0.00    +0.247 C 
BRANCH  45  46
ATOM     46  O   UNL     1      -0.000  -0.000  -0.000  0.00  0.00    -0.379 OA
ATOM     47  H   UNL     1      -0.000  -0.000  -0.000  0.00  0.00    +0.211 HD
ENDBRANCH  45  46
BRANCH  45  48
ATOM     48  C   UNL     1      -0.000  -0.000  -0.000  0.00  0.00    +0.146 C 
BRANCH  48  49
ATOM     49  C   UNL     1      -0.000  -0.000  -0.000  0.00  0.00    -0.024 A 
ATOM     50  C   UNL     1      -0.000  -0.000  -0.000  0.00  0.00    +0.005 A 
ATOM     51  C   UNL     1      -0.000  -0.000  -0.000  0.00  0.00    +0.000 A 
ATOM     52  C   UNL     1      -0.000  -0.000  -0.000  0.00  0.00    +0.000 A 
ATOM     53  C   UNL     1      -0.000  -0.000  -0.000  0.00  0.00    +0.000 A 
ATOM     54  C   UNL     1      -0.000  -0.000  -0.000  0.00  0.00    +0.005 A 
ENDBRANCH  48  49
BRANCH  48  55
ATOM     55  N   UNL     1      -0.000  -0.000  -0.000  0.00  0.00    -0.271 N 
ATOM     56  H   UNL     1      -0.000  -0.000  -0.000  0.00  0.00    +0.153 HD
ATOM     57  C   UNL     1      -0.000  -0.000  -0.000  0.00  0.00    +0.401 C 
ATOM     58  O   UNL     1      -0.000  -0.000  -0.000  0.00  0.00    -0.226 OA
BRANCH  57  59
ATOM     59  O   UNL     1      -0.000  -0.000  -0.000  0.00  0.00    -0.445 OA
BRANCH  59  60
ATOM     60  C   UNL     1      -0.000  -0.000  -0.000  0.00  0.00    +0.107 C 
ATOM     61  C   UNL     1      -0.000  -0.000  -0.000  0.00  0.00    +0.055 C 
ATOM     62  C   UNL     1      -0.000  -0.000  -0.000  0.00  0.00    +0.055 C 
ATOM     63  C   UNL     1      -0.000  -0.000  -0.000  0.00  0.00    +0.055 C 
ENDBRANCH  59  60
ENDBRANCH  57  59
ENDBRANCH  48  55
ENDBRANCH  45  48
ENDBRANCH  43  45
ENDBRANCH  42  43
ENDBRANCH   1  42
TORSDOF 17
