REMARK  Name = 
REMARK  7 active torsions:
REMARK  status: ('A' for Active; 'I' for Inactive)
REMARK    1  A    between atoms: C_2  and  N_3
REMARK    2  A    between atoms: C_2  and  C_4
REMARK    3  A    between atoms: C_2  and  C_11
REMARK    4  A    between atoms: C_4  and  C_5
REMARK    5  A    between atoms: C_17  and  C_19
REMARK    6  A    between atoms: N_21  and  C_22
REMARK    7  A    between atoms: C_22  and  C_23
REMARK                            x       y       z     vdW  Elec       q    Type
REMARK                         _______ _______ _______ _____ _____    ______ ____
ROOT
ATOM      1  C   UNL     1       2.773  -1.077   0.936  0.00  0.00    +0.233 C 
ATOM      2  N   UNL     1       4.104  -1.110   1.310  0.00  0.00    -0.289 N 
ATOM      3  C   UNL     1       4.818  -2.381   1.422  0.00  0.00    +0.162 C 
ATOM      4  C   UNL     1       6.260  -2.043   1.001  0.00  0.00    +0.033 C 
ATOM      5  C   UNL     1       6.270  -0.538   0.727  0.00  0.00    +0.021 C 
ATOM      6  C   UNL     1       5.043  -0.014   1.443  0.00  0.00    +0.108 C 
ATOM      7  O   UNL     1       2.111  -2.119   0.908  0.00  0.00    -0.274 OA
ENDROOT
BRANCH   3   8
ATOM      8  C   UNL     1       4.778  -2.907   2.872  0.00  0.00    +0.234 C 
ATOM      9  N   UNL     1       3.774  -3.820   3.121  0.00  0.00    -0.310 N 
ATOM     10  H   UNL     1       3.045  -3.931   2.425  0.00  0.00    +0.149 HD
ATOM     11  O   UNL     1       5.548  -2.514   3.746  0.00  0.00    -0.274 OA
BRANCH   9  12
ATOM     12  C   UNL     1       3.640  -4.478   4.398  0.00  0.00    +0.139 C 
BRANCH  12  13
ATOM     13  C   UNL     1       4.437  -5.762   4.442  0.00  0.00    -0.029 A 
ATOM     14  C   UNL     1       3.863  -6.979   4.042  0.00  0.00    +0.005 A 
ATOM     15  C   UNL     1       4.605  -8.161   4.066  0.00  0.00    +0.002 A 
ATOM     16  C   UNL     1       5.937  -8.140   4.483  0.00  0.00    +0.020 A 
ATOM     17  C   UNL     1       6.519  -6.935   4.873  0.00  0.00    +0.041 A 
ATOM     18 CL   UNL     1       8.163  -6.909   5.381  0.00  0.00    -0.084 Cl
ATOM     19  C   UNL     1       5.779  -5.752   4.851  0.00  0.00    +0.025 A 
ENDBRANCH  12  13
ENDBRANCH   9  12
ENDBRANCH   3   8
BRANCH   1  20
ATOM     20  C   UNL     1       2.185   0.291   0.486  0.00  0.00    +0.142 C 
BRANCH  20  21
ATOM     21  N   UNL     1       1.985   1.168   1.664  0.00  0.00    -0.320 NA
ATOM     22  H   UNL     1       2.882   1.401   2.080  0.00  0.00    +0.119 HD
ATOM     23  H   UNL     1       1.596   2.054   1.339  0.00  0.00    +0.119 HD
ENDBRANCH  20  21
BRANCH  20  24
ATOM     24  C   UNL     1       0.865   0.085  -0.299  0.00  0.00    +0.063 C 
BRANCH  24  25
ATOM     25  C   UNL     1       0.359   1.360  -0.948  0.00  0.00    -0.045 A 
ATOM     26  C   UNL     1      -0.468   2.236  -0.230  0.00  0.00    +0.004 A 
ATOM     27  C   UNL     1      -0.848   3.464  -0.773  0.00  0.00    +0.000 A 
ATOM     28  C   UNL     1      -0.427   3.818  -2.052  0.00  0.00    +0.000 A 
ATOM     29  C   UNL     1       0.358   2.937  -2.794  0.00  0.00    +0.000 A 
ATOM     30  C   UNL     1       0.752   1.713  -2.246  0.00  0.00    +0.004 A 
ENDBRANCH  24  25
ENDBRANCH  20  24
ENDBRANCH   1  20
TORSDOF 7
