REMARK  Name = 
REMARK  8 active torsions:
REMARK  status: ('A' for Active; 'I' for Inactive)
REMARK    1  A    between atoms: C_1  and  C_2
REMARK    2  A    between atoms: C_2  and  C_3
REMARK    3  A    between atoms: C_2  and  C_4
REMARK    4  A    between atoms: C_7  and  C_8
REMARK    5  A    between atoms: C_8  and  N_9
REMARK    6  A    between atoms: N_9  and  N_10
REMARK    7  A    between atoms: C_11  and  C_13
REMARK    8  A    between atoms: C_16  and  O_17
REMARK                            x       y       z     vdW  Elec       q    Type
REMARK                         _______ _______ _______ _____ _____    ______ ____
ROOT
ATOM      1  N   UNL     1       3.181  -4.785  -4.295  0.00  0.00    -0.236 NA
ATOM      2  H   UNL     1       2.249  -4.903  -3.873  0.00  0.00    +0.145 HD
ENDROOT
BRANCH   1   3
ATOM      3  N   UNL     1       3.204  -5.559  -5.478  0.00  0.00    -0.247 N 
ATOM      4  H   UNL     1       4.065  -6.047  -5.708  0.00  0.00    +0.169 HD
ATOM      5  C   UNL     1       2.006  -5.886  -6.100  0.00  0.00    +0.258 C 
ATOM      6  O   UNL     1       0.911  -5.501  -5.700  0.00  0.00    -0.269 OA
BRANCH   5   7
ATOM      7  C   UNL     1       2.107  -6.786  -7.280  0.00  0.00    +0.038 A 
ATOM      8  C   UNL     1       3.258  -6.840  -8.081  0.00  0.00    +0.016 A 
ATOM      9  C   UNL     1       3.315  -7.730  -9.156  0.00  0.00    +0.046 A 
ATOM     10  C   UNL     1       2.229  -8.554  -9.427  0.00  0.00    +0.117 A 
ATOM     11  C   UNL     1       1.066  -8.486  -8.664  0.00  0.00    +0.046 A 
ATOM     12  C   UNL     1       1.005  -7.595  -7.591  0.00  0.00    +0.016 A 
BRANCH  10  13
ATOM     13  O   UNL     1       2.342  -9.427 -10.468  0.00  0.00    -0.507 OA
ATOM     14  H   UNL     1       1.550  -9.989 -10.492  0.00  0.00    +0.292 HD
ENDBRANCH  10  13
ENDBRANCH   5   7
ENDBRANCH   1   3
BRANCH   1  15
ATOM     15  C   UNL     1       3.318  -3.361  -4.621  0.00  0.00    +0.137 C 
BRANCH  15  19
ATOM     16  C   UNL     1       3.469  -0.687  -1.220  0.00  0.00    -0.045 A 
ATOM     17  C   UNL     1       2.472  -0.551  -2.196  0.00  0.00    +0.004 A 
ATOM     18  C   UNL     1       2.393  -1.446  -3.265  0.00  0.00    +0.005 A 
ATOM     19  C   UNL     1       3.313  -2.493  -3.388  0.00  0.00    -0.032 A 
ATOM     20  C   UNL     1       4.278  -2.664  -2.387  0.00  0.00    +0.005 A 
ATOM     21  C   UNL     1       4.353  -1.773  -1.315  0.00  0.00    +0.004 A 
BRANCH  16  23
ATOM     22  C   UNL     1       4.601   1.464  -0.715  0.00  0.00    +0.012 C 
ATOM     23  C   UNL     1       3.700   0.362  -0.147  0.00  0.00    +0.013 C 
ATOM     24  C   UNL     1       2.420   0.968   0.435  0.00  0.00    +0.012 C 
ENDBRANCH  16  23
ENDBRANCH  15  19
ENDBRANCH   1  15
TORSDOF 6
