REMARK  Name = 
REMARK  8 active torsions:
REMARK  status: ('A' for Active; 'I' for Inactive)
REMARK    1  A    between atoms: N_1  and  CA_2
REMARK    2  A    between atoms: CA_2  and  C_4
REMARK    3  A    between atoms: CA_2  and  C_15
REMARK    4  A    between atoms: C_4  and  O_6
REMARK    5  A    between atoms: C_4  and  C_7
REMARK    6  A    between atoms: C_9  and  O_10
REMARK    7  A    between atoms: C_11  and  O_12
REMARK    8  A    between atoms: C_15  and  O_16
REMARK                            x       y       z     vdW  Elec       q    Type
REMARK                         _______ _______ _______ _____ _____    ______ ____
ROOT
ATOM      1  C   UNL     1       3.026   0.828   1.071  0.00  0.00    +0.172 C 
ENDROOT
BRANCH   1   2
ATOM      2  C   UNL     1       2.444   2.236   0.943  0.00  0.00    -0.013 A 
ATOM      3  C   UNL     1       1.050   2.438   0.985  0.00  0.00    +0.010 A 
ATOM      4  C   UNL     1       0.506   3.727   0.942  0.00  0.00    +0.049 A 
ATOM      5  C   UNL     1       1.354   4.820   0.873  0.00  0.00    +0.158 A 
ATOM      6  C   UNL     1       2.731   4.646   0.832  0.00  0.00    +0.159 A 
ATOM      7  C   UNL     1       3.279   3.367   0.860  0.00  0.00    +0.055 A 
BRANCH   5   8
ATOM      8  O   UNL     1       0.825   6.080   0.869  0.00  0.00    -0.503 OA
ATOM      9  H   UNL     1       1.604   6.672   0.865  0.00  0.00    +0.292 HD
ENDBRANCH   5   8
BRANCH   6  10
ATOM     10  O   UNL     1       3.516   5.764   0.780  0.00  0.00    -0.503 OA
ATOM     11  H   UNL     1       4.446   5.481   0.816  0.00  0.00    +0.292 HD
ENDBRANCH   6  10
ENDBRANCH   1   2
BRANCH   1  12
ATOM     12  O   UNL     1       4.460   0.891   0.991  0.00  0.00    -0.385 OA
ATOM     13  H   UNL     1       4.793   0.113   1.479  0.00  0.00    +0.210 HD
ENDBRANCH   1  12
BRANCH   1  14
ATOM     14  CA  UNL     1       2.523  -0.157  -0.015  0.00  0.00    +0.194 C 
BRANCH  14  15
ATOM     15  N   UNL     1       3.019   0.175  -1.395  0.00  0.00    -0.316 NA
ATOM     16  H1  UNL     1       2.582   1.067  -1.657  0.00  0.00    +0.119 HD
ATOM     17  H2  UNL     1       4.007   0.447  -1.276  0.00  0.00    +0.119 HD
ENDBRANCH  14  15
BRANCH  14  18
ATOM     18  C   UNL     1       3.025  -1.565   0.331  0.00  0.00    +0.325 C 
ATOM     19  OXT UNL     1       3.156  -2.012   1.460  0.00  0.00    -0.249 OA
BRANCH  18  20
ATOM     20  O   UNL     1       3.325  -2.271  -0.790  0.00  0.00    -0.479 OA
ATOM     21  H   UNL     1       3.198  -1.644  -1.548  0.00  0.00    +0.295 HD
ENDBRANCH  18  20
ENDBRANCH  14  18
ENDBRANCH   1  14
TORSDOF 8
