REMARK  Name = 
REMARK  8 active torsions:
REMARK  status: ('A' for Active; 'I' for Inactive)
REMARK    1  A    between atoms: C_2  and  O_3
REMARK    2  A    between atoms: C_7  and  C_8
REMARK    3  A    between atoms: C_8  and  C_10
REMARK    4  A    between atoms: C_10  and  C_11
REMARK    5  A    between atoms: C_11  and  C_12
REMARK    6  A    between atoms: C_12  and  O_13
REMARK    7  A    between atoms: C_15  and  C_17
REMARK    8  A    between atoms: C_17  and  O_18
REMARK                            x       y       z     vdW  Elec       q    Type
REMARK                         _______ _______ _______ _____ _____    ______ ____
ROOT
ATOM      1  C   UNL     1       2.039   0.012   0.170  0.00  0.00    +0.156 C 
ATOM      2  C   UNL     1       2.211   1.378  -0.537  0.00  0.00    +0.163 C 
ATOM      3  C   UNL     1       3.217   1.393  -1.665  0.00  0.00    +0.012 C 
ATOM      4  C   UNL     1       3.690   0.251  -2.205  0.00  0.00    +0.008 C 
ATOM      5  C   UNL     1       3.263  -1.041  -1.734  0.00  0.00    -0.001 C 
ATOM      6  C   UNL     1       2.518  -1.168  -0.627  0.00  0.00    +0.005 C 
ENDROOT
BRANCH   2   7
ATOM      7  C   UNL     1       0.842   1.853  -0.997  0.00  0.00    +0.315 C 
ATOM      8  O   UNL     1       0.102   2.514  -0.279  0.00  0.00    -0.250 OA
BRANCH   7   9
ATOM      9  O   UNL     1       0.463   1.485  -2.240  0.00  0.00    -0.480 OA
ATOM     10  H   UNL     1       1.088   0.926  -2.741  0.00  0.00    +0.295 HD
ENDBRANCH   7   9
ENDBRANCH   2   7
BRANCH   3  11
ATOM     11  C   UNL     1       3.725   2.684  -2.222  0.00  0.00    +0.161 C 
ATOM     12  O   UNL     1       4.329   2.714  -3.298  0.00  0.00    -0.292 OA
BRANCH  11  13
ATOM     13  C   UNL     1       3.619   3.969  -1.434  0.00  0.00    +0.090 C 
BRANCH  13  14
ATOM     14  C   UNL     1       4.789   4.108  -0.475  0.00  0.00    +0.128 C 
BRANCH  14  15
ATOM     15  C   UNL     1       6.171   4.335  -1.052  0.00  0.00    +0.305 C 
ATOM     16  O   UNL     1       7.124   4.582  -0.321  0.00  0.00    -0.251 OA
BRANCH  15  17
ATOM     17  O   UNL     1       6.331   4.244  -2.382  0.00  0.00    -0.481 OA
ATOM     18  H   UNL     1       5.593   3.906  -2.936  0.00  0.00    +0.295 HD
ENDBRANCH  15  17
ENDBRANCH  14  15
ENDBRANCH  13  14
ENDBRANCH  11  13
ENDBRANCH   3  11
BRANCH   1  19
ATOM     19  O   UNL     1       2.795   0.033   1.381  0.00  0.00    -0.387 OA
ATOM     20  H   UNL     1       2.641  -0.806   1.847  0.00  0.00    +0.210 HD
ENDBRANCH   1  19
TORSDOF 8
