REMARK  Name = 
REMARK  7 active torsions:
REMARK  status: ('A' for Active; 'I' for Inactive)
REMARK    1  A    between atoms: O_1  and  C_2
REMARK    2  A    between atoms: C_2  and  C_3
REMARK    3  A    between atoms: C_3  and  O_4
REMARK    4  A    between atoms: O_4  and  C_5
REMARK    5  A    between atoms: C_5  and  N_6
REMARK    6  A    between atoms: C_8  and  S_9
REMARK    7  A    between atoms: S_9  and  C_10
REMARK                            x       y       z     vdW  Elec       q    Type
REMARK                         _______ _______ _______ _____ _____    ______ ____
ROOT
ATOM      1  N   UNL     1       6.386  -1.669  -2.110  0.00  0.00    -0.276 N 
ATOM      2  C   UNL     1       7.076  -2.838  -2.373  0.00  0.00    +0.331 A 
ATOM      3  O   UNL     1       6.557  -3.946  -2.486  0.00  0.00    -0.246 OA
ATOM      4  N   UNL     1       8.431  -2.695  -2.530  0.00  0.00    -0.274 N 
ATOM      5  H   UNL     1       8.941  -3.530  -2.772  0.00  0.00    +0.173 HD
ATOM      6  C   UNL     1       9.096  -1.507  -2.689  0.00  0.00    +0.268 A 
ATOM      7  O   UNL     1      10.261  -1.491  -3.075  0.00  0.00    -0.267 OA
ATOM      8  C   UNL     1       8.307  -0.279  -2.374  0.00  0.00    +0.093 A 
ATOM      9  C   UNL     1       7.020  -0.441  -2.049  0.00  0.00    +0.113 A 
ENDROOT
BRANCH   1  10
ATOM     10  C   UNL     1       4.933  -1.703  -2.086  0.00  0.00    +0.289 C 
BRANCH  10  11
ATOM     11  O   UNL     1       4.493  -0.949  -3.213  0.00  0.00    -0.357 OA
BRANCH  11  12
ATOM     12  C   UNL     1       3.077  -0.958  -3.345  0.00  0.00    +0.190 C 
BRANCH  12  13
ATOM     13  C   UNL     1       2.703  -0.157  -4.586  0.00  0.00    +0.184 C 
BRANCH  13  14
ATOM     14  O   UNL     1       1.291  -0.105  -4.728  0.00  0.00    -0.393 OA
ATOM     15  H   UNL     1       1.108   0.408  -5.535  0.00  0.00    +0.209 HD
ENDBRANCH  13  14
ENDBRANCH  12  13
ENDBRANCH  11  12
ENDBRANCH  10  11
ENDBRANCH   1  10
BRANCH   8  16
ATOM     16  S   UNL     1       9.126   1.234  -2.381  0.00  0.00    -0.083 S 
BRANCH  16  17
ATOM     17  C   UNL     1       8.285   2.257  -3.587  0.00  0.00    +0.013 A 
ATOM     18  C   UNL     1       8.851   3.524  -3.806  0.00  0.00    +0.015 A 
ATOM     19  C   UNL     1       8.252   4.451  -4.665  0.00  0.00    +0.001 A 
ATOM     20  C   UNL     1       7.070   4.126  -5.321  0.00  0.00    +0.000 A 
ATOM     21  C   UNL     1       6.509   2.865  -5.141  0.00  0.00    +0.001 A 
ATOM     22  C   UNL     1       7.119   1.932  -4.292  0.00  0.00    +0.015 A 
ENDBRANCH  16  17
ENDBRANCH   8  16
TORSDOF 7
