REMARK  Name = 
REMARK  3 active torsions:
REMARK  status: ('A' for Active; 'I' for Inactive)
REMARK    1  A    between atoms: O_1  and  C_2
REMARK    2  A    between atoms: C_2  and  C_4
REMARK    3  A    between atoms: C_4  and  O_5
REMARK                            x       y       z     vdW  Elec       q    Type
REMARK                         _______ _______ _______ _____ _____    ______ ____
ROOT
ATOM      1  C   UNL     1       3.281  -0.625   1.272  0.00  0.00    +0.330 C 
ATOM      2  C   UNL     1       2.530  -0.245   2.515  0.00  0.00    +0.063 C 
ATOM      3  C   UNL     1       1.986  -1.152   3.332  0.00  0.00    +0.014 C 
ATOM      4  C   UNL     1       2.148  -2.554   2.976  0.00  0.00    +0.017 A 
ATOM      5  C   UNL     1       2.747  -2.899   1.760  0.00  0.00    +0.132 A 
ATOM      6  C   UNL     1       2.890  -4.240   1.401  0.00  0.00    +0.046 A 
ATOM      7  C   UNL     1       2.448  -5.244   2.261  0.00  0.00    +0.004 A 
ATOM      8  C   UNL     1       1.855  -4.908   3.477  0.00  0.00    +0.001 A 
ATOM      9  C   UNL     1       1.701  -3.565   3.833  0.00  0.00    +0.011 A 
ATOM     10  O   UNL     1       3.194  -1.982   0.848  0.00  0.00    -0.447 OA
ENDROOT
BRANCH   1  11
ATOM     11  C   UNL     1       4.788  -0.228   1.425  0.00  0.00    +0.382 C 
ATOM     12  O   UNL     1       5.595  -0.720   2.203  0.00  0.00    -0.243 OA
BRANCH  11  13
ATOM     13  O   UNL     1       5.125   0.788   0.573  0.00  0.00    -0.476 OA
ATOM     14  H   UNL     1       4.322   0.996   0.037  0.00  0.00    +0.295 HD
ENDBRANCH  11  13
ENDBRANCH   1  11
BRANCH   1  15
ATOM     15  O   UNL     1       2.746   0.183   0.209  0.00  0.00    -0.344 OA
ATOM     16  H   UNL     1       1.909  -0.273   0.000  0.00  0.00    +0.215 HD
ENDBRANCH   1  15
TORSDOF 3
