REMARK  Name = 
REMARK  10 active torsions:
REMARK  status: ('A' for Active; 'I' for Inactive)
REMARK    1  A    between atoms: C_1  and  O_2
REMARK    2  A    between atoms: O_2  and  C_3
REMARK    3  A    between atoms: C_7  and  C_8
REMARK    4  A    between atoms: C_8  and  N_9
REMARK    5  A    between atoms: N_9  and  C_10
REMARK    6  A    between atoms: C_11  and  C_24
REMARK    7  A    between atoms: C_20  and  C_22
REMARK    8  A    between atoms: C_22  and  O_23
REMARK    9  A    between atoms: N_26  and  C_27
REMARK   10  A    between atoms: C_27  and  C_28
REMARK                            x       y       z     vdW  Elec       q    Type
REMARK                         _______ _______ _______ _____ _____    ______ ____
ROOT
ATOM      1  C   UNL     1       7.258  -5.916  -0.981  0.00  0.00    +0.136 A 
ATOM      2  N   UNL     1       6.759  -7.174  -0.904  0.00  0.00    -0.199 NA
ATOM      3  C   UNL     1       7.591  -8.228  -1.041  0.00  0.00    +0.220 A 
ATOM      4  N   UNL     1       7.081  -9.485  -0.867  0.00  0.00    -0.294 N 
ATOM      5  C   UNL     1       5.651  -9.790  -0.912  0.00  0.00    +0.102 C 
ATOM      6  C   UNL     1       5.591 -11.269  -1.340  0.00  0.00    +0.026 C 
ATOM      7  C   UNL     1       7.022 -11.688  -1.651  0.00  0.00    +0.021 C 
ATOM      8  C   UNL     1       7.904 -10.676  -0.932  0.00  0.00    +0.108 C 
ATOM      9  N   UNL     1       8.900  -8.078  -1.262  0.00  0.00    -0.222 NA
ATOM     10  C   UNL     1       9.377  -6.817  -1.356  0.00  0.00    +0.131 A 
ATOM     11  C   UNL     1       8.608  -5.683  -1.206  0.00  0.00    +0.094 A 
ENDROOT
BRANCH  11  12
ATOM     12  C   UNL     1       9.268  -4.356  -1.332  0.00  0.00    +0.249 C 
ATOM     13  N   UNL     1       8.494  -3.232  -1.186  0.00  0.00    -0.304 N 
ATOM     14  H   UNL     1       7.487  -3.328  -1.060  0.00  0.00    +0.149 HD
ATOM     15  O   UNL     1      10.472  -4.300  -1.565  0.00  0.00    -0.270 OA
BRANCH  13  16
ATOM     16  C   UNL     1       9.023  -1.882  -1.302  0.00  0.00    +0.180 C 
BRANCH  16  17
ATOM     17  C   UNL     1       8.290  -0.846  -0.466  0.00  0.00    +0.146 A 
ATOM     18  N   UNL     1       8.757   0.421  -0.517  0.00  0.00    -0.239 NA
ATOM     19  C   UNL     1       8.117   1.334   0.240  0.00  0.00    +0.114 A 
ATOM     20  C   UNL     1       7.034   1.038   1.031  0.00  0.00    +0.039 A 
ATOM     21  C   UNL     1       6.624  -0.273   1.007  0.00  0.00    +0.114 A 
ATOM     22  N   UNL     1       7.223  -1.231   0.270  0.00  0.00    -0.239 NA
ENDBRANCH  16  17
ENDBRANCH  13  16
ENDBRANCH  11  12
BRANCH   1  23
ATOM     23  N   UNL     1       6.398  -4.836  -0.699  0.00  0.00    -0.324 N 
ATOM     24  H   UNL     1       6.538  -4.583   0.282  0.00  0.00    +0.148 HD
BRANCH  23  25
ATOM     25  C   UNL     1       4.984  -5.039  -0.980  0.00  0.00    +0.138 C 
BRANCH  25  29
ATOM     26  C   UNL     1       2.910  -1.425   0.266  0.00  0.00    +0.138 A 
ATOM     27  C   UNL     1       3.482  -1.510  -1.006  0.00  0.00    +0.047 A 
ATOM     28  C   UNL     1       4.153  -2.675  -1.412  0.00  0.00    +0.009 A 
ATOM     29  C   UNL     1       4.245  -3.785  -0.561  0.00  0.00    -0.029 A 
ATOM     30  C   UNL     1       3.696  -3.689   0.724  0.00  0.00    +0.028 A 
ATOM     31  C   UNL     1       3.045  -2.521   1.133  0.00  0.00    +0.083 A 
ATOM     32 CL   UNL     1       2.430  -2.466   2.749  0.00  0.00    -0.080 Cl
BRANCH  26  34
ATOM     33  C   UNL     1       1.945   0.723  -0.157  0.00  0.00    +0.277 C 
ATOM     34  O   UNL     1       2.244  -0.330   0.751  0.00  0.00    -0.494 OA
ENDBRANCH  26  34
ENDBRANCH  25  29
ENDBRANCH  23  25
ENDBRANCH   1  23
BRANCH   5  35
ATOM     35  C   UNL     1       4.994  -9.623   0.475  0.00  0.00    +0.178 C 
BRANCH  35  36
ATOM     36  O   UNL     1       4.941  -8.264   0.900  0.00  0.00    -0.393 OA
ATOM     37  H   UNL     1       5.742  -7.839   0.530  0.00  0.00    +0.209 HD
ENDBRANCH  35  36
ENDBRANCH   5  35
TORSDOF 9
