REMARK  Name = 
REMARK  39 active torsions:
REMARK  status: ('A' for Active; 'I' for Inactive)
REMARK    1  A    between atoms: C_10  and  O_11
REMARK    2  A    between atoms: O_11  and  C_12
REMARK    3  A    between atoms: C_15  and  C_39
REMARK    4  A    between atoms: C_17  and  O_19
REMARK    5  A    between atoms: C_20  and  O_22
REMARK    6  A    between atoms: C_23  and  N_25
REMARK    7  A    between atoms: C_26  and  C_28
REMARK    8  A    between atoms: C_28  and  C_29
REMARK    9  A    between atoms: C_29  and  C_30
REMARK   10  A    between atoms: C_30  and  C_31
REMARK   11  A    between atoms: C_31  and  C_32
REMARK   12  A    between atoms: C_32  and  C_33
REMARK   13  A    between atoms: C_33  and  C_34
REMARK   14  A    between atoms: C_34  and  C_35
REMARK   15  A    between atoms: C_35  and  C_36
REMARK   16  A    between atoms: C_36  and  C_37
REMARK   17  A    between atoms: C_36  and  C_38
REMARK   18  A    between atoms: C_39  and  O_40
REMARK   19  A    between atoms: C_59  and  O_60
REMARK   20  A    between atoms: C_65  and  O_66
REMARK   21  A    between atoms: C_71  and  N_73
REMARK   22  A    between atoms: N_73  and  C_74
REMARK   23  A    between atoms: C_87  and  O_88
REMARK   24  A    between atoms: C_94  and  O_95
REMARK   25  A    between atoms: C_97  and  O_98
REMARK   26  A    between atoms: O_98  and  C_99
REMARK   27  A    between atoms: C_102  and  C_104
REMARK   28  A    between atoms: C_104  and  O_105
REMARK   29  A    between atoms: C_106  and  O_108
REMARK   30  A    between atoms: C_109  and  O_111
REMARK   31  A    between atoms: C_112  and  O_114
REMARK   32  A    between atoms: C_115  and  C_135
REMARK   33  A    between atoms: C_124  and  O_126
REMARK   34  A    between atoms: N_137  and  C_138
REMARK   35  A    between atoms: C_138  and  C_139
REMARK   36  A    between atoms: C_139  and  C_140
REMARK   37  A    between atoms: C_140  and  N_141
REMARK   38  A    between atoms: N_141  and  C_142
REMARK   39  A    between atoms: N_141  and  C_143
REMARK                            x       y       z     vdW  Elec       q    Type
REMARK                         _______ _______ _______ _____ _____    ______ ____
ROOT
ATOM      1  C   UNL     1      -0.000  -0.000  -0.000  0.00  0.00    +0.163 C 
ATOM      2  N   UNL     1      -0.000  -0.000  -0.000  0.00  0.00    -0.302 N 
ATOM      3  H   UNL     1       0.000   0.000   0.000  0.00  0.00    +0.150 HD
ATOM      4  C   UNL     1      -0.000  -0.000  -0.000  0.00  0.00    +0.235 C 
ATOM      5  O   UNL     1      -0.000  -0.000  -0.000  0.00  0.00    -0.274 OA
ATOM      6  C   UNL     1      -0.000  -0.000  -0.000  0.00  0.00    +0.171 C 
ATOM      7  C   UNL     1      -0.000  -0.000  -0.000  0.00  0.00    -0.018 A 
ATOM      8  C   UNL     1      -0.000  -0.000  -0.000  0.00  0.00    +0.055 A 
ATOM      9  C   UNL     1      -0.000  -0.000  -0.000  0.00  0.00    +0.170 A 
ATOM     10  C   UNL     1      -0.000  -0.000  -0.000  0.00  0.00    +0.159 A 
ATOM     11  C   UNL     1      -0.000  -0.000  -0.000  0.00  0.00    +0.049 A 
ATOM     12  O   UNL     1      -0.000  -0.000  -0.000  0.00  0.00    -0.452 OA
ATOM     13  C   UNL     1      -0.000  -0.000  -0.000  0.00  0.00    +0.132 A 
ATOM     14  C   UNL     1      -0.000  -0.000  -0.000  0.00  0.00    +0.054 A 
ATOM     15  C   UNL     1      -0.000  -0.000  -0.000  0.00  0.00    +0.007 A 
ATOM     16  C   UNL     1      -0.000  -0.000  -0.000  0.00  0.00    +0.088 A 
ATOM     17 CL   UNL     1      -0.000  -0.000  -0.000  0.00  0.00    -0.079 Cl
ATOM     18  C   UNL     1      -0.000  -0.000  -0.000  0.00  0.00    +0.139 A 
ATOM     19  C   UNL     1      -0.000  -0.000  -0.000  0.00  0.00    +0.191 C 
ATOM     20  N   UNL     1      -0.000  -0.000  -0.000  0.00  0.00    -0.299 N 
ATOM     21  H   UNL     1       0.000   0.000   0.000  0.00  0.00    +0.150 HD
ATOM     22  C   UNL     1      -0.000  -0.000  -0.000  0.00  0.00    +0.239 C 
ATOM     23  O   UNL     1      -0.000  -0.000  -0.000  0.00  0.00    -0.273 OA
ATOM     24  N   UNL     1      -0.000  -0.000  -0.000  0.00  0.00    -0.298 N 
ATOM     25  H   UNL     1       0.000   0.000   0.000  0.00  0.00    +0.150 HD
ATOM     26  C   UNL     1      -0.000  -0.000  -0.000  0.00  0.00    +0.190 C 
ATOM     27  C   UNL     1      -0.000  -0.000  -0.000  0.00  0.00    +0.239 C 
ATOM     28  O   UNL     1      -0.000  -0.000  -0.000  0.00  0.00    -0.273 OA
ATOM     29  N   UNL     1      -0.000  -0.000  -0.000  0.00  0.00    -0.299 N 
ATOM     30  H   UNL     1       0.000   0.000   0.000  0.00  0.00    +0.150 HD
ATOM     31  C   UNL     1      -0.000  -0.000  -0.000  0.00  0.00    +0.190 C 
ATOM     32  C   UNL     1      -0.000  -0.000   0.000  0.00  0.00    +0.239 C 
ATOM     33  O   UNL     1      -0.000  -0.000  -0.000  0.00  0.00    -0.273 OA
ATOM     34  N   UNL     1      -0.000  -0.000   0.000  0.00  0.00    -0.300 N 
ATOM     35  H   UNL     1       0.000   0.000   0.000  0.00  0.00    +0.150 HD
ATOM     36  C   UNL     1      -0.000  -0.000  -0.000  0.00  0.00    +0.192 C 
ATOM     37  C   UNL     1      -0.000  -0.000  -0.000  0.00  0.00    +0.174 C 
ATOM     38  C   UNL     1      -0.000  -0.000   0.000  0.00  0.00    -0.015 A 
ATOM     39  C   UNL     1      -0.000  -0.000   0.000  0.00  0.00    +0.010 A 
ATOM     40  C   UNL     1      -0.000  -0.000   0.000  0.00  0.00    +0.048 A 
ATOM     41  C   UNL     1      -0.000  -0.000  -0.000  0.00  0.00    +0.147 A 
ATOM     42  O   UNL     1      -0.000  -0.000   0.000  0.00  0.00    -0.451 OA
ATOM     43  C   UNL     1      -0.000  -0.000   0.000  0.00  0.00    +0.174 A 
ATOM     44  C   UNL     1      -0.000  -0.000   0.000  0.00  0.00    +0.056 A 
ATOM     45  C   UNL     1      -0.000  -0.000  -0.000  0.00  0.00    +0.208 A 
ATOM     46  C   UNL     1      -0.000  -0.000  -0.000  0.00  0.00    +0.174 A 
ATOM     47  C   UNL     1      -0.000  -0.000  -0.000  0.00  0.00    +0.056 A 
ATOM     48  O   UNL     1      -0.000  -0.000  -0.000  0.00  0.00    -0.452 OA
ATOM     49  C   UNL     1      -0.000  -0.000   0.000  0.00  0.00    +0.129 A 
ATOM     50  C   UNL     1      -0.000  -0.000  -0.000  0.00  0.00    +0.046 A 
ATOM     51  C   UNL     1      -0.000  -0.000  -0.000  0.00  0.00    +0.007 A 
ATOM     52  C   UNL     1      -0.000  -0.000  -0.000  0.00  0.00    -0.045 A 
ATOM     53  C   UNL     1      -0.000  -0.000  -0.000  0.00  0.00    +0.007 A 
ATOM     54  C   UNL     1      -0.000  -0.000   0.000  0.00  0.00    +0.046 A 
ATOM     55  C   UNL     1      -0.000  -0.000   0.000  0.00  0.00    +0.083 A 
ATOM     56 CL   UNL     1      -0.000  -0.000   0.000  0.00  0.00    -0.080 Cl
ATOM     57  C   UNL     1      -0.000  -0.000  -0.000  0.00  0.00    +0.030 A 
ATOM     58  C   UNL     1      -0.000  -0.000   0.000  0.00  0.00    +0.237 C 
ATOM     59  O   UNL     1      -0.000  -0.000   0.000  0.00  0.00    -0.274 OA
ATOM     60  N   UNL     1      -0.000  -0.000   0.000  0.00  0.00    -0.299 N 
ATOM     61  H   UNL     1       0.000   0.000   0.000  0.00  0.00    +0.150 HD
ATOM     62  C   UNL     1      -0.000  -0.000  -0.000  0.00  0.00    +0.190 C 
ATOM     63  C   UNL     1      -0.000  -0.000  -0.000  0.00  0.00    -0.004 A 
ATOM     64  C   UNL     1      -0.000  -0.000  -0.000  0.00  0.00    +0.052 A 
ATOM     65  C   UNL     1      -0.000  -0.000  -0.000  0.00  0.00    +0.121 A 
ATOM     66  C   UNL     1      -0.000  -0.000   0.000  0.00  0.00    +0.091 A 
ATOM     67  C   UNL     1      -0.000  -0.000  -0.000  0.00  0.00    +0.136 A 
ATOM     68  C   UNL     1      -0.000  -0.000   0.000  0.00  0.00    +0.033 A 
ATOM     69  C   UNL     1      -0.000  -0.000   0.000  0.00  0.00    +0.028 A 
ATOM     70  C   UNL     1      -0.000  -0.000   0.000  0.00  0.00    +0.125 A 
ATOM     71  C   UNL     1      -0.000  -0.000   0.000  0.00  0.00    +0.046 A 
ATOM     72  C   UNL     1      -0.000  -0.000   0.000  0.00  0.00    +0.009 A 
ATOM     73  C   UNL     1      -0.000  -0.000   0.000  0.00  0.00    +0.018 A 
ATOM     74  C   UNL     1      -0.000  -0.000  -0.000  0.00  0.00    -0.018 A 
ATOM     75  C   UNL     1      -0.000  -0.000  -0.000  0.00  0.00    -0.011 A 
ATOM     76  C   UNL     1      -0.000  -0.000  -0.000  0.00  0.00    +0.093 A 
ATOM     77  C   UNL     1      -0.000  -0.000  -0.000  0.00  0.00    +0.009 A 
ATOM     78  C   UNL     1      -0.000  -0.000  -0.000  0.00  0.00    +0.234 C 
ATOM     79  O   UNL     1      -0.000  -0.000  -0.000  0.00  0.00    -0.274 OA
ATOM     80  C   UNL     1      -0.000  -0.000  -0.000  0.00  0.00    +0.067 C 
ENDROOT
BRANCH  62  81
ATOM     81  C   UNL     1      -0.000  -0.000   0.000  0.00  0.00    +0.238 C 
ATOM     82  N   UNL     1      -0.000  -0.000  -0.000  0.00  0.00    -0.313 N 
ATOM     83  H   UNL     1      -0.000  -0.000   0.000  0.00  0.00    +0.149 HD
ATOM     84  O   UNL     1      -0.000  -0.000  -0.000  0.00  0.00    -0.273 OA
BRANCH  82  85
ATOM     85  C   UNL     1      -0.000  -0.000   0.000  0.00  0.00    +0.105 C 
BRANCH  85  86
ATOM     86  C   UNL     1      -0.000  -0.000   0.000  0.00  0.00    +0.034 C 
BRANCH  86  87
ATOM     87  C   UNL     1      -0.000  -0.000   0.000  0.00  0.00    +0.085 C 
BRANCH  87  88
ATOM     88  N   UNL     1      -0.000  -0.000   0.000  0.00  0.00    -0.308 NA
ATOM     89  C   UNL     1      -0.000  -0.000   0.000  0.00  0.00    +0.104 C 
ATOM     90  C   UNL     1      -0.000  -0.000   0.000  0.00  0.00    +0.104 C 
ENDBRANCH  87  88
ENDBRANCH  86  87
ENDBRANCH  85  86
ENDBRANCH  82  85
ENDBRANCH  62  81
BRANCH   6  91
ATOM     91  N   UNL     1      -0.000  -0.000  -0.000  0.00  0.00    -0.305 NA
ATOM     92  H   UNL     1      -0.000  -0.000  -0.000  0.00  0.00    +0.123 HD
ATOM     93  C   UNL     1      -0.000  -0.000  -0.000  0.00  0.00    +0.102 C 
ENDBRANCH   6  91
BRANCH  65  94
ATOM     94  O   UNL     1      -0.000  -0.000  -0.000  0.00  0.00    -0.507 OA
ATOM     95  H   UNL     1       0.000   0.000   0.000  0.00  0.00    +0.292 HD
ENDBRANCH  65  94
BRANCH  70  96
ATOM     96  O   UNL     1      -0.000  -0.000   0.000  0.00  0.00    -0.506 OA
ATOM     97  H   UNL     1       0.000   0.000   0.000  0.00  0.00    +0.292 HD
ENDBRANCH  70  96
BRANCH  10  98
ATOM     98  O   UNL     1      -0.000  -0.000  -0.000  0.00  0.00    -0.503 OA
ATOM     99  H   UNL     1       0.000   0.000   0.000  0.00  0.00    +0.292 HD
ENDBRANCH  10  98
BRANCH  18 100
ATOM    100  O   UNL     1      -0.000  -0.000  -0.000  0.00  0.00    -0.505 OA
ATOM    101  H   UNL     1       0.000   0.000   0.000  0.00  0.00    +0.292 HD
ENDBRANCH  18 100
BRANCH  37 102
ATOM    102  O   UNL     1      -0.000  -0.000   0.000  0.00  0.00    -0.385 OA
ATOM    103  H   UNL     1       0.000   0.000   0.000  0.00  0.00    +0.210 HD
ENDBRANCH  37 102
BRANCH  45 104
ATOM    104  O   UNL     1      -0.000  -0.000  -0.000  0.00  0.00    -0.454 OA
BRANCH 104 105
ATOM    105  C   UNL     1      -0.000  -0.000  -0.000  0.00  0.00    +0.332 C 
ATOM    106  C   UNL     1      -0.000  -0.000   0.000  0.00  0.00    +0.173 C 
ATOM    107  C   UNL     1      -0.000  -0.000  -0.000  0.00  0.00    +0.172 C 
ATOM    108  C   UNL     1      -0.000  -0.000  -0.000  0.00  0.00    +0.185 C 
ATOM    109  C   UNL     1      -0.000  -0.000  -0.000  0.00  0.00    +0.261 C 
ATOM    110  O   UNL     1      -0.000  -0.000  -0.000  0.00  0.00    -0.323 OA
BRANCH 106 111
ATOM    111  N   UNL     1      -0.000  -0.000  -0.000  0.00  0.00    -0.304 N 
ATOM    112  H   UNL     1      -0.000  -0.000   0.000  0.00  0.00    +0.149 HD
ATOM    113  C   UNL     1      -0.000  -0.000  -0.000  0.00  0.00    +0.213 C 
ATOM    114  O   UNL     1      -0.000  -0.000  -0.000  0.00  0.00    -0.276 OA
BRANCH 113 115
ATOM    115  C   UNL     1      -0.000  -0.000   0.000  0.00  0.00    +0.096 C 
BRANCH 115 116
ATOM    116  C   UNL     1      -0.000  -0.000   0.000  0.00  0.00    +0.009 C 
BRANCH 116 117
ATOM    117  C   UNL     1      -0.000  -0.000   0.000  0.00  0.00    +0.000 C 
BRANCH 117 118
ATOM    118  C   UNL     1      -0.000  -0.000   0.000  0.00  0.00    +0.000 C 
BRANCH 118 119
ATOM    119  C   UNL     1      -0.000  -0.000   0.000  0.00  0.00    +0.000 C 
BRANCH 119 120
ATOM    120  C   UNL     1      -0.000  -0.000   0.000  0.00  0.00    +0.000 C 
BRANCH 120 121
ATOM    121  C   UNL     1      -0.000  -0.000   0.000  0.00  0.00    +0.000 C 
BRANCH 121 122
ATOM    122  C   UNL     1      -0.000  -0.000   0.000  0.00  0.00    +0.003 C 
BRANCH 122 123
ATOM    123  C   UNL     1      -0.000  -0.000   0.000  0.00  0.00    -0.017 C 
ATOM    124  C   UNL     1      -0.000  -0.000   0.000  0.00  0.00    +0.007 C 
ATOM    125  C   UNL     1      -0.000  -0.000   0.000  0.00  0.00    +0.007 C 
ENDBRANCH 122 123
ENDBRANCH 121 122
ENDBRANCH 120 121
ENDBRANCH 119 120
ENDBRANCH 118 119
ENDBRANCH 117 118
ENDBRANCH 116 117
ENDBRANCH 115 116
ENDBRANCH 113 115
ENDBRANCH 106 111
BRANCH 109 126
ATOM    126  C   UNL     1      -0.000  -0.000  -0.000  0.00  0.00    +0.337 C 
ATOM    127  O   UNL     1      -0.000  -0.000  -0.000  0.00  0.00    -0.248 OA
BRANCH 126 128
ATOM    128  O   UNL     1      -0.000  -0.000  -0.000  0.00  0.00    -0.479 OA
ATOM    129  H   UNL     1      -0.000  -0.000  -0.000  0.00  0.00    +0.295 HD
ENDBRANCH 126 128
ENDBRANCH 109 126
BRANCH 108 130
ATOM    130  O   UNL     1      -0.000  -0.000  -0.000  0.00  0.00    -0.386 OA
ATOM    131  H   UNL     1      -0.000  -0.000  -0.000  0.00  0.00    +0.210 HD
ENDBRANCH 108 130
BRANCH 107 132
ATOM    132  O   UNL     1      -0.000  -0.000  -0.000  0.00  0.00    -0.387 OA
ATOM    133  H   UNL     1      -0.000  -0.000  -0.000  0.00  0.00    +0.210 HD
ENDBRANCH 107 132
ENDBRANCH 104 105
ENDBRANCH  45 104
BRANCH  67 134
ATOM    134  O   UNL     1      -0.000  -0.000   0.000  0.00  0.00    -0.460 OA
BRANCH 134 135
ATOM    135  C   UNL     1      -0.000  -0.000  -0.000  0.00  0.00    +0.339 C 
ATOM    136  C   UNL     1      -0.000  -0.000   0.000  0.00  0.00    +0.214 C 
ATOM    137  C   UNL     1      -0.000  -0.000  -0.000  0.00  0.00    +0.180 C 
ATOM    138  C   UNL     1      -0.000  -0.000  -0.000  0.00  0.00    +0.177 C 
ATOM    139  C   UNL     1      -0.000  -0.000   0.000  0.00  0.00    +0.179 C 
ATOM    140  O   UNL     1      -0.000  -0.000   0.000  0.00  0.00    -0.331 OA
BRANCH 136 141
ATOM    141  O   UNL     1      -0.000  -0.000  -0.000  0.00  0.00    -0.383 OA
ATOM    142  H   UNL     1      -0.000  -0.000   0.000  0.00  0.00    +0.210 HD
ENDBRANCH 136 141
BRANCH 137 143
ATOM    143  O   UNL     1      -0.000  -0.000  -0.000  0.00  0.00    -0.386 OA
ATOM    144  H   UNL     1      -0.000  -0.000   0.000  0.00  0.00    +0.210 HD
ENDBRANCH 137 143
BRANCH 138 145
ATOM    145  O   UNL     1      -0.000  -0.000  -0.000  0.00  0.00    -0.386 OA
ATOM    146  H   UNL     1      -0.000  -0.000   0.000  0.00  0.00    +0.210 HD
ENDBRANCH 138 145
BRANCH 139 147
ATOM    147  C   UNL     1      -0.000  -0.000  -0.000  0.00  0.00    +0.190 C 
BRANCH 147 148
ATOM    148  O   UNL     1      -0.000  -0.000   0.000  0.00  0.00    -0.392 OA
ATOM    149  H   UNL     1      -0.000  -0.000   0.000  0.00  0.00    +0.210 HD
ENDBRANCH 147 148
ENDBRANCH 139 147
ENDBRANCH 134 135
ENDBRANCH  67 134
TORSDOF 34
