REMARK  Name = 
REMARK  7 active torsions:
REMARK  status: ('A' for Active; 'I' for Inactive)
REMARK    1  A    between atoms: C_2  and  N_3
REMARK    2  A    between atoms: C_2  and  C_4
REMARK    3  A    between atoms: C_2  and  C_22
REMARK    4  A    between atoms: C_4  and  O_5
REMARK    5  A    between atoms: O_5  and  C_6
REMARK    6  A    between atoms: C_10  and  C_12
REMARK    7  A    between atoms: C_22  and  C_23
REMARK                            x       y       z     vdW  Elec       q    Type
REMARK                         _______ _______ _______ _____ _____    ______ ____
ROOT
ATOM      1  O   UNL     1       3.192  -0.489   3.537  0.00  0.00    -0.489 OA
ENDROOT
BRANCH   1   2
ATOM      2  C   UNL     1       3.517  -0.601   4.859  0.00  0.00    +0.139 A 
ATOM      3  C   UNL     1       2.679  -1.422   5.615  0.00  0.00    +0.057 A 
ATOM      4  C   UNL     1       2.887  -1.604   6.991  0.00  0.00    +0.004 A 
ATOM      5  C   UNL     1       3.985  -0.923   7.527  0.00  0.00    +0.119 A 
ATOM      6  N   UNL     1       4.836  -0.133   6.829  0.00  0.00    -0.259 NA
ATOM      7  C   UNL     1       4.577   0.012   5.513  0.00  0.00    +0.156 A 
BRANCH   4   8
ATOM      8  C   UNL     1       1.994  -2.438   7.826  0.00  0.00    -0.016 A 
ATOM      9  C   UNL     1       0.622  -2.553   7.545  0.00  0.00    +0.009 A 
ATOM     10  C   UNL     1      -0.230  -3.312   8.354  0.00  0.00    +0.010 A 
ATOM     11  C   UNL     1       0.267  -3.964   9.491  0.00  0.00    +0.000 A 
ATOM     12  C   UNL     1      -0.539  -4.706  10.359  0.00  0.00    +0.119 A 
ATOM     13  N   UNL     1      -0.093  -5.322  11.479  0.00  0.00    -0.263 NA
ATOM     14  C   UNL     1       1.222  -5.204  11.748  0.00  0.00    +0.111 A 
ATOM     15  C   UNL     1       2.115  -4.509  10.950  0.00  0.00    +0.028 A 
ATOM     16  C   UNL     1       1.635  -3.872   9.799  0.00  0.00    -0.014 A 
ATOM     17  C   UNL     1       2.481  -3.130   8.953  0.00  0.00    +0.017 A 
ENDBRANCH   4   8
ENDBRANCH   1   2
BRANCH   1  18
ATOM     18  C   UNL     1       4.047   0.354   2.757  0.00  0.00    +0.247 C 
BRANCH  18  19
ATOM     19  C   UNL     1       3.554   0.352   1.297  0.00  0.00    +0.089 C 
BRANCH  19  20
ATOM     20  N   UNL     1       2.194   0.908   1.220  0.00  0.00    -0.324 NA
ATOM     21  H   UNL     1       1.791   0.712   0.304  0.00  0.00    +0.119 HD
ATOM     22  H   UNL     1       1.606   0.415   1.898  0.00  0.00    +0.119 HD
ENDBRANCH  19  20
BRANCH  19  23
ATOM     23  C   UNL     1       4.475   1.160   0.366  0.00  0.00    +0.035 C 
BRANCH  23  24
ATOM     24  C   UNL     1       5.929   0.681   0.362  0.00  0.00    +0.064 C 
ATOM     25  C   UNL     1       6.778   1.346  -0.675  0.00  0.00    -0.014 A 
ATOM     26  C   UNL     1       7.125   2.675  -0.843  0.00  0.00    +0.006 A 
ATOM     27  C   UNL     1       7.971   2.996  -1.907  0.00  0.00    +0.000 A 
ATOM     28  C   UNL     1       8.451   1.996  -2.771  0.00  0.00    +0.002 A 
ATOM     29  C   UNL     1       8.092   0.659  -2.585  0.00  0.00    +0.028 A 
ATOM     30  C   UNL     1       7.255   0.348  -1.532  0.00  0.00    +0.067 A 
ATOM     31  N   UNL     1       6.802  -0.933  -1.179  0.00  0.00    -0.259 NA
ATOM     32  C   UNL     1       6.066  -0.762  -0.123  0.00  0.00    +0.092 C 
ENDBRANCH  23  24
ENDBRANCH  19  23
ENDBRANCH  18  19
ENDBRANCH   1  18
TORSDOF 7
