REMARK  Name = 
REMARK  12 active torsions:
REMARK  status: ('A' for Active; 'I' for Inactive)
REMARK    1  A    between atoms: C_1  and  C_2
REMARK    2  A    between atoms: C_2  and  C_3
REMARK    3  A    between atoms: C_3  and  C_4
REMARK    4  A    between atoms: C_4  and  C_5
REMARK    5  A    between atoms: C_5  and  C_6
REMARK    6  A    between atoms: C_6  and  C_7
REMARK    7  A    between atoms: C_7  and  C_8
REMARK    8  A    between atoms: C_8  and  C_9
REMARK    9  A    between atoms: C_9  and  C_10
REMARK   10  A    between atoms: C_10  and  C_11
REMARK   11  A    between atoms: C_11  and  C_12
REMARK   12  A    between atoms: C_12  and  O_13
REMARK                            x       y       z     vdW  Elec       q    Type
REMARK                         _______ _______ _______ _____ _____    ______ ____
ROOT
ATOM      1  C   UNL     1       7.025   4.213   0.745  0.00  0.00    +0.000 C 
ENDROOT
BRANCH   1   2
ATOM      2  C   UNL     1       6.495   2.797   0.520  0.00  0.00    -0.000 C 
BRANCH   2   3
ATOM      3  C   UNL     1       4.967   2.774   0.517  0.00  0.00    -0.000 C 
BRANCH   3   4
ATOM      4  C   UNL     1       4.434   1.359   0.296  0.00  0.00    -0.000 C 
BRANCH   4   5
ATOM      5  C   UNL     1       2.905   1.342   0.295  0.00  0.00    -0.000 C 
BRANCH   5   7
ATOM      6  C   UNL     1       0.845  -0.088   0.076  0.00  0.00    +0.004 C 
ATOM      7  C   UNL     1       2.365  -0.071   0.074  0.00  0.00    -0.003 C 
ENDBRANCH   5   7
ENDBRANCH   4   5
ENDBRANCH   3   4
ENDBRANCH   2   3
ENDBRANCH   1   2
BRANCH   1   8
ATOM      8  C   UNL     1       8.553   4.236   0.750  0.00  0.00    +0.000 C 
BRANCH   8   9
ATOM      9  C   UNL     1       9.085   5.651   0.974  0.00  0.00    +0.000 C 
BRANCH   9  10
ATOM     10  C   UNL     1      10.613   5.670   0.979  0.00  0.00    +0.002 C 
BRANCH  10  11
ATOM     11  C   UNL     1      11.149   7.082   1.200  0.00  0.00    +0.028 C 
BRANCH  11  12
ATOM     12  C   UNL     1      12.672   7.106   1.206  0.00  0.00    +0.156 C 
BRANCH  12  13
ATOM     13  O   UNL     1      13.132   8.433   1.422  0.00  0.00    -0.395 OA
ATOM     14  H   UNL     1      12.785   8.984   0.700  0.00  0.00    +0.209 HD
ENDBRANCH  12  13
ENDBRANCH  11  12
ENDBRANCH  10  11
ENDBRANCH   9  10
ENDBRANCH   8   9
ENDBRANCH   1   8
TORSDOF 11
