REMARK  Name = 
REMARK  8 active torsions:
REMARK  status: ('A' for Active; 'I' for Inactive)
REMARK    1  A    between atoms: C_1  and  C_2
REMARK    2  A    between atoms: C_2  and  C_3
REMARK    3  A    between atoms: C_2  and  C_4
REMARK    4  A    between atoms: C_2  and  C_5
REMARK    5  A    between atoms: N_7  and  C_20
REMARK    6  A    between atoms: C_8  and  N_9
REMARK    7  A    between atoms: N_12  and  C_13
REMARK    8  A    between atoms: C_24  and  N_25
REMARK                            x       y       z     vdW  Elec       q    Type
REMARK                         _______ _______ _______ _____ _____    ______ ____
ROOT
ATOM      1  C   UNL     1       2.921   1.104  -1.053  0.00  0.00    +0.071 A 
ATOM      2  C   UNL     1       3.490   0.902  -2.325  0.00  0.00    +0.069 A 
ATOM      3  C   UNL     1       3.796   2.149  -2.816  0.00  0.00    +0.130 A 
ATOM      4  N   UNL     1       3.265   3.065  -1.903  0.00  0.00    -0.218 N 
ATOM      5  N   UNL     1       2.820   2.412  -0.784  0.00  0.00    -0.169 NA
ENDROOT
BRANCH   3   6
ATOM      6  N   UNL     1       4.475   2.432  -4.000  0.00  0.00    -0.254 N 
ATOM      7  H   UNL     1       4.932   3.322  -4.097  0.00  0.00    +0.158 HD
ATOM      8  C   UNL     1       3.978   1.861  -5.170  0.00  0.00    +0.309 C 
ATOM      9  N   UNL     1       4.665   2.318  -6.286  0.00  0.00    -0.269 N 
ATOM     10  H   UNL     1       5.611   2.623  -6.130  0.00  0.00    +0.156 HD
ATOM     11  O   UNL     1       3.035   1.075  -5.200  0.00  0.00    -0.252 OA
BRANCH   9  12
ATOM     12  C   UNL     1       4.293   2.039  -7.623  0.00  0.00    +0.035 A 
ATOM     13  C   UNL     1       5.268   2.161  -8.618  0.00  0.00    +0.023 A 
ATOM     14  C   UNL     1       4.966   1.837  -9.945  0.00  0.00    +0.002 A 
ATOM     15  C   UNL     1       3.685   1.412 -10.292  0.00  0.00    +0.000 A 
ATOM     16  C   UNL     1       2.699   1.337  -9.315  0.00  0.00    +0.002 A 
ATOM     17  C   UNL     1       2.999   1.653  -7.990  0.00  0.00    +0.023 A 
ENDBRANCH   9  12
ENDBRANCH   3   6
BRANCH   4  18
ATOM     18  C   UNL     1       3.091   4.484  -2.011  0.00  0.00    +0.069 A 
ATOM     19  C   UNL     1       2.565   5.195  -0.915  0.00  0.00    +0.050 A 
ATOM     20  C   UNL     1       2.443   6.591  -0.942  0.00  0.00    +0.027 A 
ATOM     21  C   UNL     1       2.763   7.275  -2.115  0.00  0.00    +0.023 A 
ATOM     22  C   UNL     1       3.239   6.585  -3.226  0.00  0.00    +0.004 A 
ATOM     23  C   UNL     1       3.389   5.197  -3.182  0.00  0.00    +0.028 A 
BRANCH  20  24
ATOM     24  N   UNL     1       1.794   7.266   0.099  0.00  0.00    -0.358 N 
ATOM     25  H   UNL     1       1.842   6.789   0.993  0.00  0.00    +0.142 HD
ATOM     26  H   UNL     1       2.040   8.250   0.170  0.00  0.00    +0.142 HD
ENDBRANCH  20  24
ENDBRANCH   4  18
BRANCH   1  28
ATOM     27  C   UNL     1       0.985  -0.343  -0.397  0.00  0.00    +0.017 C 
ATOM     28  C   UNL     1       2.443   0.038  -0.075  0.00  0.00    +0.006 C 
ATOM     29  C   UNL     1       3.313  -1.235  -0.175  0.00  0.00    +0.017 C 
ATOM     30  C   UNL     1       2.515   0.525   1.388  0.00  0.00    +0.017 C 
ENDBRANCH   1  28
TORSDOF 5
