REMARK  Name = 
REMARK  7 active torsions:
REMARK  status: ('A' for Active; 'I' for Inactive)
REMARK    1  A    between atoms: C_1  and  N_2
REMARK    2  A    between atoms: C_3  and  C_5
REMARK    3  A    between atoms: N_16  and  C1*_17
REMARK    4  A    between atoms: C4*_20  and  C5*_22
REMARK    5  A    between atoms: C5*_22  and  O5*_23
REMARK    6  A    between atoms: C3*_24  and  O3*_26
REMARK    7  A    between atoms: C2*_27  and  O2*_29
REMARK                            x       y       z     vdW  Elec       q    Type
REMARK                         _______ _______ _______ _____ _____    ______ ____
ROOT
ATOM      1  C   UNL     1       6.088  11.513  -2.441  0.00  0.00    +0.075 A 
ATOM      2  C   UNL     1       6.810  11.363  -1.241  0.00  0.00    +0.148 A 
ATOM      3  N   UNL     1       7.046  10.087  -0.925  0.00  0.00    -0.171 NA
ATOM      4  N   UNL     1       6.494   9.383  -1.952  0.00  0.00    -0.205 N 
ATOM      5  C   UNL     1       6.573   7.945  -2.004  0.00  0.00    +0.255 A 
ATOM      6  N   UNL     1       6.019   7.320  -3.078  0.00  0.00    -0.194 NA
ATOM      7  C   UNL     1       6.113   5.972  -3.174  0.00  0.00    +0.149 A 
ATOM      8  N   UNL     1       5.564   5.348  -4.284  0.00  0.00    -0.341 N 
ATOM      9  H   UNL     1       4.851   5.895  -4.744  0.00  0.00    +0.144 HD
ATOM     10  H   UNL     1       5.388   4.357  -4.154  0.00  0.00    +0.144 HD
ATOM     11  C   UNL     1       6.757   5.268  -2.144  0.00  0.00    +0.147 A 
ATOM     12  N   UNL     1       6.979   3.926  -1.924  0.00  0.00    -0.231 NA
ATOM     13  C   UNL     1       7.636   3.878  -0.783  0.00  0.00    +0.203 A 
ATOM     14  N   UNL     1       7.861   5.130  -0.263  0.00  0.00    -0.285 N 
ATOM     15  C   UNL     1       7.277   6.022  -1.110  0.00  0.00    +0.170 A 
ATOM     16  N   UNL     1       7.209   7.348  -0.968  0.00  0.00    -0.191 NA
ATOM     17  C   UNL     1       5.895  10.214  -2.875  0.00  0.00    +0.130 A 
ENDROOT
BRANCH   1  21
ATOM     18  C   UNL     1       4.472  13.850  -4.869  0.00  0.00    +0.128 C 
ATOM     19  N   UNL     1       4.926  12.671  -4.184  0.00  0.00    -0.314 N 
ATOM     20  H   UNL     1       4.703  11.764  -4.564  0.00  0.00    +0.149 HD
ATOM     21  C   UNL     1       5.679  12.770  -3.036  0.00  0.00    +0.247 C 
ATOM     22  O   UNL     1       5.990  13.849  -2.532  0.00  0.00    -0.270 OA
ENDBRANCH   1  21
BRANCH  14  23
ATOM     23  C1* UNL     1       8.571   5.377   0.969  0.00  0.00    +0.253 C 
ATOM     24  C2* UNL     1       8.816   6.809   1.476  0.00  0.00    +0.195 C 
ATOM     25  C3* UNL     1       7.620   7.096   2.381  0.00  0.00    +0.178 C 
ATOM     26  C4* UNL     1       7.020   5.723   2.687  0.00  0.00    +0.177 C 
ATOM     27  O4* UNL     1       7.833   4.724   2.023  0.00  0.00    -0.346 OA
BRANCH  24  28
ATOM     28  O2* UNL     1      10.025   6.879   2.273  0.00  0.00    -0.385 OA
ATOM     29  H2* UNL     1      10.178   6.014   2.695  0.00  0.00    +0.210 HD
ENDBRANCH  24  28
BRANCH  25  30
ATOM     30  O3* UNL     1       8.013   7.731   3.600  0.00  0.00    -0.386 OA
ATOM     31  H3* UNL     1       8.983   7.615   3.674  0.00  0.00    +0.210 HD
ENDBRANCH  25  30
BRANCH  26  32
ATOM     32  C5* UNL     1       5.568   5.619   2.194  0.00  0.00    +0.190 C 
BRANCH  32  33
ATOM     33  O5* UNL     1       5.028   4.334   2.489  0.00  0.00    -0.392 OA
ATOM     34  H5* UNL     1       5.593   3.680   2.039  0.00  0.00    +0.210 HD
ENDBRANCH  32  33
ENDBRANCH  26  32
ENDBRANCH  14  23
TORSDOF 6
