REMARK  Name = 
REMARK  8 active torsions:
REMARK  status: ('A' for Active; 'I' for Inactive)
REMARK    1  A    between atoms: C_1  and  N_2
REMARK    2  A    between atoms: C_4  and  C_5
REMARK    3  A    between atoms: C_16  and  C_20
REMARK    4  A    between atoms: N_22  and  C_23
REMARK    5  A    between atoms: C_23  and  C_24
REMARK    6  A    between atoms: C_23  and  C_25
REMARK    7  A    between atoms: C_23  and  C_26
REMARK    8  A    between atoms: C_26  and  O_27
REMARK                            x       y       z     vdW  Elec       q    Type
REMARK                         _______ _______ _______ _____ _____    ______ ____
ROOT
ATOM      1  C   UNL     1       1.083   0.172  -0.056  0.00  0.00    +0.149 C 
ATOM      2  N   UNL     1       2.528   0.156  -0.060  0.00  0.00    -0.349 N 
ATOM      3  C   UNL     1       3.309  -0.981  -0.059  0.00  0.00    +0.049 A 
ATOM      4  C   UNL     1       4.642  -0.555  -0.059  0.00  0.00    +0.010 A 
ATOM      5  C   UNL     1       5.644  -1.546  -0.044  0.00  0.00    +0.023 A 
ATOM      6  C   UNL     1       5.320  -2.915  -0.047  0.00  0.00    +0.037 A 
ATOM      7  C   UNL     1       3.980  -3.303  -0.060  0.00  0.00    +0.015 A 
ATOM      8  C   UNL     1       4.636   0.873  -0.081  0.00  0.00    +0.024 A 
ATOM      9  C   UNL     1       2.956  -2.342  -0.059  0.00  0.00    +0.027 A 
ATOM     10  C   UNL     1       3.317   1.274  -0.071  0.00  0.00    +0.096 A 
ENDROOT
BRANCH   8  11
ATOM     11  C   UNL     1       5.786   1.823  -0.086  0.00  0.00    +0.051 A 
ATOM     12  N   UNL     1       7.116   1.484  -0.025  0.00  0.00    -0.339 N 
ATOM     13  H   UNL     1       7.507   0.558   0.006  0.00  0.00    +0.167 HD
ATOM     14  C   UNL     1       7.887   2.607   0.081  0.00  0.00    +0.139 A 
ATOM     15  C   UNL     1       7.047   3.709   0.007  0.00  0.00    +0.019 A 
ATOM     16  C   UNL     1       7.638   4.978   0.105  0.00  0.00    +0.013 A 
ATOM     17  C   UNL     1       9.020   5.031   0.298  0.00  0.00    +0.020 A 
ATOM     18  C   UNL     1       9.741   3.844   0.359  0.00  0.00    +0.113 A 
ATOM     19  N   UNL     1       9.223   2.601   0.243  0.00  0.00    -0.237 NA
ATOM     20  C   UNL     1       5.724   3.205  -0.132  0.00  0.00    +0.037 A 
ENDBRANCH   8  11
BRANCH   6  21
ATOM     21  C   UNL     1       6.477  -3.854  -0.041  0.00  0.00    +0.245 C 
ATOM     22  N   UNL     1       6.245  -5.213  -0.095  0.00  0.00    -0.304 N 
ATOM     23  H   UNL     1       5.301  -5.564  -0.124  0.00  0.00    +0.150 HD
ATOM     24  O   UNL     1       7.616  -3.393   0.023  0.00  0.00    -0.270 OA
BRANCH  22  25
ATOM     25  C   UNL     1       7.340  -6.214  -0.134  0.00  0.00    +0.052 C 
ATOM     26  C   UNL     1       8.219  -6.019  -1.382  0.00  0.00    +0.033 C 
ATOM     27  C   UNL     1       6.703  -7.614  -0.218  0.00  0.00    +0.033 C 
BRANCH  25  28
ATOM     28  C   UNL     1       8.215  -6.132   1.143  0.00  0.00    +0.181 C 
BRANCH  28  29
ATOM     29  O   UNL     1       7.417  -6.316   2.317  0.00  0.00    -0.393 OA
ATOM     30  H   UNL     1       6.807  -5.555   2.332  0.00  0.00    +0.209 HD
ENDBRANCH  28  29
ENDBRANCH  25  28
ENDBRANCH  22  25
ENDBRANCH   6  21
TORSDOF 5
