REMARK  Name = 
REMARK  54 active torsions:
REMARK  status: ('A' for Active; 'I' for Inactive)
REMARK    1  A    between atoms: C_1  and  C_2
REMARK    2  A    between atoms: C_2  and  N_3
REMARK    3  A    between atoms: N_5  and  C_6
REMARK    4  A    between atoms: C_6  and  C_7
REMARK    5  A    between atoms: N_8  and  C_9
REMARK    6  A    between atoms: C_9  and  C_10
REMARK    7  A    between atoms: C_10  and  C_11
REMARK    8  A    between atoms: C_11  and  C_12
REMARK    9  A    between atoms: C_12  and  C_13
REMARK   10  A    between atoms: C_13  and  N_15
REMARK   11  A    between atoms: C_13  and  C_80
REMARK   12  A    between atoms: C_16  and  C_18
REMARK   13  A    between atoms: C_18  and  C_20
REMARK   14  A    between atoms: C_18  and  N_28
REMARK   15  A    between atoms: C_20  and  C_21
REMARK   16  A    between atoms: C_24  and  O_25
REMARK   17  A    between atoms: C_29  and  CA_31
REMARK   18  A    between atoms: CA_31  and  C_33
REMARK   19  A    between atoms: CA_31  and  N_35
REMARK   20  A    between atoms: C_33  and  O_34
REMARK   21  A    between atoms: C_36  and  CA_38
REMARK   22  A    between atoms: CA_38  and  C_40
REMARK   23  A    between atoms: CA_38  and  N_47
REMARK   24  A    between atoms: C_40  and  C_41
REMARK   25  A    between atoms: C_48  and  CA_50
REMARK   26  A    between atoms: CA_50  and  C_52
REMARK   27  A    between atoms: CA_50  and  N_60
REMARK   28  A    between atoms: C_52  and  C_53
REMARK   29  A    between atoms: C_61  and  CA_63
REMARK   30  A    between atoms: CA_63  and  C_65
REMARK   31  A    between atoms: CA_63  and  N_76
REMARK   32  A    between atoms: C_65  and  C_66
REMARK   33  A    between atoms: C_77  and  C_78
REMARK   34  A    between atoms: N_82  and  C_83
REMARK   35  A    between atoms: C_83  and  C_85
REMARK   36  A    between atoms: C_83  and  C_89
REMARK   37  A    between atoms: C_85  and  C_86
REMARK   38  A    between atoms: C_86  and  C_87
REMARK   39  A    between atoms: C_86  and  C_88
REMARK   40  A    between atoms: N_91  and  C_92
REMARK   41  A    between atoms: C_92  and  C_94
REMARK   42  A    between atoms: C_92  and  C_106
REMARK   43  A    between atoms: C_94  and  C_95
REMARK   44  A    between atoms: C_95  and  C_96
REMARK   45  A    between atoms: C_96  and  C_97
REMARK   46  A    between atoms: C_97  and  N_98
REMARK   47  A    between atoms: N_100  and  C_101
REMARK   48  A    between atoms: C_101  and  C_102
REMARK   49  A    between atoms: N_103  and  C_104
REMARK   50  A    between atoms: C_104  and  C_105
REMARK   51  A    between atoms: C_112  and  C_114
REMARK   52  A    between atoms: N_116  and  C_117
REMARK   53  A    between atoms: C_117  and  C_119
REMARK   54  A    between atoms: C_117  and  C_120
REMARK                            x       y       z     vdW  Elec       q    Type
REMARK                         _______ _______ _______ _____ _____    ______ ____
ROOT
ATOM      1  N   UNL     1      16.719   5.979   0.217  0.00  0.00    -0.302 N 
ATOM      2  H   UNL     1      16.408   6.750  -0.354  0.00  0.00    +0.150 HD
ATOM      3  C   UNL     1      17.518   6.199   1.324  0.00  0.00    +0.234 C 
ATOM      4  O   UNL     1      17.935   5.273   2.016  0.00  0.00    -0.274 OA
ENDROOT
BRANCH   1   5
ATOM      5  C   UNL     1      16.162   4.664  -0.123  0.00  0.00    +0.159 C 
BRANCH   5   6
ATOM      6  C   UNL     1      14.711   4.544   0.456  0.00  0.00    +0.234 C 
ATOM      7  N   UNL     1      13.945   5.695   0.428  0.00  0.00    -0.302 N 
ATOM      8  H   UNL     1      14.281   6.504  -0.077  0.00  0.00    +0.150 HD
ATOM      9  O   UNL     1      14.237   3.467   0.811  0.00  0.00    -0.274 OA
BRANCH   7  10
ATOM     10  C   UNL     1      12.611   5.838   1.042  0.00  0.00    +0.159 C 
BRANCH  10  11
ATOM     11  C   UNL     1      11.872   7.025   0.355  0.00  0.00    +0.234 C 
ATOM     12  N   UNL     1      10.572   7.273   0.749  0.00  0.00    -0.302 N 
ATOM     13  H   UNL     1      10.115   6.687   1.441  0.00  0.00    +0.150 HD
ATOM     14  O   UNL     1      12.455   7.725  -0.482  0.00  0.00    -0.274 OA
BRANCH  12  15
ATOM     15  C   UNL     1       9.777   8.372   0.171  0.00  0.00    +0.159 C 
BRANCH  15  16
ATOM     16  C   UNL     1       8.944   9.144   1.245  0.00  0.00    +0.237 C 
ATOM     17  N   UNL     1       8.724  10.513   1.066  0.00  0.00    -0.288 N 
ATOM     18  C   UNL     1       8.565  11.397   2.239  0.00  0.00    +0.162 C 
ATOM     19  C   UNL     1       9.459  12.620   1.919  0.00  0.00    +0.033 C 
ATOM     20  C   UNL     1      10.077  12.340   0.552  0.00  0.00    +0.021 C 
ATOM     21  C   UNL     1       9.153  11.312  -0.067  0.00  0.00    +0.109 C 
ATOM     22  O   UNL     1       8.505   8.568   2.251  0.00  0.00    -0.274 OA
BRANCH  18  23
ATOM     23  C   UNL     1       7.122  11.887   2.569  0.00  0.00    +0.234 C 
ATOM     24  N   UNL     1       6.123  10.950   2.459  0.00  0.00    -0.303 N 
ATOM     25  H   UNL     1       6.372   9.997   2.180  0.00  0.00    +0.149 HD
ATOM     26  O   UNL     1       6.906  13.002   3.026  0.00  0.00    -0.274 OA
BRANCH  24  27
ATOM     27  C   UNL     1       4.741  11.235   2.882  0.00  0.00    +0.156 C 
ATOM     28  C   UNL     1       4.629  11.550   4.376  0.00  0.00    +0.038 C 
BRANCH  27  29
ATOM     29  C   UNL     1       3.774  10.081   2.543  0.00  0.00    +0.231 C 
ATOM     30  O   UNL     1       2.705   9.882   3.111  0.00  0.00    -0.274 OA
ATOM     31  N   UNL     1       4.082   9.334   1.439  0.00  0.00    -0.328 N 
ATOM     32  H   UNL     1       3.363   8.663   1.194  0.00  0.00    +0.145 HD
ATOM     33  H   UNL     1       4.564   9.779   0.672  0.00  0.00    +0.145 HD
ENDBRANCH  27  29
ENDBRANCH  24  27
ENDBRANCH  18  23
ENDBRANCH  15  16
BRANCH  15  34
ATOM     34  C   UNL     1       8.957   7.911  -1.053  0.00  0.00    +0.032 C 
BRANCH  34  35
ATOM     35  C   UNL     1       8.007   6.732  -0.797  0.00  0.00    +0.005 C 
BRANCH  35  36
ATOM     36  C   UNL     1       7.237   6.245  -2.041  0.00  0.00    +0.041 C 
BRANCH  36  37
ATOM     37  C   UNL     1       8.063   5.806  -3.263  0.00  0.00    +0.243 C 
BRANCH  37  38
ATOM     38  N   UNL     1       8.896   4.653  -2.940  0.00  0.00    -0.114 NA
ATOM     39  C   UNL     1       9.677   4.156  -3.837  0.00  0.00    +0.381 C 
ATOM     40  N   UNL     1      10.475   3.084  -3.575  0.00  0.00    -0.276 N 
ATOM     41  H   UNL     1      11.434   3.242  -3.854  0.00  0.00    +0.258 HD
ATOM     42  N   UNL     1       9.845   4.569  -5.141  0.00  0.00    -0.276 N 
ATOM     43  H   UNL     1       9.159   5.255  -5.430  0.00  0.00    +0.258 HD
BRANCH  42  44
ATOM     44  C   UNL     1      10.171   3.620  -6.212  0.00  0.00    +0.192 C 
ATOM     45  C   UNL     1      10.337   4.320  -7.549  0.00  0.00    +0.044 C 
ENDBRANCH  42  44
BRANCH  40  46
ATOM     46  C   UNL     1      10.338   2.231  -2.415  0.00  0.00    +0.192 C 
ATOM     47  C   UNL     1      11.089   0.935  -2.691  0.00  0.00    +0.044 C 
ENDBRANCH  40  46
ENDBRANCH  37  38
ENDBRANCH  36  37
ENDBRANCH  35  36
ENDBRANCH  34  35
ENDBRANCH  15  34
ENDBRANCH  12  15
ENDBRANCH  10  11
BRANCH  10  48
ATOM     48  C   UNL     1      12.678   6.022   2.578  0.00  0.00    +0.034 C 
BRANCH  48  49
ATOM     49  C   UNL     1      13.298   7.347   3.086  0.00  0.00    -0.015 C 
ATOM     50  C   UNL     1      14.782   7.461   2.784  0.00  0.00    +0.007 C 
ATOM     51  C   UNL     1      13.129   7.508   4.600  0.00  0.00    +0.007 C 
ENDBRANCH  48  49
ENDBRANCH  10  48
ENDBRANCH   7  10
ENDBRANCH   5   6
BRANCH   5  52
ATOM     52  C   UNL     1      16.170   4.448  -1.658  0.00  0.00    +0.032 C 
BRANCH  52  53
ATOM     53  C   UNL     1      17.582   4.481  -2.280  0.00  0.00    +0.005 C 
BRANCH  53  54
ATOM     54  C   UNL     1      17.603   4.244  -3.804  0.00  0.00    +0.041 C 
BRANCH  54  55
ATOM     55  C   UNL     1      19.040   4.293  -4.353  0.00  0.00    +0.243 C 
BRANCH  55  59
ATOM     56  N   UNL     1      19.132   5.065  -7.959  0.00  0.00    -0.276 N 
ATOM     57  H   UNL     1      19.168   5.895  -8.531  0.00  0.00    +0.258 HD
ATOM     58  C   UNL     1      19.030   5.239  -6.601  0.00  0.00    +0.381 C 
ATOM     59  N   UNL     1      19.087   4.233  -5.808  0.00  0.00    -0.114 NA
ATOM     60  N   UNL     1      18.856   6.573  -6.371  0.00  0.00    -0.276 N 
ATOM     61  H   UNL     1      19.083   7.178  -7.145  0.00  0.00    +0.258 HD
BRANCH  60  62
ATOM     62  C   UNL     1      18.895   7.252  -5.104  0.00  0.00    +0.192 C 
ATOM     63  C   UNL     1      18.581   8.719  -5.306  0.00  0.00    +0.044 C 
ENDBRANCH  60  62
BRANCH  56  65
ATOM     64  C   UNL     1      19.585   3.932 -10.067  0.00  0.00    +0.044 C 
ATOM     65  C   UNL     1      19.789   3.916  -8.558  0.00  0.00    +0.192 C 
ENDBRANCH  56  65
ENDBRANCH  55  59
ENDBRANCH  54  55
ENDBRANCH  53  54
ENDBRANCH  52  53
ENDBRANCH   5  52
ENDBRANCH   1   5
BRANCH   3  66
ATOM     66  C   UNL     1      17.895   7.687   1.644  0.00  0.00    +0.163 C 
BRANCH  66  67
ATOM     67  N   UNL     1      19.342   7.833   1.890  0.00  0.00    -0.302 N 
ATOM     68  H   UNL     1      19.943   7.384   1.221  0.00  0.00    +0.150 HD
ATOM     69  C   UNL     1      19.902   8.205   3.086  0.00  0.00    +0.236 C 
ATOM     70  O   UNL     1      19.220   8.521   4.060  0.00  0.00    -0.274 OA
BRANCH  69  71
ATOM     71  CA  UNL     1      21.459   8.258   3.130  0.00  0.00    +0.184 C 
BRANCH  71  72
ATOM     72  N   UNL     1      22.025   7.503   4.250  0.00  0.00    -0.301 N 
ATOM     73  H   UNL     1      22.908   7.863   4.582  0.00  0.00    +0.150 HD
ATOM     74  C   UNL     1      21.740   6.176   4.480  0.00  0.00    +0.234 C 
ATOM     75  O   UNL     1      20.997   5.543   3.734  0.00  0.00    -0.274 OA
BRANCH  74  76
ATOM     76  CA  UNL     1      22.359   5.531   5.770  0.00  0.00    +0.163 C 
BRANCH  76  77
ATOM     77  N   UNL     1      21.370   4.567   6.301  0.00  0.00    -0.302 N 
ATOM     78  H   UNL     1      20.605   4.397   5.668  0.00  0.00    +0.150 HD
ATOM     79  C   UNL     1      21.355   3.956   7.533  0.00  0.00    +0.234 C 
ATOM     80  O   UNL     1      22.300   4.063   8.321  0.00  0.00    -0.274 OA
BRANCH  79  81
ATOM     81  CA  UNL     1      20.067   3.152   7.955  0.00  0.00    +0.163 C 
BRANCH  81  82
ATOM     82  N   UNL     1      20.589   1.998   8.706  0.00  0.00    -0.302 N 
ATOM     83  H   UNL     1      21.506   2.179   9.107  0.00  0.00    +0.150 HD
ATOM     84  C   UNL     1      19.817   1.042   9.323  0.00  0.00    +0.234 C 
ATOM     85  O   UNL     1      18.586   1.078   9.318  0.00  0.00    -0.274 OA
BRANCH  84  86
ATOM     86  CA  UNL     1      20.580  -0.169   9.931  0.00  0.00    +0.163 C 
BRANCH  86  87
ATOM     87  N   UNL     1      20.098  -0.435  11.283  0.00  0.00    -0.304 N 
ATOM     88  H   UNL     1      19.573  -1.285  11.442  0.00  0.00    +0.149 HD
ATOM     89  C   UNL     1      20.348   0.420  12.324  0.00  0.00    +0.211 C 
ATOM     90  O   UNL     1      20.962   1.476  12.196  0.00  0.00    -0.276 OA
ATOM     91  C   UNL     1      19.826  -0.042  13.654  0.00  0.00    +0.109 C 
ENDBRANCH  86  87
BRANCH  86  92
ATOM     92  C   UNL     1      22.107  -0.087   9.806  0.00  0.00    +0.067 C 
BRANCH  92  93
ATOM     93  C   UNL     1      22.873  -1.265  10.352  0.00  0.00    -0.045 A 
ATOM     94  C   UNL     1      22.846  -2.513   9.719  0.00  0.00    +0.004 A 
ATOM     95  C   UNL     1      23.677  -3.543  10.164  0.00  0.00    +0.009 A 
ATOM     96  C   UNL     1      24.555  -3.338  11.245  0.00  0.00    -0.018 A 
ATOM     97  C   UNL     1      24.544  -2.096  11.917  0.00  0.00    -0.018 A 
ATOM     98  C   UNL     1      25.404  -1.884  13.004  0.00  0.00    +0.008 A 
ATOM     99  C   UNL     1      26.288  -2.884  13.407  0.00  0.00    +0.001 A 
ATOM    100  C   UNL     1      26.318  -4.097  12.733  0.00  0.00    +0.001 A 
ATOM    101  C   UNL     1      25.452  -4.330  11.664  0.00  0.00    +0.008 A 
ATOM    102  C   UNL     1      23.693  -1.080  11.467  0.00  0.00    +0.012 A 
ENDBRANCH  92  93
ENDBRANCH  86  92
ENDBRANCH  84  86
ENDBRANCH  81  82
BRANCH  81 103
ATOM    103  C   UNL     1      19.077   2.778   6.818  0.00  0.00    +0.067 C 
BRANCH 103 104
ATOM    104  C   UNL     1      19.727   2.036   5.667  0.00  0.00    -0.045 A 
ATOM    105  C   UNL     1      19.833   2.644   4.408  0.00  0.00    +0.005 A 
ATOM    106  C   UNL     1      20.770   2.178   3.487  0.00  0.00    +0.020 A 
ATOM    107  C   UNL     1      21.523   1.045   3.774  0.00  0.00    +0.041 A 
ATOM    108 CL   UNL     1      22.766   0.542   2.702  0.00  0.00    -0.084 Cl
ATOM    109  C   UNL     1      21.290   0.332   4.950  0.00  0.00    +0.020 A 
ATOM    110  C   UNL     1      20.383   0.816   5.878  0.00  0.00    +0.005 A 
ENDBRANCH 103 104
ENDBRANCH  81 103
ENDBRANCH  79  81
ENDBRANCH  76  77
BRANCH  76 111
ATOM    111  C   UNL     1      22.752   6.594   6.806  0.00  0.00    +0.068 C 
BRANCH 111 112
ATOM    112  C   UNL     1      21.609   7.299   7.511  0.00  0.00    -0.027 A 
ATOM    113  C   UNL     1      20.255   7.026   7.293  0.00  0.00    +0.114 A 
ATOM    114  N   UNL     1      19.263   7.402   8.118  0.00  0.00    -0.263 NA
ATOM    115  C   UNL     1      19.611   8.132   9.191  0.00  0.00    +0.111 A 
ATOM    116  C   UNL     1      20.909   8.586   9.407  0.00  0.00    +0.020 A 
ATOM    117  C   UNL     1      21.913   8.174   8.549  0.00  0.00    +0.006 A 
ENDBRANCH 111 112
ENDBRANCH  76 111
ENDBRANCH  74  76
ENDBRANCH  71  72
BRANCH  71 118
ATOM    118  C   UNL     1      22.206   7.981   1.821  0.00  0.00    +0.187 C 
BRANCH 118 119
ATOM    119  O   UNL     1      23.588   8.338   1.940  0.00  0.00    -0.393 OA
ATOM    120  H   UNL     1      23.662   9.300   1.799  0.00  0.00    +0.209 HD
ENDBRANCH 118 119
ENDBRANCH  71 118
ENDBRANCH  69  71
ENDBRANCH  66  67
BRANCH  66 121
ATOM    121  C   UNL     1      17.406   8.716   0.598  0.00  0.00    +0.067 C 
BRANCH 121 122
ATOM    122  C   UNL     1      18.186   8.788  -0.702  0.00  0.00    -0.045 A 
ATOM    123  C   UNL     1      18.070   9.959  -1.455  0.00  0.00    +0.007 A 
ATOM    124  C   UNL     1      19.106  10.324  -2.304  0.00  0.00    +0.045 A 
ATOM    125  C   UNL     1      20.201   9.480  -2.445  0.00  0.00    +0.117 A 
ATOM    126  C   UNL     1      20.195   8.206  -1.902  0.00  0.00    +0.045 A 
ATOM    127  C   UNL     1      19.154   7.843  -1.065  0.00  0.00    +0.007 A 
BRANCH 125 128
ATOM    128  O   UNL     1      21.283   9.931  -3.141  0.00  0.00    -0.507 OA
ATOM    129  H   UNL     1      22.065   9.482  -2.775  0.00  0.00    +0.292 HD
ENDBRANCH 125 128
ENDBRANCH 121 122
ENDBRANCH  66 121
ENDBRANCH   3  66
TORSDOF 46
