REMARK  Name = 
REMARK  15 active torsions:
REMARK  status: ('A' for Active; 'I' for Inactive)
REMARK    1  A    between atoms: C_1  and  C_2
REMARK    2  A    between atoms: C_2  and  C_3
REMARK    3  A    between atoms: C_3  and  C_4
REMARK    4  A    between atoms: C_4  and  C_5
REMARK    5  A    between atoms: C_5  and  C_6
REMARK    6  A    between atoms: C_6  and  C_7
REMARK    7  A    between atoms: C_7  and  C_8
REMARK    8  A    between atoms: C_8  and  C_9
REMARK    9  A    between atoms: C_9  and  O_10
REMARK   10  A    between atoms: C_9  and  P_11
REMARK   11  A    between atoms: C_9  and  P_15
REMARK   12  A    between atoms: P_11  and  O_12
REMARK   13  A    between atoms: P_11  and  O_13
REMARK   14  A    between atoms: P_15  and  O_16
REMARK   15  A    between atoms: P_15  and  O_17
REMARK                            x       y       z     vdW  Elec       q    Type
REMARK                         _______ _______ _______ _____ _____    ______ ____
ROOT
ATOM      1  C   UNL     1       9.179   5.211  -2.467  0.00  0.00    +0.267 C 
ENDROOT
BRANCH   1   2
ATOM      2  P   UNL     1       8.762   6.694  -1.479  0.00  0.00    +0.371 P 
ATOM      3  O   UNL     1       8.409   7.949  -0.644  0.00  0.00    -0.255 OA
BRANCH   2   4
ATOM      4  O   UNL     1      10.005   7.550  -2.170  0.00  0.00    -0.322 OA
ATOM      5  H   UNL     1      10.026   8.376  -1.627  0.00  0.00    +0.220 HD
ENDBRANCH   2   4
BRANCH   2   6
ATOM      6  O   UNL     1       9.740   6.077  -0.290  0.00  0.00    -0.322 OA
ATOM      7  H   UNL     1      10.587   5.771  -0.680  0.00  0.00    +0.220 HD
ENDBRANCH   2   6
ENDBRANCH   1   2
BRANCH   1   8
ATOM      8  P   UNL     1       8.622   5.451  -4.193  0.00  0.00    +0.371 P 
ATOM      9  O   UNL     1       8.151   5.654  -5.654  0.00  0.00    -0.255 OA
BRANCH   8  10
ATOM     10  O   UNL     1       9.794   6.585  -4.398  0.00  0.00    -0.322 OA
ATOM     11  H   UNL     1      10.152   7.050  -3.598  0.00  0.00    +0.220 HD
ENDBRANCH   8  10
BRANCH   8  12
ATOM     12  O   UNL     1       7.400   6.405  -3.669  0.00  0.00    -0.322 OA
ATOM     13  H   UNL     1       6.973   6.748  -4.489  0.00  0.00    +0.220 HD
ENDBRANCH   8  12
ENDBRANCH   1   8
BRANCH   1  14
ATOM     14  O   UNL     1      10.640   5.017  -2.422  0.00  0.00    -0.367 OA
ATOM     15  H   UNL     1      10.888   4.437  -3.166  0.00  0.00    +0.212 HD
ENDBRANCH   1  14
BRANCH   1  16
ATOM     16  C   UNL     1       8.596   3.915  -1.894  0.00  0.00    +0.060 C 
BRANCH  16  17
ATOM     17  C   UNL     1       7.079   3.929  -1.735  0.00  0.00    +0.004 C 
BRANCH  17  18
ATOM     18  C   UNL     1       6.561   2.628  -1.116  0.00  0.00    +0.000 C 
BRANCH  18  19
ATOM     19  C   UNL     1       7.045   2.411   0.322  0.00  0.00    +0.000 C 
BRANCH  19  20
ATOM     20  C   UNL     1       6.554   1.096   0.929  0.00  0.00    -0.000 C 
BRANCH  20  21
ATOM     21  C   UNL     1       7.078  -0.122   0.168  0.00  0.00    -0.000 C 
BRANCH  21  23
ATOM     22  C   UNL     1       7.118  -2.622   0.011  0.00  0.00    +0.004 C 
ATOM     23  C   UNL     1       6.647  -1.430   0.825  0.00  0.00    -0.003 C 
ENDBRANCH  21  23
ENDBRANCH  20  21
ENDBRANCH  19  20
ENDBRANCH  18  19
ENDBRANCH  17  18
ENDBRANCH  16  17
ENDBRANCH   1  16
TORSDOF 14
