REMARK  Name = 
REMARK  5 active torsions:
REMARK  status: ('A' for Active; 'I' for Inactive)
REMARK    1  A    between atoms: C_1  and  C_2
REMARK    2  A    between atoms: C_6  and  O_7
REMARK    3  A    between atoms: C_8  and  C_10
REMARK    4  A    between atoms: N_12  and  C_13
REMARK    5  A    between atoms: C_17  and  C_20
REMARK                            x       y       z     vdW  Elec       q    Type
REMARK                         _______ _______ _______ _____ _____    ______ ____
ROOT
ATOM      1  C   UNL     1       5.463  -2.311   0.119  0.00  0.00    +0.252 C 
ATOM      2  N   UNL     1       4.946  -3.597   0.111  0.00  0.00    -0.281 N 
ATOM      3  H   UNL     1       3.946  -3.674   0.281  0.00  0.00    +0.155 HD
ATOM      4  O   UNL     1       6.659  -2.037   0.065  0.00  0.00    -0.270 OA
ENDROOT
BRANCH   1   8
ATOM      5  C   UNL     1       4.837   2.634   0.433  0.00  0.00    +0.044 C 
ATOM      6  C   UNL     1       4.219   1.267   0.367  0.00  0.00    -0.049 A 
ATOM      7  C   UNL     1       5.034   0.128   0.285  0.00  0.00    +0.020 A 
ATOM      8  C   UNL     1       4.488  -1.173   0.231  0.00  0.00    +0.080 A 
ATOM      9  C   UNL     1       3.093  -1.317   0.266  0.00  0.00    +0.142 A 
ATOM     10  C   UNL     1       2.275  -0.179   0.341  0.00  0.00    +0.056 A 
ATOM     11  I   UNL     1       0.188  -0.340   0.373  0.00  0.00    -0.040 I 
ATOM     12  C   UNL     1       2.833   1.104   0.391  0.00  0.00    +0.021 A 
BRANCH   9  13
ATOM     13  O   UNL     1       2.531  -2.569   0.234  0.00  0.00    -0.505 OA
ATOM     14  H   UNL     1       1.561  -2.446   0.239  0.00  0.00    +0.292 HD
ENDBRANCH   9  13
ENDBRANCH   1   8
BRANCH   2  15
ATOM     15  C   UNL     1       5.672  -4.797  -0.060  0.00  0.00    +0.035 A 
ATOM     16  C   UNL     1       5.037  -6.009   0.222  0.00  0.00    +0.024 A 
ATOM     17  C   UNL     1       5.722  -7.227   0.073  0.00  0.00    +0.019 A 
ATOM     18  C   UNL     1       7.046  -7.259  -0.398  0.00  0.00    +0.083 A 
ATOM     19  C   UNL     1       7.672  -6.041  -0.698  0.00  0.00    +0.058 A 
ATOM     20 CL   UNL     1       9.273  -5.918  -1.350  0.00  0.00    -0.083 Cl
ATOM     21  C   UNL     1       6.989  -4.830  -0.522  0.00  0.00    +0.044 A 
BRANCH  18  22
ATOM     22  C   UNL     1       7.723  -8.587  -0.556  0.00  0.00    +0.310 C 
ATOM     23  N   UNL     1       7.080  -9.675  -0.853  0.00  0.00    -0.099 NA
ATOM     24  H   UNL     1       6.082  -9.511  -0.989  0.00  0.00    +0.363 HD
ATOM     25  N   UNL     1       9.068  -8.734  -0.400  0.00  0.00    -0.247 N 
ATOM     26  H   UNL     1       9.398  -9.598  -0.817  0.00  0.00    +0.288 HD
ATOM     27  H   UNL     1       9.645  -7.936  -0.648  0.00  0.00    +0.288 HD
ENDBRANCH  18  22
ENDBRANCH   2  15
TORSDOF 4
