REMARK  Name = 
REMARK  8 active torsions:
REMARK  status: ('A' for Active; 'I' for Inactive)
REMARK    1  A    between atoms: C_1  and  C_2
REMARK    2  A    between atoms: C_10  and  O_12
REMARK    3  A    between atoms: C_26  and  O_28
REMARK    4  A    between atoms: C_30  and  C_35
REMARK    5  A    between atoms: C_32  and  O_34
REMARK    6  A    between atoms: C_35  and  C_36
REMARK    7  A    between atoms: C_35  and  C_37
REMARK    8  A    between atoms: C_35  and  C_38
REMARK                            x       y       z     vdW  Elec       q    Type
REMARK                         _______ _______ _______ _____ _____    ______ ____
ROOT
ATOM      1  C   UNL     1       0.000   0.000   0.000  0.00  0.00    +0.019 C 
ATOM      2  C   UNL     1      -0.000  -0.000   0.000  0.00  0.00    +0.105 C 
ATOM      3  C   UNL     1      -0.000  -0.000   0.000  0.00  0.00    +0.311 C 
ATOM      4  O   UNL     1      -0.000  -0.000   0.000  0.00  0.00    -0.251 OA
ATOM      5  O   UNL     1      -0.000  -0.000   0.000  0.00  0.00    -0.458 OA
ATOM      6  C   UNL     1      -0.000  -0.000   0.000  0.00  0.00    +0.213 C 
ATOM      7  C   UNL     1      -0.000  -0.000   0.000  0.00  0.00    +0.169 C 
ATOM      8  C   UNL     1      -0.000  -0.000   0.000  0.00  0.00    +0.094 C 
ATOM      9  C   UNL     1      -0.000  -0.000   0.000  0.00  0.00    +0.090 C 
ATOM     10  C   UNL     1      -0.000  -0.000   0.000  0.00  0.00    +0.043 C 
ATOM     11  C   UNL     1      -0.000  -0.000   0.000  0.00  0.00    +0.160 C 
ATOM     12  C   UNL     1      -0.000  -0.000   0.000  0.00  0.00    +0.322 C 
ATOM     13  O   UNL     1       0.000  -0.000  -0.000  0.00  0.00    -0.433 OA
ATOM     14  C   UNL     1      -0.000  -0.000  -0.000  0.00  0.00    +0.339 C 
ATOM     15  O   UNL     1      -0.000  -0.000   0.000  0.00  0.00    -0.248 OA
ATOM     16  O   UNL     1      -0.000  -0.000   0.000  0.00  0.00    -0.322 OA
ATOM     17  C   UNL     1      -0.000  -0.000   0.000  0.00  0.00    +0.236 C 
ATOM     18  C   UNL     1      -0.000  -0.000   0.000  0.00  0.00    +0.189 C 
ATOM     19  C   UNL     1      -0.000  -0.000   0.000  0.00  0.00    +0.341 C 
ATOM     20  O   UNL     1      -0.000  -0.000   0.000  0.00  0.00    -0.248 OA
ATOM     21  O   UNL     1      -0.000  -0.000   0.000  0.00  0.00    -0.456 OA
ATOM     22  C   UNL     1      -0.000  -0.000   0.000  0.00  0.00    +0.218 C 
ATOM     23  C   UNL     1      -0.000  -0.000   0.000  0.00  0.00    +0.090 C 
ENDROOT
BRANCH  10  24
ATOM     24  C   UNL     1      -0.000  -0.000   0.000  0.00  0.00    -0.032 C 
ATOM     25  C   UNL     1      -0.000  -0.000   0.000  0.00  0.00    +0.011 C 
ATOM     26  C   UNL     1      -0.000  -0.000   0.000  0.00  0.00    +0.011 C 
ATOM     27  C   UNL     1      -0.000  -0.000   0.000  0.00  0.00    +0.011 C 
ENDBRANCH  10  24
BRANCH   7  28
ATOM     28  O   UNL     1      -0.000  -0.000   0.000  0.00  0.00    -0.387 OA
ATOM     29  H   UNL     1       0.000   0.000   0.000  0.00  0.00    +0.210 HD
ENDBRANCH   7  28
BRANCH  11  30
ATOM     30  O   UNL     1      -0.000  -0.000   0.000  0.00  0.00    -0.388 OA
ATOM     31  H   UNL     1       0.000   0.000   0.000  0.00  0.00    +0.210 HD
ENDBRANCH  11  30
BRANCH  17  32
ATOM     32  O   UNL     1      -0.000  -0.000   0.000  0.00  0.00    -0.380 OA
ATOM     33  H   UNL     1       0.000   0.000   0.000  0.00  0.00    +0.211 HD
ENDBRANCH  17  32
TORSDOF 4
