REMARK  Name = 
REMARK  5 active torsions:
REMARK  status: ('A' for Active; 'I' for Inactive)
REMARK    1  A    between atoms: C_1  and  C_2
REMARK    2  A    between atoms: C_3  and  C_24
REMARK    3  A    between atoms: N_4  and  C_16
REMARK    4  A    between atoms: C_6  and  C_7
REMARK    5  A    between atoms: N_9  and  N_10
REMARK                            x       y       z     vdW  Elec       q    Type
REMARK                         _______ _______ _______ _____ _____    ______ ____
ROOT
ATOM      1  C   UNL     1       1.309   0.186   0.123  0.00  0.00    +0.048 C 
ATOM      2  C   UNL     1       2.792   0.126  -0.037  0.00  0.00    +0.008 A 
ATOM      3  C   UNL     1       3.540  -1.084  -0.154  0.00  0.00    +0.152 A 
ATOM      4  N   UNL     1       4.850  -0.826  -0.159  0.00  0.00    -0.161 NA
ATOM      5  N   UNL     1       4.976   0.534  -0.217  0.00  0.00    -0.230 N 
ATOM      6  C   UNL     1       3.727   1.172  -0.079  0.00  0.00    +0.078 A 
ENDROOT
BRANCH   5   7
ATOM      7  C   UNL     1       6.315   1.034  -0.325  0.00  0.00    +0.084 A 
ATOM      8  C   UNL     1       7.336   0.256   0.273  0.00  0.00    +0.031 A 
ATOM      9  C   UNL     1       8.665   0.686   0.289  0.00  0.00    +0.022 A 
ATOM     10  C   UNL     1       8.992   1.908  -0.279  0.00  0.00    +0.042 A 
ATOM     11 CL   UNL     1      10.618   2.466  -0.227  0.00  0.00    -0.083 Cl
ATOM     12  C   UNL     1       8.016   2.663  -0.925  0.00  0.00    +0.042 A 
ATOM     13  C   UNL     1       6.688   2.206  -0.996  0.00  0.00    +0.068 A 
ATOM     14 CL   UNL     1       5.679   3.035  -2.129  0.00  0.00    -0.081 Cl
ENDBRANCH   5   7
BRANCH   6  15
ATOM     15  C   UNL     1       3.449   2.625   0.082  0.00  0.00    +0.001 A 
ATOM     16  C   UNL     1       2.294   3.185  -0.500  0.00  0.00    +0.011 A 
ATOM     17  C   UNL     1       1.953   4.531  -0.321  0.00  0.00    +0.020 A 
ATOM     18  C   UNL     1       2.803   5.363   0.392  0.00  0.00    +0.041 A 
ATOM     19 CL   UNL     1       2.406   7.026   0.591  0.00  0.00    -0.084 Cl
ATOM     20  C   UNL     1       3.970   4.851   0.950  0.00  0.00    +0.020 A 
ATOM     21  C   UNL     1       4.272   3.484   0.827  0.00  0.00    +0.011 A 
ENDBRANCH   6  15
BRANCH   3  22
ATOM     22  C   UNL     1       3.014  -2.468  -0.233  0.00  0.00    +0.278 C 
ATOM     23  N   UNL     1       4.022  -3.433  -0.290  0.00  0.00    -0.243 N 
ATOM     24  H   UNL     1       4.972  -3.066  -0.250  0.00  0.00    +0.170 HD
ATOM     25  O   UNL     1       1.815  -2.711  -0.269  0.00  0.00    -0.267 OA
BRANCH  23  26
ATOM     26  N   UNL     1       3.837  -4.820  -0.421  0.00  0.00    -0.227 NA
ATOM     27  C   UNL     1       2.971  -5.300  -1.500  0.00  0.00    +0.105 C 
ATOM     28  C   UNL     1       1.557  -5.744  -1.100  0.00  0.00    +0.017 C 
ATOM     29  C   UNL     1       1.525  -6.539   0.200  0.00  0.00    +0.003 C 
ATOM     30  C   UNL     1       2.299  -5.804   1.286  0.00  0.00    +0.017 C 
ATOM     31  C   UNL     1       3.736  -5.558   0.834  0.00  0.00    +0.105 C 
ENDBRANCH  23  26
ENDBRANCH   3  22
TORSDOF 4
