REMARK  Name = 
REMARK  9 active torsions:
REMARK  status: ('A' for Active; 'I' for Inactive)
REMARK    1  A    between atoms: C_1  and  C_2
REMARK    2  A    between atoms: C_2  and  C_3
REMARK    3  A    between atoms: C_2  and  C_4
REMARK    4  A    between atoms: C_2  and  N_5
REMARK    5  A    between atoms: N_5  and  S_6
REMARK    6  A    between atoms: S_6  and  C_9
REMARK    7  A    between atoms: C_12  and  C_15
REMARK    8  A    between atoms: C_22  and  N_23
REMARK    9  A    between atoms: N_23  and  C_24
REMARK                            x       y       z     vdW  Elec       q    Type
REMARK                         _______ _______ _______ _____ _____    ______ ____
ROOT
ATOM      1  C   UNL     1       6.392   5.964   4.095  0.00  0.00    +0.001 A 
ATOM      2  C   UNL     1       6.461   7.198   3.434  0.00  0.00    +0.022 A 
ATOM      3  C   UNL     1       6.973   8.354   4.060  0.00  0.00    +0.022 A 
ATOM      4  C   UNL     1       7.421   8.210   5.389  0.00  0.00    +0.073 A 
ATOM      5  C   UNL     1       7.991   9.302   6.024  0.00  0.00    +0.028 A 
ATOM      6  C   UNL     1       8.125  10.533   5.385  0.00  0.00    +0.004 A 
ATOM      7  C   UNL     1       7.662  10.687   4.084  0.00  0.00    +0.024 A 
ATOM      8  N   UNL     1       7.339   7.051   6.061  0.00  0.00    -0.254 NA
ATOM      9  C   UNL     1       7.099   9.603   3.395  0.00  0.00    +0.042 A 
ATOM     10  C   UNL     1       6.834   5.973   5.413  0.00  0.00    +0.120 A 
ENDROOT
BRANCH   1  14
ATOM     11  C   UNL     1       5.213   2.448   1.937  0.00  0.00    +0.105 A 
ATOM     12  C   UNL     1       6.158   2.345   2.958  0.00  0.00    +0.029 A 
ATOM     13  C   UNL     1       6.521   3.486   3.677  0.00  0.00    +0.010 A 
ATOM     14  C   UNL     1       5.936   4.739   3.407  0.00  0.00    -0.016 A 
ATOM     15  C   UNL     1       4.934   4.790   2.418  0.00  0.00    +0.010 A 
ATOM     16  C   UNL     1       4.569   3.657   1.687  0.00  0.00    +0.029 A 
BRANCH  11  17
ATOM     17  S   UNL     1       4.854   1.015   0.950  0.00  0.00    +0.059 S 
ATOM     18  O   UNL     1       4.652  -0.070   1.881  0.00  0.00    -0.153 OA
ATOM     19  O   UNL     1       3.853   1.377  -0.028  0.00  0.00    -0.153 OA
BRANCH  17  20
ATOM     20  N   UNL     1       6.331   0.718   0.180  0.00  0.00    -0.185 NA
ATOM     21  H   UNL     1       7.053   0.478   0.859  0.00  0.00    +0.149 HD
BRANCH  20  23
ATOM     22  C   UNL     1       6.891   2.932  -0.832  0.00  0.00    +0.029 C 
ATOM     23  C   UNL     1       6.812   1.422  -1.036  0.00  0.00    +0.032 C 
ATOM     24  C   UNL     1       8.238   0.902  -1.320  0.00  0.00    +0.029 C 
ATOM     25  C   UNL     1       5.943   1.062  -2.246  0.00  0.00    +0.029 C 
ENDBRANCH  20  23
ENDBRANCH  17  20
ENDBRANCH  11  17
ENDBRANCH   1  14
BRANCH   9  26
ATOM     26  N   UNL     1       6.590   9.764   2.080  0.00  0.00    -0.299 N 
ATOM     27  H   UNL     1       5.574   9.819   2.070  0.00  0.00    +0.154 HD
BRANCH  26  28
ATOM     28  C   UNL     1       7.055  10.655   1.099  0.00  0.00    +0.123 A 
ATOM     29  N   UNL     1       6.128  11.254   0.324  0.00  0.00    -0.240 NA
ATOM     30  C   UNL     1       6.569  12.126  -0.612  0.00  0.00    +0.113 A 
ATOM     31  C   UNL     1       7.904  12.438  -0.814  0.00  0.00    +0.020 A 
ATOM     32  C   UNL     1       8.848  11.795  -0.029  0.00  0.00    +0.005 A 
ATOM     33  C   UNL     1       8.420  10.880   0.926  0.00  0.00    +0.044 A 
ENDBRANCH  26  28
ENDBRANCH   9  26
TORSDOF 6
