REMARK  Name = 
REMARK  48 active torsions:
REMARK  status: ('A' for Active; 'I' for Inactive)
REMARK    1  A    between atoms: C_2  and  C_3
REMARK    2  A    between atoms: C_3  and  C_4
REMARK    3  A    between atoms: C_4  and  C_5
REMARK    4  A    between atoms: C_5  and  C_6
REMARK    5  A    between atoms: C_6  and  C_7
REMARK    6  A    between atoms: C_7  and  C_8
REMARK    7  A    between atoms: C_8  and  C_9
REMARK    8  A    between atoms: C_9  and  C_10
REMARK    9  A    between atoms: C_10  and  C_11
REMARK   10  A    between atoms: C_11  and  N_12
REMARK   11  A    between atoms: N_12  and  C_13
REMARK   12  A    between atoms: C_13  and  C_14
REMARK   13  A    between atoms: C_14  and  N_15
REMARK   14  A    between atoms: N_15  and  C_16
REMARK   15  A    between atoms: C_16  and  C_17
REMARK   16  A    between atoms: C_19  and  O_21
REMARK   17  A    between atoms: O_21  and  C_22
REMARK   18  A    between atoms: C_24  and  O_26
REMARK   19  A    between atoms: C_27  and  O_29
REMARK   20  A    between atoms: C_30  and  C_32
REMARK   21  A    between atoms: C_32  and  O_33
REMARK   22  A    between atoms: C_35  and  O_37
REMARK   23  A    between atoms: O_37  and  C_38
REMARK   24  A    between atoms: C_48  and  O_50
REMARK   25  A    between atoms: C_51  and  N_53
REMARK   26  A    between atoms: C_54  and  C_56
REMARK   27  A    between atoms: C_56  and  C_58
REMARK   28  A    between atoms: C_56  and  N_62
REMARK   29  A    between atoms: C_58  and  C_59
REMARK   30  A    between atoms: C_59  and  C_60
REMARK   31  A    between atoms: C_59  and  C_61
REMARK   32  A    between atoms: N_62  and  C_63
REMARK   33  A    between atoms: CA_67  and  CB_69
REMARK   34  A    between atoms: CB_69  and  CG_70
REMARK   35  A    between atoms: C_89  and  O_91
REMARK   36  A    between atoms: C_105  and  O_106
REMARK   37  A    between atoms: C_112  and  O_113
REMARK   38  A    between atoms: C_114  and  C_115
REMARK   39  A    between atoms: C_115  and  N_116
REMARK   40  A    between atoms: N_116  and  C_117
REMARK   41  A    between atoms: C_117  and  P_118
REMARK   42  A    between atoms: P_118  and  O_119
REMARK   43  A    between atoms: P_118  and  O_120
REMARK   44  A    between atoms: C_122  and  O_123
REMARK   45  A    between atoms: C_124  and  C_129
REMARK   46  A    between atoms: C_129  and  O_130
REMARK   47  A    between atoms: C_134  and  C_136
REMARK   48  A    between atoms: C_137  and  O_139
REMARK                            x       y       z     vdW  Elec       q    Type
REMARK                         _______ _______ _______ _____ _____    ______ ____
ROOT
ATOM      1 CL   UNL     1       0.000   0.000   0.000  0.00  0.00    -0.145 Cl
ATOM      2  H   UNL     1       2.580   0.000   0.000  0.00  0.00    +0.145 HD
ENDROOT
TORSDOF 0
REMARK  Name = 
REMARK  48 active torsions:
REMARK  status: ('A' for Active; 'I' for Inactive)
REMARK    1  A    between atoms: C_2  and  C_3
REMARK    2  A    between atoms: C_3  and  C_4
REMARK    3  A    between atoms: C_4  and  C_5
REMARK    4  A    between atoms: C_5  and  C_6
REMARK    5  A    between atoms: C_6  and  C_7
REMARK    6  A    between atoms: C_7  and  C_8
REMARK    7  A    between atoms: C_8  and  C_9
REMARK    8  A    between atoms: C_9  and  C_10
REMARK    9  A    between atoms: C_10  and  C_11
REMARK   10  A    between atoms: C_11  and  N_12
REMARK   11  A    between atoms: N_12  and  C_13
REMARK   12  A    between atoms: C_13  and  C_14
REMARK   13  A    between atoms: C_14  and  N_15
REMARK   14  A    between atoms: N_15  and  C_16
REMARK   15  A    between atoms: C_16  and  C_17
REMARK   16  A    between atoms: C_19  and  O_21
REMARK   17  A    between atoms: O_21  and  C_22
REMARK   18  A    between atoms: C_24  and  O_26
REMARK   19  A    between atoms: C_27  and  O_29
REMARK   20  A    between atoms: C_30  and  C_32
REMARK   21  A    between atoms: C_32  and  O_33
REMARK   22  A    between atoms: C_35  and  O_37
REMARK   23  A    between atoms: O_37  and  C_38
REMARK   24  A    between atoms: C_48  and  O_50
REMARK   25  A    between atoms: C_51  and  N_53
REMARK   26  A    between atoms: C_54  and  C_56
REMARK   27  A    between atoms: C_56  and  C_58
REMARK   28  A    between atoms: C_56  and  N_62
REMARK   29  A    between atoms: C_58  and  C_59
REMARK   30  A    between atoms: C_59  and  C_60
REMARK   31  A    between atoms: C_59  and  C_61
REMARK   32  A    between atoms: N_62  and  C_63
REMARK   33  A    between atoms: CA_67  and  CB_69
REMARK   34  A    between atoms: CB_69  and  CG_70
REMARK   35  A    between atoms: C_89  and  O_91
REMARK   36  A    between atoms: C_105  and  O_106
REMARK   37  A    between atoms: C_112  and  O_113
REMARK   38  A    between atoms: C_114  and  C_115
REMARK   39  A    between atoms: C_115  and  N_116
REMARK   40  A    between atoms: N_116  and  C_117
REMARK   41  A    between atoms: C_117  and  P_118
REMARK   42  A    between atoms: P_118  and  O_119
REMARK   43  A    between atoms: P_118  and  O_120
REMARK   44  A    between atoms: C_122  and  O_123
REMARK   45  A    between atoms: C_124  and  C_129
REMARK   46  A    between atoms: C_129  and  O_130
REMARK   47  A    between atoms: C_134  and  C_136
REMARK   48  A    between atoms: C_137  and  O_139
REMARK                            x       y       z     vdW  Elec       q    Type
REMARK                         _______ _______ _______ _____ _____    ______ ____
ROOT
ATOM      1  C   UNK A   1      -0.000  -0.000  -0.000  0.00  0.00    +0.208 A 
ATOM      2  C   UNK A   1       0.000  -0.000   0.000  0.00  0.00    +0.174 A 
ATOM      3  O   UNK A   1       0.000  -0.000   0.000  0.00  0.00    -0.451 OA
ATOM      4  C   UNK A   1       0.000  -0.000   0.000  0.00  0.00    +0.147 A 
ATOM      5  C   UNK A   1       0.000  -0.000   0.000  0.00  0.00    +0.083 A 
ATOM      6 CL   UNK A   1       0.000  -0.000   0.000  0.00  0.00    -0.080 Cl
ATOM      7  C   UNK A   1       0.000  -0.000   0.000  0.00  0.00    +0.030 A 
ATOM      8  C   UNK A   2       0.000  -0.000   0.000  0.00  0.00    -0.015 A 
ATOM      9  C   UNK A   2      -0.000  -0.000  -0.000  0.00  0.00    +0.174 C 
ATOM     10  C   UNK A   2      -0.000  -0.000  -0.000  0.00  0.00    +0.192 C 
ATOM     11  C   UNK A   2       0.000  -0.000   0.000  0.00  0.00    +0.237 C 
ATOM     12  O   UNK A   2       0.000  -0.000   0.000  0.00  0.00    -0.274 OA
ATOM     13  N   UNK A   1      -0.000  -0.000  -0.000  0.00  0.00    -0.297 N 
ATOM     14  H   UNK A   1       0.000   0.000   0.000  0.00  0.00    +0.150 HD
ATOM     15  C   UNK A   1      -0.000  -0.000  -0.000  0.00  0.00    +0.213 C 
ATOM     16  C   UNK A   1       0.000  -0.000   0.000  0.00  0.00    -0.002 A 
ATOM     17  C   UNK A   1       0.000  -0.000   0.000  0.00  0.00    +0.052 A 
ATOM     18  C   UNK A   1       0.000  -0.000   0.000  0.00  0.00    +0.125 A 
ATOM     19  C   UNK A   1      -0.000  -0.000  -0.000  0.00  0.00    +0.050 A 
ATOM     20  C   UNK A   1      -0.000  -0.000  -0.000  0.00  0.00    +0.133 A 
ATOM     21  C   UNK A   1       0.000  -0.000   0.000  0.00  0.00    +0.033 A 
ATOM     22  C   UNK A   1      -0.000  -0.000  -0.000  0.00  0.00    +0.028 A 
ATOM     23  C   UNK A   1       0.000  -0.000   0.000  0.00  0.00    +0.018 A 
ATOM     24  C   UNK A   1      -0.000  -0.000  -0.000  0.00  0.00    -0.018 A 
ATOM     25  C   UNK A   1       0.000  -0.000   0.000  0.00  0.00    +0.009 A 
ATOM     26  C   UNK A   1       0.000  -0.000   0.000  0.00  0.00    +0.046 A 
ATOM     27  C   UNK A   1      -0.000  -0.000  -0.000  0.00  0.00    +0.190 C 
ATOM     28  N   UNK A   1      -0.000  -0.000  -0.000  0.00  0.00    -0.299 N 
ATOM     29  H   UNK A   1       0.000   0.000   0.000  0.00  0.00    +0.150 HD
ATOM     30  C   UNK A   1       0.000  -0.000   0.000  0.00  0.00    +0.239 C 
ATOM     31  O   UNK A   1       0.000  -0.000   0.000  0.00  0.00    -0.273 OA
ATOM     32  C   UNK A   1       0.000  -0.000   0.000  0.00  0.00    +0.190 C 
ATOM     33  C   UNK A   1      -0.000  -0.000  -0.000  0.00  0.00    -0.011 A 
ATOM     34  C   UNK A   1      -0.000  -0.000  -0.000  0.00  0.00    +0.056 A 
ATOM     35  N   UNK A   1      -0.000  -0.000  -0.000  0.00  0.00    -0.299 N 
ATOM     36  H   UNK A   1       0.000   0.000   0.000  0.00  0.00    +0.150 HD
ATOM     37  C   UNK A   1      -0.000  -0.000  -0.000  0.00  0.00    +0.235 C 
ATOM     38  O   UNK A   1       0.000  -0.000   0.000  0.00  0.00    -0.274 OA
ATOM     39  C   UNK A   1       0.000  -0.000   0.000  0.00  0.00    +0.168 C 
ATOM     40  N   UNK A   1      -0.000  -0.000  -0.000  0.00  0.00    -0.302 N 
ATOM     41  H   UNK A   1       0.000   0.000   0.000  0.00  0.00    +0.150 HD
ATOM     42  C   UNK A   1      -0.000  -0.000  -0.000  0.00  0.00    +0.237 C 
ATOM     43  O   UNK A   1       0.000  -0.000   0.000  0.00  0.00    -0.274 OA
ATOM     44  C   UNK A   1      -0.000  -0.000  -0.000  0.00  0.00    +0.192 C 
ATOM     45  C   UNK A   1      -0.000  -0.000  -0.000  0.00  0.00    +0.174 C 
ATOM     46  C   UNK A   1       0.000  -0.000   0.000  0.00  0.00    -0.015 A 
ATOM     47  C   UNK A   1       0.000  -0.000   0.000  0.00  0.00    +0.030 A 
ATOM     48  C   UNK A   1       0.000  -0.000   0.000  0.00  0.00    +0.083 A 
ATOM     49 CL   UNK A   1       0.000  -0.000   0.000  0.00  0.00    -0.080 Cl
ATOM     50  C   UNK A   1       0.000  -0.000   0.000  0.00  0.00    +0.147 A 
ATOM     51  C   UNK A   1       0.000  -0.000   0.000  0.00  0.00    +0.048 A 
ATOM     52  O   UNK A   1       0.000  -0.000   0.000  0.00  0.00    -0.451 OA
ATOM     53  C   UNK A   1       0.000  -0.000   0.000  0.00  0.00    +0.010 A 
ATOM     54  C   UNK A   1       0.000  -0.000   0.000  0.00  0.00    +0.239 C 
ATOM     55  O   UNK A   1       0.000  -0.000   0.000  0.00  0.00    -0.273 OA
ATOM     56  C   UNK A   1       0.000  -0.000   0.000  0.00  0.00    +0.125 A 
ATOM     57  N   UNK A   2      -0.000  -0.000  -0.000  0.00  0.00    -0.300 N 
ATOM     58  H   UNK A   2       0.000   0.000   0.000  0.00  0.00    +0.150 HD
ATOM     59  C   UNK A   2       0.000  -0.000   0.000  0.00  0.00    +0.010 A 
ATOM     60  C   UNK A   2       0.000  -0.000   0.000  0.00  0.00    +0.048 A 
ATOM     61  C   UNK A   1       0.000  -0.000   0.000  0.00  0.00    +0.056 A 
ATOM     62  C   UNK A   1       0.000  -0.000   0.000  0.00  0.00    +0.174 A 
ENDROOT
BRANCH  44  63
ATOM     63  N   UNK A   1      -0.000  -0.000  -0.000  0.00  0.00    -0.300 N 
ATOM     64  H   UNK A   1      -0.000  -0.000  -0.000  0.00  0.00    +0.150 HD
ATOM     65  C   UNK A   1      -0.000  -0.000  -0.000  0.00  0.00    +0.231 C 
ATOM     66  O   UNK A   1      -0.000  -0.000  -0.000  0.00  0.00    -0.274 OA
BRANCH  65  67
ATOM     67  C   UNK A   1      -0.000  -0.000  -0.000  0.00  0.00    +0.140 C 
BRANCH  67  68
ATOM     68  N   UNK A   1      -0.000  -0.000  -0.000  0.00  0.00    -0.309 NA
ATOM     69  H   UNK A   1      -0.000  -0.000  -0.000  0.00  0.00    +0.122 HD
ATOM     70  C   ACE A   0      -0.000  -0.000  -0.000  0.00  0.00    +0.101 C 
ENDBRANCH  67  68
BRANCH  67  71
ATOM     71  C   UNK A   1      -0.000  -0.000  -0.000  0.00  0.00    +0.031 C 
BRANCH  71  72
ATOM     72  C   UNK A   1      -0.000  -0.000  -0.000  0.00  0.00    -0.015 C 
ATOM     73  C   UNK A   1      -0.000  -0.000  -0.000  0.00  0.00    +0.007 C 
ATOM     74  C   UNK A   1      -0.000  -0.000  -0.000  0.00  0.00    +0.007 C 
ENDBRANCH  71  72
ENDBRANCH  67  71
ENDBRANCH  65  67
ENDBRANCH  44  63
BRANCH  18  75
ATOM     75  O   UNK A   1       0.000  -0.000   0.000  0.00  0.00    -0.506 OA
ATOM     76  H   UNK A   1       0.000   0.000   0.000  0.00  0.00    +0.292 HD
ENDBRANCH  18  75
BRANCH  20  77
ATOM     77  O   UNK A   1       0.000  -0.000   0.000  0.00  0.00    -0.506 OA
ATOM     78  H   UNK A   1       0.000   0.000   0.000  0.00  0.00    +0.292 HD
ENDBRANCH  20  77
BRANCH  45  79
ATOM     79  O   UNK A   1      -0.000  -0.000  -0.000  0.00  0.00    -0.385 OA
ATOM     80  H   UNK A   1       0.000   0.000   0.000  0.00  0.00    +0.210 HD
ENDBRANCH  45  79
BRANCH  56  81
ATOM     81  O   UNK A   1       0.000  -0.000   0.000  0.00  0.00    -0.506 OA
ATOM     82  H   UNK A   1       0.000   0.000   0.000  0.00  0.00    +0.292 HD
ENDBRANCH  56  81
BRANCH   9  83
ATOM     83  O   UNK A   2      -0.000  -0.000  -0.000  0.00  0.00    -0.385 OA
ATOM     84  H   UNK A   2       0.000   0.000   0.000  0.00  0.00    +0.210 HD
ENDBRANCH   9  83
BRANCH  15  85
ATOM     85  C   UNK A   1      -0.000  -0.000  -0.000  0.00  0.00    +0.330 C 
ATOM     86  O   UNK A   1      -0.000  -0.000  -0.000  0.00  0.00    -0.249 OA
BRANCH  85  87
ATOM     87  O   UNK A   1      -0.000  -0.000  -0.000  0.00  0.00    -0.479 OA
ATOM     88  H   UNK A   1      -0.000  -0.000  -0.000  0.00  0.00    +0.295 HD
ENDBRANCH  85  87
ENDBRANCH  15  85
BRANCH  39  89
ATOM     89  C   UNK A   1      -0.000  -0.000  -0.000  0.00  0.00    +0.127 C 
BRANCH  89  90
ATOM     90  C   UNK A   1       0.000  -0.000   0.000  0.00  0.00    +0.213 C 
ATOM     91  O   UNK A   1       0.000  -0.000   0.000  0.00  0.00    -0.276 OA
ATOM     92  N   UNK A   1       0.000  -0.000   0.000  0.00  0.00    -0.329 N 
ATOM     93  H   UNK A   1       0.000  -0.000   0.000  0.00  0.00    +0.145 HD
ATOM     94  H   UNK A   1       0.000  -0.000   0.000  0.00  0.00    +0.145 HD
ENDBRANCH  89  90
ENDBRANCH  39  89
BRANCH   1  95
ATOM     95  O   UNK A   1      -0.000  -0.000  -0.000  0.00  0.00    -0.453 OA
BRANCH  95  97
ATOM     96  C   UNK A   1      -0.000  -0.000  -0.000  0.00  0.00    +0.220 C 
ATOM     97  C   UNK A   1       0.000  -0.000   0.000  0.00  0.00    +0.340 C 
ATOM     98  O   UNK A   1      -0.000  -0.000  -0.000  0.00  0.00    -0.331 OA
ATOM     99  C   UNK A   1      -0.000  -0.000  -0.000  0.00  0.00    +0.179 C 
ATOM    100  C   UNK A   1      -0.000  -0.000  -0.000  0.00  0.00    +0.177 C 
ATOM    101  C   UNK A   1      -0.000  -0.000  -0.000  0.00  0.00    +0.180 C 
BRANCH 100 102
ATOM    102  O   UNK A   1      -0.000  -0.000  -0.000  0.00  0.00    -0.386 OA
ATOM    103  H   UNK A   1      -0.000  -0.000  -0.000  0.00  0.00    +0.210 HD
ENDBRANCH 100 102
BRANCH 101 104
ATOM    104  O   UNK A   1      -0.000  -0.000  -0.000  0.00  0.00    -0.386 OA
ATOM    105  H   UNK A   1      -0.000  -0.000  -0.000  0.00  0.00    +0.210 HD
ENDBRANCH 101 104
BRANCH  99 106
ATOM    106  C   UNK A   1      -0.000  -0.000  -0.000  0.00  0.00    +0.190 C 
BRANCH 106 107
ATOM    107  O   UNK A   1      -0.000  -0.000  -0.000  0.00  0.00    -0.392 OA
ATOM    108  H   UNK A   1      -0.000  -0.000  -0.000  0.00  0.00    +0.210 HD
ENDBRANCH 106 107
ENDBRANCH  99 106
BRANCH  96 109
ATOM    109  O   UNK A   1      -0.000  -0.000  -0.000  0.00  0.00    -0.339 OA
BRANCH 109 115
ATOM    110  C   UNK A   1      -0.000  -0.000  -0.000  0.00  0.00    +0.049 C 
ATOM    111  C   UNK A   1      -0.000  -0.000  -0.000  0.00  0.00    +0.163 C 
ATOM    112  C   UNK A   1      -0.000  -0.000  -0.000  0.00  0.00    +0.148 C 
ATOM    113  C   UNK A   1      -0.000  -0.000  -0.000  0.00  0.00    +0.041 C 
ATOM    114  O   UNK A   1      -0.000  -0.000  -0.000  0.00  0.00    -0.346 OA
ATOM    115  C   UNK A   1      -0.000  -0.000  -0.000  0.00  0.00    +0.253 C 
ATOM    116  C   UNK A   1      -0.000  -0.000  -0.000  0.00  0.00    +0.085 C 
ATOM    117  C   UNK A   1      -0.000  -0.000  -0.000  0.00  0.00    +0.030 C 
BRANCH 110 118
ATOM    118  N   UNK A   1      -0.000  -0.000  -0.000  0.00  0.00    -0.307 NA
ATOM    119  H   UNK A   1      -0.000  -0.000  -0.000  0.00  0.00    +0.123 HD
BRANCH 118 120
ATOM    120  C   UNK A   1      -0.000  -0.000  -0.000  0.00  0.00    +0.096 C 
BRANCH 120 121
ATOM    121  C   UNK A   1      -0.000  -0.000  -0.000  0.00  0.00    +0.096 C 
BRANCH 121 122
ATOM    122  N   UNK A   1      -0.000  -0.000  -0.000  0.00  0.00    -0.315 NA
ATOM    123  H   UNK A   1      -0.000  -0.000  -0.000  0.00  0.00    +0.122 HD
BRANCH 122 124
ATOM    124  C   UNK A   1      -0.000  -0.000  -0.000  0.00  0.00    +0.081 C 
BRANCH 124 125
ATOM    125  C   UNK A   1      -0.000  -0.000  -0.000  0.00  0.00    +0.015 C 
BRANCH 125 126
ATOM    126  C   UNK A   1      -0.000  -0.000  -0.000  0.00  0.00    +0.001 C 
BRANCH 126 127
ATOM    127  C   UNK A   1      -0.000  -0.000  -0.000  0.00  0.00    +0.000 C 
BRANCH 127 128
ATOM    128  C   UNK A   1      -0.000  -0.000  -0.000  0.00  0.00    +0.000 C 
BRANCH 128 129
ATOM    129  C   UNK A   1      -0.000  -0.000  -0.000  0.00  0.00    -0.000 C 
BRANCH 129 130
ATOM    130  C   UNK A   1      -0.000  -0.000  -0.000  0.00  0.00    -0.000 C 
BRANCH 130 131
ATOM    131  C   UNK A   1      -0.000  -0.000  -0.000  0.00  0.00    -0.000 C 
BRANCH 131 133
ATOM    132  C   UNK A   1      -0.000  -0.000  -0.000  0.00  0.00    +0.004 C 
ATOM    133  C   UNK A   1      -0.000  -0.000  -0.000  0.00  0.00    -0.003 C 
ENDBRANCH 131 133
ENDBRANCH 130 131
ENDBRANCH 129 130
ENDBRANCH 128 129
ENDBRANCH 127 128
ENDBRANCH 126 127
ENDBRANCH 125 126
ENDBRANCH 124 125
ENDBRANCH 122 124
ENDBRANCH 121 122
ENDBRANCH 120 121
ENDBRANCH 118 120
ENDBRANCH 110 118
BRANCH 111 134
ATOM    134  O   UNK A   1      -0.000  -0.000  -0.000  0.00  0.00    -0.387 OA
ATOM    135  H   UNK A   1      -0.000  -0.000  -0.000  0.00  0.00    +0.210 HD
ENDBRANCH 111 134
ENDBRANCH 109 115
ENDBRANCH  96 109
ENDBRANCH  95  97
ENDBRANCH   1  95
BRANCH  19 136
ATOM    136  C   UNK A   1       0.000  -0.000   0.000  0.00  0.00    +0.124 C 
BRANCH 136 137
ATOM    137  N   UNK A   1      -0.000  -0.000  -0.000  0.00  0.00    -0.302 NA
ATOM    138  H   UNK A   1       0.000  -0.000   0.000  0.00  0.00    +0.123 HD
BRANCH 137 139
ATOM    139  C   UNK A   1       0.000  -0.000   0.000  0.00  0.00    +0.209 C 
BRANCH 139 140
ATOM    140  P   UNK A   1      -0.000  -0.000  -0.000  0.00  0.00    +0.341 P 
ATOM    141  O   UNK A   1      -0.000  -0.000  -0.000  0.00  0.00    -0.257 OA
BRANCH 140 142
ATOM    142  O   UNK A   1      -0.000  -0.000  -0.000  0.00  0.00    -0.323 OA
ATOM    143  H   UNK A   1      -0.000  -0.000  -0.000  0.00  0.00    +0.220 HD
ENDBRANCH 140 142
BRANCH 140 144
ATOM    144  O   UNK A   1      -0.000  -0.000  -0.000  0.00  0.00    -0.323 OA
ATOM    145  H   UNK A   1      -0.000  -0.000  -0.000  0.00  0.00    +0.220 HD
ENDBRANCH 140 144
ENDBRANCH 139 140
ENDBRANCH 137 139
ENDBRANCH 136 137
ENDBRANCH  19 136
TORSDOF 42
