REMARK  Name = 
REMARK  9 active torsions:
REMARK  status: ('A' for Active; 'I' for Inactive)
REMARK    1  A    between atoms: C_2  and  C_3
REMARK    2  A    between atoms: C_2  and  C_4
REMARK    3  A    between atoms: C_2  and  C_17
REMARK    4  A    between atoms: C_6  and  C_9
REMARK    5  A    between atoms: C_12  and  C_15
REMARK    6  A    between atoms: C_17  and  O_18
REMARK    7  A    between atoms: C_17  and  C_19
REMARK    8  A    between atoms: C_17  and  C_25
REMARK    9  A    between atoms: C_19  and  N_20
REMARK                            x       y       z     vdW  Elec       q    Type
REMARK                         _______ _______ _______ _____ _____    ______ ____
ROOT
ATOM      1  C   UNL     1       2.580  -0.177  -1.504  0.00  0.00    +0.121 C 
ENDROOT
BRANCH   1   2
ATOM      2  C   UNL     1       4.129  -0.066  -1.498  0.00  0.00    +0.024 A 
ATOM      3  C   UNL     1       4.774   0.968  -0.778  0.00  0.00    +0.047 A 
ATOM      4  C   UNL     1       6.165   1.003  -0.639  0.00  0.00    +0.124 A 
ATOM      5  F   UNL     1       6.727   1.992   0.067  0.00  0.00    -0.205 F 
ATOM      6  C   UNL     1       6.967   0.027  -1.205  0.00  0.00    +0.041 A 
ATOM      7  C   UNL     1       6.370  -0.950  -1.990  0.00  0.00    +0.041 A 
ATOM      8  C   UNL     1       4.980  -0.962  -2.166  0.00  0.00    +0.130 A 
ATOM      9  F   UNL     1       4.495  -1.864  -3.026  0.00  0.00    -0.205 F 
ENDBRANCH   1   2
BRANCH   1  10
ATOM     10  C   UNL     1       1.944  -1.515  -2.075  0.00  0.00    +0.080 C 
ATOM     11  C   UNL     1       2.424  -2.808  -1.365  0.00  0.00    +0.018 C 
BRANCH  10  12
ATOM     12  C   UNL     1       0.407  -1.591  -1.992  0.00  0.00    +0.085 A 
ATOM     13  S   UNL     1      -0.528  -1.563  -3.443  0.00  0.00    -0.080 S 
ATOM     14  C   UNL     1      -1.877  -2.176  -2.580  0.00  0.00    +0.075 A 
ATOM     15  C   UNL     1      -1.580  -2.291  -1.236  0.00  0.00    +0.078 A 
ATOM     16  N   UNL     1      -0.279  -1.923  -0.908  0.00  0.00    -0.244 NA
BRANCH  15  17
ATOM     17  C   UNL     1      -2.512  -2.845  -0.249  0.00  0.00    +0.001 A 
ATOM     18  C   UNL     1      -2.033  -3.578   0.847  0.00  0.00    +0.011 A 
ATOM     19  C   UNL     1      -2.920  -4.167   1.764  0.00  0.00    +0.019 A 
ATOM     20  C   UNL     1      -4.302  -4.024   1.607  0.00  0.00    +0.052 A 
ATOM     21  C   UNL     1      -4.790  -3.284   0.530  0.00  0.00    +0.019 A 
ATOM     22  C   UNL     1      -3.901  -2.701  -0.387  0.00  0.00    +0.011 A 
BRANCH  20  23
ATOM     23  C   UNL     1      -5.203  -4.633   2.549  0.00  0.00    +0.099 C 
ATOM     24  N   UNL     1      -5.939  -5.128   3.299  0.00  0.00    -0.191 NA
ENDBRANCH  20  23
ENDBRANCH  15  17
ENDBRANCH  10  12
ENDBRANCH   1  10
BRANCH   1  25
ATOM     25  O   UNL     1       2.196  -0.151  -0.101  0.00  0.00    -0.381 OA
ATOM     26  H   UNL     1       2.590   0.607   0.355  0.00  0.00    +0.211 HD
ENDBRANCH   1  25
BRANCH   1  27
ATOM     27  C   UNL     1       1.965   1.104  -2.150  0.00  0.00    +0.185 C 
BRANCH  27  28
ATOM     28  N   UNL     1       2.459   1.485  -3.453  0.00  0.00    -0.249 N 
ATOM     29  N   UNL     1       2.314   0.684  -4.520  0.00  0.00    -0.158 NA
ATOM     30  C   UNL     1       2.804   1.454  -5.497  0.00  0.00    +0.244 A 
ATOM     31  N   UNL     1       3.238   2.687  -5.102  0.00  0.00    -0.223 NA
ATOM     32  C   UNL     1       2.998   2.685  -3.812  0.00  0.00    +0.219 A 
ENDBRANCH  27  28
ENDBRANCH   1  27
TORSDOF 8
