REMARK  Name = 
REMARK  6 active torsions:
REMARK  status: ('A' for Active; 'I' for Inactive)
REMARK    1  A    between atoms: C_1  and  O_2
REMARK    2  A    between atoms: O_2  and  C_3
REMARK    3  A    between atoms: C_10  and  C_11
REMARK    4  A    between atoms: C_11  and  C_12
REMARK    5  A    between atoms: C_12  and  N_13
REMARK    6  A    between atoms: C_14  and  C_15
REMARK                            x       y       z     vdW  Elec       q    Type
REMARK                         _______ _______ _______ _____ _____    ______ ____
ROOT
ATOM      1  C   UNL     1       3.132   0.804  -0.842  0.00  0.00    +0.121 A 
ATOM      2  C   UNL     1       3.894   0.288  -1.881  0.00  0.00    +0.046 A 
ATOM      3  C   UNL     1       4.430   1.151  -2.838  0.00  0.00    +0.012 A 
ATOM      4  C   UNL     1       4.212   2.537  -2.768  0.00  0.00    -0.017 A 
ATOM      5  C   UNL     1       4.709   3.376  -3.774  0.00  0.00    +0.008 A 
ATOM      6  C   UNL     1       4.496   4.748  -3.724  0.00  0.00    +0.001 A 
ATOM      7  C   UNL     1       3.813   5.312  -2.648  0.00  0.00    +0.004 A 
ATOM      8  C   UNL     1       3.305   4.510  -1.610  0.00  0.00    -0.038 A 
ATOM      9  C   UNL     1       3.492   3.094  -1.677  0.00  0.00    -0.011 A 
ATOM     10  C   UNL     1       2.984   2.187  -0.719  0.00  0.00    +0.054 A 
ENDROOT
BRANCH   1  12
ATOM     11  C   UNL     1       1.316   0.285   0.555  0.00  0.00    +0.277 C 
ATOM     12  O   UNL     1       2.584  -0.105   0.024  0.00  0.00    -0.495 OA
ENDBRANCH   1  12
BRANCH   8  13
ATOM     13  C   UNL     1       2.659   5.163  -0.393  0.00  0.00    +0.054 C 
BRANCH  13  14
ATOM     14  C   UNL     1       1.855   6.449  -0.626  0.00  0.00    +0.109 C 
BRANCH  14  15
ATOM     15  N   UNL     1       1.294   6.998   0.602  0.00  0.00    -0.315 N 
ATOM     16  H   UNL     1       1.536   7.949   0.846  0.00  0.00    +0.149 HD
ATOM     17  C   UNL     1       0.289   6.370   1.303  0.00  0.00    +0.210 C 
ATOM     18  O   UNL     1      -0.168   5.270   1.008  0.00  0.00    -0.276 OA
ATOM     19  C   UNL     1      -0.210   7.139   2.497  0.00  0.00    +0.109 C 
ENDBRANCH  14  15
ENDBRANCH  13  14
ENDBRANCH   8  13
TORSDOF 4
