REMARK  Name = 
REMARK  3 active torsions:
REMARK  status: ('A' for Active; 'I' for Inactive)
REMARK    1  A    between atoms: O_1  and  C_2
REMARK    2  A    between atoms: C_2  and  C_4
REMARK    3  A    between atoms: C_11  and  C_13
REMARK                            x       y       z     vdW  Elec       q    Type
REMARK                         _______ _______ _______ _____ _____    ______ ____
ROOT
ATOM      1  C   UNL     1       3.205   1.246   0.377  0.00  0.00    +0.062 A 
ATOM      2  C   UNL     1       2.612   2.469   0.008  0.00  0.00    +0.017 A 
ATOM      3  C   UNL     1       3.225   3.690   0.327  0.00  0.00    +0.032 A 
ATOM      4  C   UNL     1       4.446   3.659   1.012  0.00  0.00    +0.110 A 
ATOM      5  N   UNL     1       5.259   4.673   1.433  0.00  0.00    -0.209 NA
ATOM      6  C   UNL     1       6.247   4.062   2.065  0.00  0.00    +0.231 A 
ATOM      7  O   UNL     1       6.142   2.689   2.060  0.00  0.00    -0.435 OA
ATOM      8  C   UNL     1       4.993   2.440   1.366  0.00  0.00    +0.156 A 
ATOM      9  C   UNL     1       4.431   1.204   1.064  0.00  0.00    +0.063 A 
ENDROOT
BRANCH   6  10
ATOM     10  C   UNL     1       7.343   4.646   2.846  0.00  0.00    +0.073 A 
ATOM     11  C   UNL     1       8.622   4.054   2.924  0.00  0.00    +0.055 A 
ATOM     12 CL   UNL     1       9.082   2.655   2.009  0.00  0.00    -0.083 Cl
ATOM     13  C   UNL     1       9.632   4.607   3.731  0.00  0.00    +0.021 A 
ATOM     14  C   UNL     1       9.402   5.770   4.456  0.00  0.00    +0.003 A 
ATOM     15  C   UNL     1       8.166   6.394   4.364  0.00  0.00    +0.021 A 
ATOM     16  C   UNL     1       7.147   5.843   3.570  0.00  0.00    +0.055 A 
ATOM     17 CL   UNL     1       5.649   6.721   3.583  0.00  0.00    -0.083 Cl
ENDBRANCH   6  10
BRANCH   1  18
ATOM     18  C   UNL     1       2.578  -0.048   0.011  0.00  0.00    +0.337 C 
ATOM     19  O   UNL     1       3.228  -1.042  -0.269  0.00  0.00    -0.245 OA
BRANCH  18  20
ATOM     20  O   UNL     1       1.229  -0.037   0.054  0.00  0.00    -0.477 OA
ATOM     21  H   UNL     1       0.828   0.752   0.462  0.00  0.00    +0.295 HD
ENDBRANCH  18  20
ENDBRANCH   1  18
TORSDOF 3
