REMARK  Name = 
REMARK  7 active torsions:
REMARK  status: ('A' for Active; 'I' for Inactive)
REMARK    1  A    between atoms: C_2  and  N_3
REMARK    2  A    between atoms: C_2  and  C_4
REMARK    3  A    between atoms: C_2  and  C_6
REMARK    4  A    between atoms: C_4  and  C_5
REMARK    5  A    between atoms: C_12  and  C_14
REMARK    6  A    between atoms: N_16  and  C_17
REMARK    7  A    between atoms: C_17  and  C_18
REMARK                            x       y       z     vdW  Elec       q    Type
REMARK                         _______ _______ _______ _____ _____    ______ ____
ROOT
ATOM      1  C   UNL     1       2.755  -1.087  -1.107  0.00  0.00    +0.233 C 
ATOM      2  N   UNL     1       4.102  -1.117  -1.403  0.00  0.00    -0.289 N 
ATOM      3  C   UNL     1       4.796  -2.395  -1.520  0.00  0.00    +0.162 C 
ATOM      4  C   UNL     1       6.108  -2.070  -2.247  0.00  0.00    +0.033 C 
ATOM      5  C   UNL     1       6.038  -0.574  -2.556  0.00  0.00    +0.021 C 
ATOM      6  C   UNL     1       5.034  -0.021  -1.560  0.00  0.00    +0.108 C 
ATOM      7  O   UNL     1       2.111  -2.140  -1.049  0.00  0.00    -0.274 OA
ENDROOT
BRANCH   3   8
ATOM      8  C   UNL     1       5.122  -2.953  -0.118  0.00  0.00    +0.234 C 
ATOM      9  N   UNL     1       5.367  -4.313  -0.085  0.00  0.00    -0.310 N 
ATOM     10  H   UNL     1       4.974  -4.887  -0.820  0.00  0.00    +0.149 HD
ATOM     11  O   UNL     1       5.278  -2.231   0.867  0.00  0.00    -0.274 OA
BRANCH   9  12
ATOM     12  C   UNL     1       5.635  -4.956   1.183  0.00  0.00    +0.139 C 
BRANCH  12  13
ATOM     13  C   UNL     1       6.461  -6.205   1.019  0.00  0.00    -0.029 A 
ATOM     14  C   UNL     1       7.748  -6.135   0.460  0.00  0.00    +0.025 A 
ATOM     15  C   UNL     1       8.541  -7.279   0.374  0.00  0.00    +0.041 A 
ATOM     16 CL   UNL     1      10.121  -7.174  -0.300  0.00  0.00    -0.084 Cl
ATOM     17  C   UNL     1       8.069  -8.503   0.841  0.00  0.00    +0.020 A 
ATOM     18  C   UNL     1       6.791  -8.584   1.394  0.00  0.00    +0.002 A 
ATOM     19  C   UNL     1       5.991  -7.442   1.482  0.00  0.00    +0.005 A 
ENDBRANCH  12  13
ENDBRANCH   9  12
ENDBRANCH   3   8
BRANCH   1  20
ATOM     20  C   UNL     1       2.099   0.293  -0.836  0.00  0.00    +0.138 C 
BRANCH  20  21
ATOM     21  N   UNL     1       2.305   0.657   0.576  0.00  0.00    -0.320 NA
ATOM     22  H   UNL     1       3.299   0.638   0.799  0.00  0.00    +0.119 HD
ATOM     23  H   UNL     1       1.969   1.600   0.752  0.00  0.00    +0.119 HD
ENDBRANCH  20  21
BRANCH  20  24
ATOM     24  C   UNL     1       0.602   0.230  -1.182  0.00  0.00    +0.024 C 
ATOM     25  C   UNL     1      -0.123   1.562  -1.040  0.00  0.00    +0.006 C 
ENDBRANCH  20  24
ENDBRANCH   1  20
TORSDOF 6
