REMARK  Name = 
REMARK  12 active torsions:
REMARK  status: ('A' for Active; 'I' for Inactive)
REMARK    1  A    between atoms: N_2  and  C_4
REMARK    2  A    between atoms: C_4  and  C_5
REMARK    3  A    between atoms: C_5  and  C_7
REMARK    4  A    between atoms: C_7  and  C_8
REMARK    5  A    between atoms: C_8  and  C_9
REMARK    6  A    between atoms: C_9  and  O_11
REMARK    7  A    between atoms: O_11  and  C_12
REMARK    8  A    between atoms: C_12  and  C_13
REMARK    9  A    between atoms: C_13  and  C_14
REMARK   10  A    between atoms: C_14  and  C_15
REMARK   11  A    between atoms: C_15  and  C_16
REMARK   12  A    between atoms: C_16  and  C_17
REMARK                            x       y       z     vdW  Elec       q    Type
REMARK                         _______ _______ _______ _____ _____    ______ ____
ROOT
ATOM      1  C   UNL     1       7.563   3.338  -1.546  0.00  0.00    +0.307 C 
ATOM      2  O   UNL     1       7.923   4.244  -0.808  0.00  0.00    -0.251 OA
ENDROOT
BRANCH   1   3
ATOM      3  C   UNL     1       6.147   2.819  -1.612  0.00  0.00    +0.128 C 
BRANCH   3   4
ATOM      4  C   UNL     1       6.043   1.415  -2.196  0.00  0.00    +0.087 C 
BRANCH   4   5
ATOM      5  C   UNL     1       4.611   0.975  -2.405  0.00  0.00    +0.147 C 
ATOM      6  O   UNL     1       3.651   1.662  -2.051  0.00  0.00    -0.296 OA
BRANCH   5   7
ATOM      7  C   UNL     1       4.435  -0.414  -3.019  0.00  0.00    +0.152 C 
BRANCH   7   9
ATOM      8  H   UNL     1       2.923  -1.451  -3.924  0.00  0.00    +0.119 HD
ATOM      9  N   UNL     1       3.192  -0.479  -3.789  0.00  0.00    -0.324 NA
ATOM     10  H   UNL     1       2.449  -0.042  -3.235  0.00  0.00    +0.119 HD
ENDBRANCH   7   9
ENDBRANCH   5   7
ENDBRANCH   4   5
ENDBRANCH   3   4
ENDBRANCH   1   3
BRANCH   1  11
ATOM     11  O   UNL     1       8.319   2.802  -2.542  0.00  0.00    -0.465 OA
BRANCH  11  12
ATOM     12  C   UNL     1       9.150   3.738  -3.228  0.00  0.00    +0.232 C 
BRANCH  12  13
ATOM     13  C   UNL     1      10.628   3.454  -3.006  0.00  0.00    +0.041 C 
BRANCH  13  14
ATOM     14  C   UNL     1      11.455   4.400  -3.877  0.00  0.00    +0.003 C 
BRANCH  14  15
ATOM     15  C   UNL     1      12.955   4.194  -3.712  0.00  0.00    -0.000 C 
BRANCH  15  16
ATOM     16  C   UNL     1      13.729   5.165  -4.594  0.00  0.00    -0.003 C 
ATOM     17  C   UNL     1      15.233   4.985  -4.444  0.00  0.00    +0.004 C 
ENDBRANCH  15  16
ENDBRANCH  14  15
ENDBRANCH  13  14
ENDBRANCH  12  13
ENDBRANCH  11  12
ENDBRANCH   1  11
TORSDOF 11
