REMARK  Name = 
REMARK  4 active torsions:
REMARK  status: ('A' for Active; 'I' for Inactive)
REMARK    1  A    between atoms: C_2  and  C_21
REMARK    2  A    between atoms: N_3  and  C_4
REMARK    3  A    between atoms: C_12  and  C_14
REMARK    4  A    between atoms: C_14  and  C_15
REMARK                            x       y       z     vdW  Elec       q    Type
REMARK                         _______ _______ _______ _____ _____    ______ ____
ROOT
ATOM      1  C   UNL     1       2.307  -1.199  -2.074  0.00  0.00    +0.094 C 
ATOM      2  C   UNL     1       0.785  -0.758  -1.971  0.00  0.00    +0.081 C 
ATOM      3  N   UNL     1      -0.122  -1.946  -2.157  0.00  0.00    -0.297 NA
ATOM      4  C   UNL     1       0.230  -2.653  -3.412  0.00  0.00    +0.085 C 
ATOM      5  C   UNL     1       1.670  -3.202  -3.378  0.00  0.00    +0.021 C 
ATOM      6  C   UNL     1       0.047  -2.902  -1.044  0.00  0.00    +0.085 C 
ATOM      7  C   UNL     1       1.505  -3.371  -0.934  0.00  0.00    +0.021 C 
ATOM      8  C   UNL     1       2.357  -2.755  -2.061  0.00  0.00    +0.013 C 
ENDROOT
BRANCH   1  11
ATOM      9  O   UNL     1       2.895   1.440  -2.355  0.00  0.00    -0.267 OA
ATOM     10  C   UNL     1       3.489   0.869  -1.439  0.00  0.00    +0.280 C 
ATOM     11  N   UNL     1       3.267  -0.493  -1.208  0.00  0.00    -0.304 N 
ATOM     12  H   UNL     1       3.996  -0.992  -0.724  0.00  0.00    +0.149 HD
BRANCH  10  13
ATOM     13  C   UNL     1       4.295   1.616  -0.490  0.00  0.00    +0.190 A 
ATOM     14  O   UNL     1       5.185   1.042   0.385  0.00  0.00    -0.450 OA
ATOM     15  C   UNL     1       5.587   2.039   1.245  0.00  0.00    +0.136 A 
ATOM     16  C   UNL     1       4.959   3.237   0.923  0.00  0.00    +0.021 A 
ATOM     17  C   UNL     1       5.115   4.351   1.770  0.00  0.00    +0.011 A 
ATOM     18  C   UNL     1       5.887   4.210   2.929  0.00  0.00    +0.001 A 
ATOM     19  C   UNL     1       6.558   3.015   3.195  0.00  0.00    +0.004 A 
ATOM     20  C   UNL     1       6.445   1.906   2.340  0.00  0.00    +0.047 A 
ATOM     21  C   UNL     1       4.232   2.979  -0.257  0.00  0.00    +0.063 A 
ENDBRANCH  10  13
ENDBRANCH   1  11
BRANCH   2  22
ATOM     22  C   UNL     1       0.414   0.071  -0.704  0.00  0.00    +0.057 C 
BRANCH  22  23
ATOM     23  C   UNL     1      -0.921   0.783  -0.693  0.00  0.00    -0.028 A 
ATOM     24  C   UNL     1      -1.381   1.554  -1.766  0.00  0.00    +0.006 A 
ATOM     25  C   UNL     1      -2.536   2.323  -1.631  0.00  0.00    +0.020 A 
ATOM     26  C   UNL     1      -3.199   2.308  -0.417  0.00  0.00    +0.111 A 
ATOM     27  N   UNL     1      -2.799   1.572   0.642  0.00  0.00    -0.263 NA
ATOM     28  C   UNL     1      -1.676   0.833   0.481  0.00  0.00    +0.114 A 
ENDBRANCH  22  23
ENDBRANCH   2  22
TORSDOF 4
