REMARK  Name = 
REMARK  11 active torsions:
REMARK  status: ('A' for Active; 'I' for Inactive)
REMARK    1  A    between atoms: C_1  and  O_2
REMARK    2  A    between atoms: O_2  and  C_3
REMARK    3  A    between atoms: C_3  and  C_4
REMARK    4  A    between atoms: C_3  and  C_18
REMARK    5  A    between atoms: C_3  and  C_24
REMARK    6  A    between atoms: C_4  and  O_6
REMARK    7  A    between atoms: C_4  and  C_15
REMARK    8  A    between atoms: O_6  and  C_7
REMARK    9  A    between atoms: C_9  and  C_10
REMARK   10  A    between atoms: C_12  and  C_13
REMARK   11  A    between atoms: C_15  and  O_16
REMARK                            x       y       z     vdW  Elec       q    Type
REMARK                         _______ _______ _______ _____ _____    ______ ____
ROOT
ATOM      1  C   UNL     1       0.838  -0.702   2.255  0.00  0.00    +0.166 C 
ENDROOT
BRANCH   1   2
ATOM      2  C   UNL     1       0.169  -1.682   3.294  0.00  0.00    -0.007 A 
ATOM      3  C   UNL     1       0.468  -1.612   4.671  0.00  0.00    +0.007 A 
ATOM      4  C   UNL     1      -0.102  -2.510   5.581  0.00  0.00    +0.000 A 
ATOM      5  C   UNL     1      -0.982  -3.496   5.138  0.00  0.00    +0.000 A 
ATOM      6  C   UNL     1      -1.311  -3.571   3.790  0.00  0.00    +0.000 A 
ATOM      7  C   UNL     1      -0.752  -2.669   2.881  0.00  0.00    +0.007 A 
ENDBRANCH   1   2
BRANCH   1   8
ATOM      8  C   UNL     1       0.306   0.747   2.465  0.00  0.00    -0.007 A 
ATOM      9  C   UNL     1       0.956   1.869   1.920  0.00  0.00    +0.007 A 
ATOM     10  C   UNL     1       0.441   3.165   2.028  0.00  0.00    +0.000 A 
ATOM     11  C   UNL     1      -0.765   3.381   2.675  0.00  0.00    +0.000 A 
ATOM     12  C   UNL     1      -1.451   2.298   3.210  0.00  0.00    +0.000 A 
ATOM     13  C   UNL     1      -0.928   1.002   3.099  0.00  0.00    +0.007 A 
ENDBRANCH   1   8
BRANCH   1  15
ATOM     14  C   UNL     1       0.665  -0.422  -0.223  0.00  0.00    +0.195 C 
ATOM     15  O   UNL     1       0.381  -1.182   0.946  0.00  0.00    -0.363 OA
ENDBRANCH   1  15
BRANCH   1  16
ATOM     16  C   UNL     1       2.404  -0.929   2.385  0.00  0.00    +0.325 C 
BRANCH  16  17
ATOM     17  C   UNL     1       2.775  -2.411   2.224  0.00  0.00    +0.350 C 
ATOM     18  O   UNL     1       3.669  -2.946   2.868  0.00  0.00    -0.247 OA
BRANCH  17  19
ATOM     19  O   UNL     1       2.128  -3.089   1.241  0.00  0.00    -0.478 OA
ATOM     20  H   UNL     1       1.398  -2.573   0.825  0.00  0.00    +0.295 HD
ENDBRANCH  17  19
ENDBRANCH  16  17
BRANCH  16  21
ATOM     21  O   UNL     1       3.189  -0.351   1.332  0.00  0.00    -0.444 OA
BRANCH  21  22
ATOM     22  C   UNL     1       4.159   0.531   1.754  0.00  0.00    +0.319 A 
ATOM     23  N   UNL     1       3.823   1.416   2.704  0.00  0.00    -0.200 NA
ATOM     24  C   UNL     1       4.569   2.538   2.779  0.00  0.00    +0.045 A 
ATOM     25  C   UNL     1       4.071   3.626   3.684  0.00  0.00    +0.066 C 
ATOM     26  C   UNL     1       5.658   2.754   1.960  0.00  0.00    +0.046 A 
ATOM     27  C   UNL     1       5.955   1.758   1.050  0.00  0.00    +0.045 A 
ATOM     28  C   UNL     1       7.125   1.912   0.126  0.00  0.00    +0.066 C 
ATOM     29  N   UNL     1       5.187   0.659   0.908  0.00  0.00    -0.200 NA
ENDBRANCH  21  22
ENDBRANCH  16  21
ENDBRANCH   1  16
TORSDOF 8
