REMARK  Name = 
REMARK  9 active torsions:
REMARK  status: ('A' for Active; 'I' for Inactive)
REMARK    1  A    between atoms: C_2  and  N_3
REMARK    2  A    between atoms: C_2  and  C_4
REMARK    3  A    between atoms: C_2  and  C_11
REMARK    4  A    between atoms: C_11  and  C_13
REMARK    5  A    between atoms: C_11  and  C_17
REMARK    6  A    between atoms: C_13  and  C_14
REMARK    7  A    between atoms: C_19  and  C_22
REMARK    8  A    between atoms: C_25  and  S_29
REMARK    9  A    between atoms: S_29  and  C_30
REMARK                            x       y       z     vdW  Elec       q    Type
REMARK                         _______ _______ _______ _____ _____    ______ ____
ROOT
ATOM      1  C   UNL     1       2.878  -1.569  -0.358  0.00  0.00    +0.101 C 
ENDROOT
BRANCH   1   2
ATOM      2  C   UNL     1       4.394  -1.555  -0.426  0.00  0.00    +0.233 A 
ATOM      3  O   UNL     1       4.947  -0.708  -1.346  0.00  0.00    -0.337 OA
ATOM      4  N   UNL     1       6.326  -0.864  -1.268  0.00  0.00    -0.056 NA
ATOM      5  C   UNL     1       6.501  -1.760  -0.282  0.00  0.00    +0.203 A 
ATOM      6  N   UNL     1       5.308  -2.224   0.251  0.00  0.00    -0.191 NA
BRANCH   5   7
ATOM      7  C   UNL     1       7.830  -2.205   0.152  0.00  0.00    +0.041 A 
ATOM      8  C   UNL     1       8.139  -2.523   1.487  0.00  0.00    +0.054 A 
ATOM      9 CL   UNL     1       6.990  -2.405   2.777  0.00  0.00    -0.083 Cl
ATOM     10  C   UNL     1       9.440  -2.912   1.852  0.00  0.00    +0.047 A 
ATOM     11  C   UNL     1      10.446  -2.998   0.889  0.00  0.00    +0.089 A 
ATOM     12  C   UNL     1      10.175  -2.666  -0.437  0.00  0.00    +0.028 A 
ATOM     13  C   UNL     1       8.876  -2.278  -0.798  0.00  0.00    +0.015 A 
BRANCH  11  14
ATOM     14  S   UNL     1      12.102  -3.428   1.385  0.00  0.00    -0.006 S 
ATOM     15  O   UNL     1      12.225  -3.108   2.795  0.00  0.00    -0.170 OA
ATOM     16  O   UNL     1      13.011  -2.855   0.412  0.00  0.00    -0.170 OA
ATOM     17  C   UNL     1      12.150  -5.192   1.215  0.00  0.00    +0.200 C 
ENDBRANCH  11  14
ENDBRANCH   5   7
ENDBRANCH   1   2
BRANCH   1  18
ATOM     18  C   UNL     1       2.366  -2.485   0.799  0.00  0.00    +0.122 C 
BRANCH  18  19
ATOM     19  C   UNL     1       0.872  -2.353   1.071  0.00  0.00    +0.117 C 
ATOM     20  C   UNL     1       0.249  -1.445   1.841  0.00  0.00    -0.037 C 
ATOM     21  C   UNL     1      -1.245  -1.458   2.061  0.00  0.00    +0.033 C 
ATOM     22  C   UNL     1      -1.441  -0.711   3.379  0.00  0.00    +0.005 C 
ATOM     23  C   UNL     1      -0.040  -0.491   3.939  0.00  0.00    +0.005 C 
ATOM     24  C   UNL     1       0.852  -0.388   2.710  0.00  0.00    +0.033 C 
ATOM     25  F   UNL     1       0.066  -3.295   0.512  0.00  0.00    -0.209 F 
ENDBRANCH  18  19
BRANCH  18  26
ATOM     26  N   UNL     1       2.692  -3.908   0.566  0.00  0.00    -0.321 NA
ATOM     27  H   UNL     1       3.685  -4.041   0.772  0.00  0.00    +0.119 HD
ATOM     28  H   UNL     1       2.185  -4.476   1.245  0.00  0.00    +0.119 HD
ENDBRANCH  18  26
ENDBRANCH   1  18
BRANCH   1  29
ATOM     29  C   UNL     1       2.320  -1.883  -1.776  0.00  0.00    +0.018 C 
BRANCH  29  30
ATOM     30  C   UNL     1       0.824  -1.886  -1.917  0.00  0.00    -0.010 C 
ATOM     31  C   UNL     1       0.159  -1.107  -3.026  0.00  0.00    +0.004 C 
ATOM     32  C   UNL     1      -0.031  -0.678  -1.603  0.00  0.00    +0.004 C 
ENDBRANCH  29  30
ENDBRANCH   1  29
TORSDOF 8
