REMARK  Name = 
REMARK  20 active torsions:
REMARK  status: ('A' for Active; 'I' for Inactive)
REMARK    1  A    between atoms: N_1  and  C_2
REMARK    2  A    between atoms: C_2  and  C_3
REMARK    3  A    between atoms: C_3  and  C_4
REMARK    4  A    between atoms: C_4  and  O_6
REMARK    5  A    between atoms: C_4  and  C_7
REMARK    6  A    between atoms: N_9  and  C_10
REMARK    7  A    between atoms: C_13  and  N_15
REMARK    8  A    between atoms: C_16  and  O_18
REMARK    9  A    between atoms: O_18  and  C_19
REMARK   10  A    between atoms: C_22  and  C_24
REMARK   11  A    between atoms: C_24  and  N_25
REMARK   12  A    between atoms: C_28  and  N_30
REMARK   13  A    between atoms: C_31  and  O_33
REMARK   14  A    between atoms: C_34  and  O_36
REMARK   15  A    between atoms: O_36  and  C_37
REMARK   16  A    between atoms: C_40  and  C_42
REMARK   17  A    between atoms: C_42  and  O_43
REMARK   18  A    between atoms: C_44  and  O_46
REMARK   19  A    between atoms: C_47  and  N_49
REMARK   20  A    between atoms: C_50  and  O_52
REMARK                            x       y       z     vdW  Elec       q    Type
REMARK                         _______ _______ _______ _____ _____    ______ ____
ROOT
ATOM      1  C   UNL     1       6.951   2.115   4.075  0.00  0.00    +0.106 C 
ATOM      2  C   UNL     1       6.788   3.648   3.952  0.00  0.00    +0.173 C 
ATOM      3  C   UNL     1       7.715   4.278   2.875  0.00  0.00    +0.175 C 
ATOM      4  C   UNL     1       9.182   3.756   2.867  0.00  0.00    +0.169 C 
ATOM      5  C   UNL     1       9.246   2.212   3.064  0.00  0.00    +0.084 C 
ATOM      6  C   UNL     1       8.419   1.744   4.253  0.00  0.00    +0.046 C 
ENDROOT
BRANCH   1   8
ATOM      7  C   UNL     1       5.531   0.386   5.186  0.00  0.00    +0.242 C 
ATOM      8  N   UNL     1       6.216   1.579   5.227  0.00  0.00    -0.308 N 
ATOM      9  H   UNL     1       6.146   2.164   6.052  0.00  0.00    +0.149 HD
ATOM     10  O   UNL     1       5.560  -0.374   4.215  0.00  0.00    -0.273 OA
BRANCH   7  11
ATOM     11  C   UNL     1       4.599   0.120   6.390  0.00  0.00    +0.201 C 
BRANCH  11  12
ATOM     12  O   UNL     1       3.983  -1.161   6.312  0.00  0.00    -0.383 OA
ATOM     13  H   UNL     1       3.761  -1.297   5.369  0.00  0.00    +0.210 HD
ENDBRANCH  11  12
BRANCH  11  14
ATOM     14  C   UNL     1       5.291   0.259   7.745  0.00  0.00    +0.056 C 
BRANCH  14  15
ATOM     15  C   UNL     1       6.464  -0.707   7.908  0.00  0.00    +0.080 C 
BRANCH  15  16
ATOM     16  N   UNL     1       7.126  -0.453   9.185  0.00  0.00    -0.330 NA
ATOM     17  H   UNL     1       6.479  -0.667   9.947  0.00  0.00    +0.118 HD
ATOM     18  H   UNL     1       7.900  -1.109   9.293  0.00  0.00    +0.118 HD
ENDBRANCH  15  16
ENDBRANCH  14  15
ENDBRANCH  11  14
ENDBRANCH   7  11
ENDBRANCH   1   8
BRANCH   5  19
ATOM     19  N   UNL     1      10.630   1.725   3.233  0.00  0.00    -0.325 NA
ATOM     20  H   UNL     1      11.034   2.104   4.091  0.00  0.00    +0.119 HD
ATOM     21  H   UNL     1      10.628   0.713   3.338  0.00  0.00    +0.119 HD
ENDBRANCH   5  19
BRANCH   3  22
ATOM     22  O   UNL     1       7.667   5.698   3.164  0.00  0.00    -0.387 OA
ATOM     23  H   UNL     1       8.303   6.172   2.609  0.00  0.00    +0.210 HD
ENDBRANCH   3  22
BRANCH   4  24
ATOM     24  O   UNL     1       9.861   3.981   1.608  0.00  0.00    -0.342 OA
BRANCH  24  25
ATOM     25  C   UNL     1      10.068   5.326   1.184  0.00  0.00    +0.268 C 
ATOM     26  C   UNL     1      10.842   5.352  -0.170  0.00  0.00    +0.107 C 
ATOM     27  C   UNL     1      12.319   5.008   0.036  0.00  0.00    +0.026 C 
ATOM     28  C   UNL     1      12.902   5.878   1.143  0.00  0.00    +0.034 C 
ATOM     29  C   UNL     1      12.072   5.738   2.422  0.00  0.00    +0.135 C 
ATOM     30  O   UNL     1      10.707   6.133   2.174  0.00  0.00    -0.345 OA
BRANCH  26  31
ATOM     31  N   UNL     1      10.242   4.462  -1.179  0.00  0.00    -0.323 NA
ATOM     32  H   UNL     1      10.894   4.321  -1.948  0.00  0.00    +0.119 HD
ATOM     33  H   UNL     1      10.121   3.544  -0.740  0.00  0.00    +0.119 HD
ENDBRANCH  26  31
BRANCH  29  34
ATOM     34  C   UNL     1      12.662   6.637   3.529  0.00  0.00    +0.109 C 
BRANCH  34  35
ATOM     35  N   UNL     1      11.961   6.459   4.804  0.00  0.00    -0.328 NA
ATOM     36  H   UNL     1      12.300   7.149   5.472  0.00  0.00    +0.118 HD
ATOM     37  H   UNL     1      10.974   6.675   4.651  0.00  0.00    +0.118 HD
ENDBRANCH  34  35
ENDBRANCH  29  34
ENDBRANCH  24  25
ENDBRANCH   4  24
BRANCH   2  38
ATOM     38  O   UNL     1       5.431   4.058   3.611  0.00  0.00    -0.341 OA
BRANCH  38  39
ATOM     39  C   UNL     1       4.436   3.765   4.593  0.00  0.00    +0.281 C 
ATOM     40  C   UNL     1       3.035   4.245   4.161  0.00  0.00    +0.189 C 
ATOM     41  C   UNL     1       2.934   5.775   4.238  0.00  0.00    +0.116 C 
ATOM     42  C   UNL     1       3.379   6.244   5.640  0.00  0.00    +0.165 C 
ATOM     43  C   UNL     1       4.785   5.703   5.943  0.00  0.00    +0.177 C 
ATOM     44  O   UNL     1       4.792   4.259   5.890  0.00  0.00    -0.341 OA
BRANCH  41  45
ATOM     45  N   UNL     1       1.574   6.262   3.922  0.00  0.00    -0.323 NA
ATOM     46  H   UNL     1       0.882   5.733   4.453  0.00  0.00    +0.119 HD
ATOM     47  H   UNL     1       1.490   7.228   4.252  0.00  0.00    +0.119 HD
ENDBRANCH  41  45
BRANCH  42  48
ATOM     48  O   UNL     1       3.331   7.670   5.714  0.00  0.00    -0.388 OA
ATOM     49  H   UNL     1       3.884   8.030   4.997  0.00  0.00    +0.210 HD
ENDBRANCH  42  48
BRANCH  40  50
ATOM     50  O   UNL     1       2.706   3.748   2.861  0.00  0.00    -0.385 OA
ATOM     51  H   UNL     1       3.282   4.217   2.228  0.00  0.00    +0.210 HD
ENDBRANCH  40  50
BRANCH  43  52
ATOM     52  C   UNL     1       5.264   6.132   7.336  0.00  0.00    +0.190 C 
BRANCH  52  53
ATOM     53  O   UNL     1       6.621   5.728   7.531  0.00  0.00    -0.392 OA
ATOM     54  H   UNL     1       6.645   4.768   7.373  0.00  0.00    +0.210 HD
ENDBRANCH  52  53
ENDBRANCH  43  52
ENDBRANCH  38  39
ENDBRANCH   2  38
TORSDOF 20
