REMARK  Name = 
REMARK  8 active torsions:
REMARK  status: ('A' for Active; 'I' for Inactive)
REMARK    1  A    between atoms: O_1  and  C_2
REMARK    2  A    between atoms: C_2  and  C_4
REMARK    3  A    between atoms: C_5  and  O_6
REMARK    4  A    between atoms: C_9  and  S_11
REMARK    5  A    between atoms: S_11  and  N_14
REMARK    6  A    between atoms: N_14  and  C_15
REMARK    7  A    between atoms: C_15  and  C_16
REMARK    8  A    between atoms: C_16  and  S_17
REMARK                            x       y       z     vdW  Elec       q    Type
REMARK                         _______ _______ _______ _____ _____    ______ ____
ROOT
ATOM      1  C   UNL     1       3.160  -0.527  -1.222  0.00  0.00    +0.102 A 
ATOM      2  C   UNL     1       3.186  -1.875  -1.606  0.00  0.00    +0.047 A 
ATOM      3  C   UNL     1       3.734  -2.223  -2.848  0.00  0.00    +0.106 A 
ATOM      4  C   UNL     1       4.282  -1.250  -3.689  0.00  0.00    +0.032 A 
ATOM      5  C   UNL     1       4.289   0.085  -3.284  0.00  0.00    +0.048 A 
ATOM      6  C   UNL     1       3.734   0.443  -2.056  0.00  0.00    +0.131 A 
ENDROOT
BRANCH   3   7
ATOM      7  S   UNL     1       3.561  -3.891  -3.432  0.00  0.00    +0.058 S 
ATOM      8  O   UNL     1       4.075  -3.973  -4.779  0.00  0.00    -0.153 OA
ATOM      9  O   UNL     1       2.214  -4.299  -3.099  0.00  0.00    -0.153 OA
BRANCH   7  10
ATOM     10  N   UNL     1       4.573  -4.778  -2.420  0.00  0.00    -0.189 NA
ATOM     11  H   UNL     1       4.107  -5.658  -2.190  0.00  0.00    +0.148 HD
BRANCH  10  12
ATOM     12  C   UNL     1       5.991  -4.902  -2.819  0.00  0.00    +0.116 C 
BRANCH  12  13
ATOM     13  C   UNL     1       6.771  -5.754  -1.813  0.00  0.00    +0.082 C 
BRANCH  13  14
ATOM     14  S   UNL     1       6.166  -7.474  -1.744  0.00  0.00    -0.177 S 
ATOM     15  H   UNL     1       5.020  -7.223  -1.096  0.00  0.00    +0.102 HD
ENDBRANCH  13  14
ENDBRANCH  12  13
ENDBRANCH  10  12
ENDBRANCH   7  10
ENDBRANCH   3   7
BRANCH   1  16
ATOM     16  C   UNL     1       2.542  -0.099   0.053  0.00  0.00    +0.340 C 
ATOM     17  O   UNL     1       2.923   0.900   0.643  0.00  0.00    -0.245 OA
BRANCH  16  18
ATOM     18  O   UNL     1       1.495  -0.847   0.456  0.00  0.00    -0.477 OA
ATOM     19  H   UNL     1       1.127  -1.461  -0.209  0.00  0.00    +0.295 HD
ENDBRANCH  16  18
ENDBRANCH   1  16
BRANCH   6  20
ATOM     20  O   UNL     1       3.769   1.777  -1.745  0.00  0.00    -0.506 OA
ATOM     21  H   UNL     1       3.503   1.895  -0.806  0.00  0.00    +0.292 HD
ENDBRANCH   6  20
TORSDOF 8
