REMARK  Name = 
REMARK  20 active torsions:
REMARK  status: ('A' for Active; 'I' for Inactive)
REMARK    1  A    between atoms: C_2  and  C_3
REMARK    2  A    between atoms: C_3  and  O_4
REMARK    3  A    between atoms: O_4  and  C_5
REMARK    4  A    between atoms: C_5  and  C_6
REMARK    5  A    between atoms: C_8  and  C_10
REMARK    6  A    between atoms: C_13  and  C_15
REMARK    7  A    between atoms: C_19  and  O_20
REMARK    8  A    between atoms: C_22  and  C_23
REMARK    9  A    between atoms: C_24  and  C_26
REMARK   10  A    between atoms: C_26  and  C_27
REMARK   11  A    between atoms: C_31  and  C_33
REMARK   12  A    between atoms: C_36  and  C_38
REMARK   13  A    between atoms: C_39  and  O_41
REMARK   14  A    between atoms: O_41  and  C_42
REMARK   15  A    between atoms: C_45  and  C_47
REMARK   16  A    between atoms: C_49  and  N_51
REMARK   17  A    between atoms: N_51  and  C_52
REMARK   18  A    between atoms: N_51  and  C_53
REMARK   19  A    between atoms: C_54  and  O_56
REMARK   20  A    between atoms: C_57  and  C_59
REMARK                            x       y       z     vdW  Elec       q    Type
REMARK                         _______ _______ _______ _____ _____    ______ ____
ROOT
ATOM      1  C   UNL     1      -0.000  -0.000  -0.000  0.00  0.00    +0.094 C 
ATOM      2  C   UNL     1      -0.000  -0.000  -0.000  0.00  0.00    +0.044 C 
ATOM      3  C   UNL     1      -0.000  -0.000  -0.000  0.00  0.00    +0.163 C 
ATOM      4  C   UNL     1      -0.000  -0.000  -0.000  0.00  0.00    +0.085 C 
ATOM      5  C   UNL     1      -0.000  -0.000  -0.000  0.00  0.00    +0.018 C 
ATOM      6  C   UNL     1      -0.000  -0.000  -0.000  0.00  0.00    +0.152 C 
ATOM      7  O   UNL     1      -0.000  -0.000  -0.000  0.00  0.00    -0.296 OA
ATOM      8  C   UNL     1      -0.000  -0.000  -0.000  0.00  0.00    +0.161 C 
ATOM      9  C   UNL     1      -0.000  -0.000  -0.000  0.00  0.00    +0.027 C 
ATOM     10  C   UNL     1      -0.000  -0.000  -0.000  0.00  0.00    +0.318 C 
ATOM     11  O   UNL     1      -0.000  -0.000  -0.000  0.00  0.00    -0.250 OA
ATOM     12  O   UNL     1      -0.000  -0.000  -0.000  0.00  0.00    -0.457 OA
ATOM     13  C   UNL     1      -0.000  -0.000  -0.000  0.00  0.00    +0.222 C 
ATOM     14  C   UNL     1      -0.000  -0.000  -0.000  0.00  0.00    +0.172 C 
ATOM     15  C   UNL     1      -0.000  -0.000  -0.000  0.00  0.00    +0.062 C 
ATOM     16  C   UNL     1      -0.000  -0.000  -0.000  0.00  0.00    +0.169 C 
ATOM     17  N   UNL     1      -0.000  -0.000  -0.000  0.00  0.00    -0.208 NA
ATOM     18  C   UNL     1      -0.000  -0.000  -0.000  0.00  0.00    +0.385 C 
ATOM     19  C   UNL     1      -0.000  -0.000  -0.000  0.00  0.00    +0.081 C 
ATOM     20  C   UNL     1      -0.000  -0.000  -0.000  0.00  0.00    +0.018 C 
ATOM     21  C   UNL     1      -0.000  -0.000  -0.000  0.00  0.00    +0.141 C 
ATOM     22  O   UNL     1      -0.000  -0.000  -0.000  0.00  0.00    -0.297 OA
ATOM     23  C   UNL     1      -0.000  -0.000  -0.000  0.00  0.00    +0.055 C 
ATOM     24  C   UNL     1      -0.000  -0.000  -0.000  0.00  0.00    +0.015 C 
ATOM     25  O   UNL     1      -0.000  -0.000  -0.000  0.00  0.00    -0.438 OA
ATOM     26  C   UNL     1      -0.000  -0.000  -0.000  0.00  0.00    +0.048 C 
ENDROOT
BRANCH  13  27
ATOM     27  C   UNL     1      -0.000  -0.000  -0.000  0.00  0.00    +0.045 C 
ATOM     28  C   UNL     1      -0.000  -0.000  -0.000  0.00  0.00    +0.007 C 
ENDBRANCH  13  27
BRANCH  18  29
ATOM     29  O   UNL     1      -0.000  -0.000  -0.000  0.00  0.00    -0.466 OA
ATOM     30  H   UNL     1       0.000   0.000   0.000  0.00  0.00    +0.297 HD
ENDBRANCH  18  29
BRANCH   1  31
ATOM     31  O   UNL     1      -0.000  -0.000  -0.000  0.00  0.00    -0.367 OA
BRANCH  31  32
ATOM     32  C   UNL     1      -0.000  -0.000  -0.000  0.00  0.00    +0.188 C 
BRANCH  32  33
ATOM     33  C   UNL     1      -0.000  -0.000  -0.000  0.00  0.00    +0.001 C 
ATOM     34  C   UNL     1      -0.000  -0.000  -0.000  0.00  0.00    +0.007 C 
BRANCH  34  35
ATOM     35  C   UNL     1      -0.000  -0.000  -0.000  0.00  0.00    -0.007 A 
ATOM     36  C   UNL     1      -0.000  -0.000  -0.000  0.00  0.00    +0.119 A 
ATOM     37  N   UNL     1      -0.000  -0.000  -0.000  0.00  0.00    -0.254 NA
ATOM     38  C   UNL     1      -0.000  -0.000  -0.000  0.00  0.00    +0.071 A 
ATOM     39  C   UNL     1      -0.000  -0.000  -0.000  0.00  0.00    +0.001 A 
ATOM     40  C   UNL     1      -0.000  -0.000  -0.000  0.00  0.00    +0.010 A 
ATOM     41  C   UNL     1      -0.000  -0.000  -0.000  0.00  0.00    +0.001 A 
ATOM     42  C   UNL     1      -0.000  -0.000  -0.000  0.00  0.00    +0.002 A 
ATOM     43  C   UNL     1      -0.000  -0.000  -0.000  0.00  0.00    +0.028 A 
ATOM     44  C   UNL     1      -0.000  -0.000  -0.000  0.00  0.00    +0.019 A 
ENDBRANCH  34  35
ENDBRANCH  32  33
ENDBRANCH  31  32
ENDBRANCH   1  31
BRANCH   3  45
ATOM     45  O   UNL     1      -0.000  -0.000  -0.000  0.00  0.00    -0.342 OA
BRANCH  45  46
ATOM     46  C   UNL     1      -0.000  -0.000  -0.000  0.00  0.00    +0.281 C 
ATOM     47  C   UNL     1      -0.000  -0.000  -0.000  0.00  0.00    +0.187 C 
ATOM     48  C   UNL     1      -0.000  -0.000  -0.000  0.00  0.00    +0.092 C 
ATOM     49  C   UNL     1      -0.000  -0.000  -0.000  0.00  0.00    +0.053 C 
ATOM     50  C   UNL     1      -0.000  -0.000  -0.000  0.00  0.00    +0.120 C 
ATOM     51  C   UNL     1      -0.000  -0.000  -0.000  0.00  0.00    +0.038 C 
ATOM     52  O   UNL     1      -0.000  -0.000  -0.000  0.00  0.00    -0.346 OA
BRANCH  48  53
ATOM     53  N   UNL     1      -0.000  -0.000  -0.000  0.00  0.00    -0.303 NA
ATOM     54  C   UNL     1      -0.000  -0.000  -0.000  0.00  0.00    +0.105 C 
ATOM     55  C   UNL     1      -0.000  -0.000  -0.000  0.00  0.00    +0.105 C 
ENDBRANCH  48  53
BRANCH  47  56
ATOM     56  O   UNL     1      -0.000  -0.000  -0.000  0.00  0.00    -0.385 OA
ATOM     57  H   UNL     1      -0.000  -0.000  -0.000  0.00  0.00    +0.210 HD
ENDBRANCH  47  56
ENDBRANCH  45  46
ENDBRANCH   3  45
TORSDOF 10
