REMARK  Name = 
REMARK  5 active torsions:
REMARK  status: ('A' for Active; 'I' for Inactive)
REMARK    1  A    between atoms: O_1  and  C_2
REMARK    2  A    between atoms: C_2  and  C_3
REMARK    3  A    between atoms: C_3  and  S_4
REMARK    4  A    between atoms: C_3  and  C_5
REMARK    5  A    between atoms: C_5  and  S_6
REMARK                            x       y       z     vdW  Elec       q    Type
REMARK                         _______ _______ _______ _____ _____    ______ ____
ROOT
ATOM      1  C   UNL     1       2.952  -0.563   1.473  0.00  0.00    +0.078 C 
ENDROOT
BRANCH   1   2
ATOM      2  S   UNL     1       2.266  -2.250   1.726  0.00  0.00    -0.172 S 
ATOM      3  H   UNL     1       2.800  -2.779   0.614  0.00  0.00    +0.102 HD
ENDBRANCH   1   2
BRANCH   1   4
ATOM      4  C   UNL     1       2.421  -0.006   0.142  0.00  0.00    +0.170 C 
BRANCH   4   5
ATOM      5  O   UNL     1       2.953  -0.723  -0.970  0.00  0.00    -0.394 OA
ATOM      6  H   UNL     1       2.498  -0.398  -1.765  0.00  0.00    +0.209 HD
ENDBRANCH   4   5
ENDBRANCH   1   4
BRANCH   1   7
ATOM      7  C   UNL     1       4.489  -0.547   1.495  0.00  0.00    +0.081 C 
BRANCH   7   8
ATOM      8  S   UNL     1       5.229  -1.024   3.096  0.00  0.00    -0.177 S 
ATOM      9  H   UNL     1       4.464  -0.242   3.871  0.00  0.00    +0.102 HD
ENDBRANCH   7   8
ENDBRANCH   1   7
TORSDOF 5
