REMARK  Name = 
REMARK  4 active torsions:
REMARK  status: ('A' for Active; 'I' for Inactive)
REMARK    1  A    between atoms: C_5  and  C_7
REMARK    2  A    between atoms: C_7  and  N_8
REMARK    3  A    between atoms: C_9  and  C_19
REMARK    4  A    between atoms: C_12  and  C_13
REMARK                            x       y       z     vdW  Elec       q    Type
REMARK                         _______ _______ _______ _____ _____    ______ ____
ROOT
ATOM      1  N   UNL     1       6.657  -1.198  -2.007  0.00  0.00    -0.329 N 
ATOM      2  C   UNL     1       7.574  -2.257  -2.003  0.00  0.00    +0.050 A 
ATOM      3  C   UNL     1       8.818  -1.667  -1.854  0.00  0.00    +0.028 A 
ATOM      4  C   UNL     1       8.662  -0.266  -1.866  0.00  0.00    +0.028 A 
ATOM      5  C   UNL     1       7.316   0.040  -2.019  0.00  0.00    +0.050 A 
ENDROOT
BRANCH   2   6
ATOM      6  C   UNL     1       7.275  -3.710  -2.085  0.00  0.00    -0.001 A 
ATOM      7  C   UNL     1       6.286  -4.242  -2.925  0.00  0.00    +0.010 A 
ATOM      8  C   UNL     1       6.012  -5.612  -2.978  0.00  0.00    +0.001 A 
ATOM      9  C   UNL     1       6.767  -6.497  -2.223  0.00  0.00    +0.000 A 
ATOM     10  C   UNL     1       7.793  -6.007  -1.421  0.00  0.00    +0.001 A 
ATOM     11  C   UNL     1       8.039  -4.627  -1.349  0.00  0.00    +0.010 A 
ENDBRANCH   2   6
BRANCH   5  12
ATOM     12  C   UNL     1       6.710   1.397  -2.130  0.00  0.00    -0.001 A 
ATOM     13  C   UNL     1       5.541   1.667  -2.855  0.00  0.00    +0.010 A 
ATOM     14  C   UNL     1       4.989   2.950  -2.942  0.00  0.00    +0.001 A 
ATOM     15  C   UNL     1       5.629   4.020  -2.339  0.00  0.00    +0.000 A 
ATOM     16  C   UNL     1       6.817   3.799  -1.651  0.00  0.00    +0.001 A 
ATOM     17  C   UNL     1       7.347   2.504  -1.543  0.00  0.00    +0.010 A 
ENDBRANCH   5  12
BRANCH   1  18
ATOM     18  C   UNL     1       5.208  -1.370  -1.970  0.00  0.00    +0.236 C 
BRANCH  18  25
ATOM     19  N   UNL     1       3.807  -1.811  -6.132  0.00  0.00    -0.291 N 
ATOM     20  H   UNL     1       3.103  -1.684  -5.405  0.00  0.00    +0.254 HD
ATOM     21  H   UNL     1       3.506  -1.517  -7.049  0.00  0.00    +0.254 HD
ATOM     22  C   UNL     1       5.058  -1.486  -5.758  0.00  0.00    +0.375 C 
ATOM     23  N   UNL     1       5.378  -1.328  -4.446  0.00  0.00    -0.173 N 
ATOM     24  H   UNL     1       6.368  -1.134  -4.329  0.00  0.00    +0.254 HD
ATOM     25  C   UNL     1       4.546  -1.459  -3.339  0.00  0.00    +0.295 C 
ATOM     26  O   UNL     1       3.325  -1.601  -3.438  0.00  0.00    -0.255 OA
ATOM     27  N   UNL     1       6.023  -1.295  -6.576  0.00  0.00    -0.131 NA
ATOM     28  H   UNL     1       5.696  -1.467  -7.529  0.00  0.00    +0.306 HD
ENDBRANCH  18  25
ENDBRANCH   1  18
TORSDOF 4
