REMARK  Name = 
REMARK  7 active torsions:
REMARK  status: ('A' for Active; 'I' for Inactive)
REMARK    1  A    between atoms: C_1  and  C_2
REMARK    2  A    between atoms: C_2  and  C_3
REMARK    3  A    between atoms: C_3  and  S_4
REMARK    4  A    between atoms: S_4  and  N_7
REMARK    5  A    between atoms: N_7  and  C_8
REMARK    6  A    between atoms: C_11  and  C_12
REMARK    7  A    between atoms: C_12  and  C_14
REMARK                            x       y       z     vdW  Elec       q    Type
REMARK                         _______ _______ _______ _____ _____    ______ ____
ROOT
ATOM      1  C   UNL     1       6.834  -1.294  -2.804  0.00  0.00    +0.084 A 
ATOM      2  C   UNL     1       7.626  -0.184  -3.074  0.00  0.00    +0.030 A 
ATOM      3  C   UNL     1       8.981  -0.371  -3.359  0.00  0.00    +0.041 A 
ATOM      4  C   UNL     1       9.514  -1.663  -3.423  0.00  0.00    +0.137 A 
ATOM      5  F   UNL     1      10.798  -1.790  -3.785  0.00  0.00    -0.205 F 
ATOM      6  C   UNL     1       8.723  -2.780  -3.156  0.00  0.00    +0.094 A 
ATOM      7  C   UNL     1       7.411  -2.566  -2.746  0.00  0.00    +0.159 A 
ATOM      8  F   UNL     1       6.629  -3.582  -2.348  0.00  0.00    -0.203 F 
ENDROOT
BRANCH   1   9
ATOM      9  N   UNL     1       5.412  -1.168  -2.620  0.00  0.00    -0.218 N 
ATOM     10  H   UNL     1       4.957  -2.059  -2.847  0.00  0.00    +0.173 HD
BRANCH   9  11
ATOM     11  S   UNL     1       4.948  -0.751  -1.035  0.00  0.00    +0.043 S 
ATOM     12  O   UNL     1       5.236  -1.897  -0.201  0.00  0.00    -0.155 OA
ATOM     13  O   UNL     1       5.474   0.563  -0.746  0.00  0.00    -0.155 OA
BRANCH  11  14
ATOM     14  C   UNL     1       3.172  -0.640  -1.258  0.00  0.00    +0.188 C 
BRANCH  14  16
ATOM     15  C   UNL     1       0.979  -0.133  -0.124  0.00  0.00    +0.005 C 
ATOM     16  C   UNL     1       2.488  -0.212   0.033  0.00  0.00    +0.021 C 
ENDBRANCH  14  16
ENDBRANCH  11  14
ENDBRANCH   9  11
ENDBRANCH   1   9
BRANCH   6  17
ATOM     17  C   UNL     1       9.268  -4.145  -3.345  0.00  0.00    +0.201 C 
ATOM     18  O   UNL     1      10.457  -4.342  -3.105  0.00  0.00    -0.286 OA
BRANCH  17  19
ATOM     19  C   UNL     1       8.385  -5.246  -3.757  0.00  0.00    +0.049 A 
ATOM     20  C   UNL     1       7.128  -5.260  -4.460  0.00  0.00    +0.031 A 
ATOM     21  C   UNL     1       6.610  -6.547  -4.332  0.00  0.00    +0.139 A 
ATOM     22  N   UNL     1       5.384  -6.983  -4.675  0.00  0.00    -0.236 NA
ATOM     23  C   UNL     1       4.604  -6.006  -5.197  0.00  0.00    +0.133 A 
ATOM     24  C   UNL     1       5.011  -4.705  -5.452  0.00  0.00    +0.060 A 
ATOM     25 CL   UNL     1       3.914  -3.550  -6.099  0.00  0.00    -0.082 Cl
ATOM     26  N   UNL     1       7.574  -7.336  -3.773  0.00  0.00    -0.345 N 
ATOM     27  H   UNL     1       7.460  -8.325  -3.600  0.00  0.00    +0.167 HD
ATOM     28  C   UNL     1       6.310  -4.321  -5.125  0.00  0.00    +0.033 A 
ATOM     29  C   UNL     1       8.656  -6.571  -3.436  0.00  0.00    +0.096 A 
ENDBRANCH  17  19
ENDBRANCH   6  17
TORSDOF 6
