REMARK  Name = 
REMARK  4 active torsions:
REMARK  status: ('A' for Active; 'I' for Inactive)
REMARK    1  A    between atoms: C_2  and  C_3
REMARK    2  A    between atoms: C_3  and  C_4
REMARK    3  A    between atoms: N_14  and  C_15
REMARK    4  A    between atoms: C_17  and  C_20
REMARK                            x       y       z     vdW  Elec       q    Type
REMARK                         _______ _______ _______ _____ _____    ______ ____
ROOT
ATOM      1  O   UNL     1       1.857   0.015   1.343  0.00  0.00    -0.275 OA
ATOM      2  C   UNL     1       2.121  -0.077   0.154  0.00  0.00    +0.223 C 
ATOM      3  N   UNL     1       1.755  -1.246  -0.608  0.00  0.00    -0.270 N 
ATOM      4  H   UNL     1       1.967  -1.255  -1.598  0.00  0.00    +0.156 HD
ENDROOT
BRANCH   3   5
ATOM      5  C   UNL     1       1.127  -2.361  -0.064  0.00  0.00    +0.120 A 
ATOM      6  N   UNL     1       0.791  -3.497  -0.761  0.00  0.00    -0.264 N 
ATOM      7  H   UNL     1       0.924  -3.695  -1.745  0.00  0.00    +0.190 HD
ATOM      8  N   UNL     1       0.221  -4.449  -0.009  0.00  0.00    -0.177 NA
ATOM      9  C   UNL     1       0.159  -3.894   1.203  0.00  0.00    +0.068 A 
ATOM     10  C   UNL     1       0.714  -2.597   1.227  0.00  0.00    +0.068 A 
BRANCH   9  11
ATOM     11  C   UNL     1      -0.445  -4.570   2.426  0.00  0.00    +0.040 C 
ATOM     12  C   UNL     1      -0.240  -6.058   2.620  0.00  0.00    +0.010 C 
ATOM     13  C   UNL     1      -1.583  -5.551   2.224  0.00  0.00    +0.010 C 
ENDBRANCH   9  11
ENDBRANCH   3   5
BRANCH   2  14
ATOM     14  C   UNL     1       2.839   0.997  -0.632  0.00  0.00    +0.131 C 
BRANCH  14  15
ATOM     15  C   UNL     1       1.913   2.007  -1.260  0.00  0.00    -0.038 A 
ATOM     16  C   UNL     1       1.090   2.807  -0.458  0.00  0.00    +0.005 A 
ATOM     17  C   UNL     1       0.289   3.799  -1.028  0.00  0.00    +0.009 A 
ATOM     18  C   UNL     1       0.299   4.024  -2.412  0.00  0.00    -0.018 A 
ATOM     19  C   UNL     1      -0.471   5.046  -2.990  0.00  0.00    +0.008 A 
ATOM     20  C   UNL     1      -0.438   5.273  -4.366  0.00  0.00    +0.001 A 
ATOM     21  C   UNL     1       0.357   4.473  -5.182  0.00  0.00    +0.001 A 
ATOM     22  C   UNL     1       1.125   3.450  -4.622  0.00  0.00    +0.008 A 
ATOM     23  C   UNL     1       1.114   3.216  -3.236  0.00  0.00    -0.018 A 
ATOM     24  C   UNL     1       1.910   2.214  -2.649  0.00  0.00    +0.012 A 
ENDBRANCH  14  15
ENDBRANCH   2  14
TORSDOF 4
