REMARK  Name = 
REMARK  3 active torsions:
REMARK  status: ('A' for Active; 'I' for Inactive)
REMARK    1  A    between atoms: C_1  and  N_2
REMARK    2  A    between atoms: C_9  and  C_12
REMARK    3  A    between atoms: C_15  and  O_16
REMARK                            x       y       z     vdW  Elec       q    Type
REMARK                         _______ _______ _______ _____ _____    ______ ____
ROOT
ATOM      1  C   UNL     1       0.997  -0.107   0.084  0.00  0.00    +0.152 C 
ATOM      2  N   UNL     1       2.437  -0.101   0.095  0.00  0.00    -0.314 N 
ATOM      3  C   UNL     1       3.206   1.040   0.107  0.00  0.00    +0.089 A 
ATOM      4  C   UNL     1       2.920   2.407   0.133  0.00  0.00    +0.039 A 
ATOM      5  C   UNL     1       4.011   3.292   0.078  0.00  0.00    +0.002 A 
ATOM      6  C   UNL     1       5.286   2.705   0.038  0.00  0.00    +0.121 A 
ATOM      7  N   UNL     1       5.587   1.381   0.047  0.00  0.00    -0.234 NA
ATOM      8  C   UNL     1       4.510   0.568   0.070  0.00  0.00    +0.180 A 
ATOM      9  N   UNL     1       4.545  -0.796   0.044  0.00  0.00    -0.195 NA
ATOM     10  C   UNL     1       3.290  -1.177   0.039  0.00  0.00    +0.195 A 
ATOM     11  N   UNL     1       2.871  -2.448  -0.032  0.00  0.00    -0.329 N 
ATOM     12  H   UNL     1       3.589  -3.159   0.082  0.00  0.00    +0.145 HD
ATOM     13  H   UNL     1       1.945  -2.752   0.234  0.00  0.00    +0.145 HD
ENDROOT
BRANCH   5  14
ATOM     14  C   UNL     1       3.810   4.760   0.055  0.00  0.00    -0.016 A 
ATOM     15  C   UNL     1       2.683   5.332  -0.567  0.00  0.00    +0.012 A 
ATOM     16  C   UNL     1       2.468   6.713  -0.569  0.00  0.00    +0.046 A 
ATOM     17  C   UNL     1       3.386   7.551   0.041  0.00  0.00    +0.117 A 
ATOM     18  C   UNL     1       4.522   7.031   0.647  0.00  0.00    +0.046 A 
ATOM     19  C   UNL     1       4.727   5.645   0.656  0.00  0.00    +0.012 A 
BRANCH  17  20
ATOM     20  O   UNL     1       3.132   8.890   0.029  0.00  0.00    -0.507 OA
ATOM     21  H   UNL     1       3.822   9.342   0.541  0.00  0.00    +0.292 HD
ENDBRANCH  17  20
ENDBRANCH   5  14
TORSDOF 2
