REMARK  Name = 
REMARK  9 active torsions:
REMARK  status: ('A' for Active; 'I' for Inactive)
REMARK    1  A    between atoms: C_1  and  C_2
REMARK    2  A    between atoms: C_2  and  N_3
REMARK    3  A    between atoms: C_4  and  C_6
REMARK    4  A    between atoms: C_9  and  C_24
REMARK    5  A    between atoms: C_10  and  C_11
REMARK    6  A    between atoms: C_14  and  C_15
REMARK    7  A    between atoms: C_15  and  N_16
REMARK    8  A    between atoms: C_25  and  O_26
REMARK    9  A    between atoms: C_28  and  O_29
REMARK                            x       y       z     vdW  Elec       q    Type
REMARK                         _______ _______ _______ _____ _____    ______ ____
ROOT
ATOM      1  C   UNL     1       4.880   2.182  -2.263  0.00  0.00    +0.176 A 
ATOM      2  C   UNL     1       5.606   1.690  -3.396  0.00  0.00    +0.061 A 
ATOM      3  C   UNL     1       5.577   2.748  -4.296  0.00  0.00    +0.179 A 
ATOM      4  O   UNL     1       4.901   3.787  -3.729  0.00  0.00    -0.353 OA
ATOM      5  N   UNL     1       4.475   3.449  -2.467  0.00  0.00    -0.072 NA
ENDROOT
BRANCH   3   6
ATOM      6  C   UNL     1       6.087   3.039  -5.639  0.00  0.00    +0.064 A 
ATOM      7  C   UNL     1       7.378   2.634  -6.016  0.00  0.00    +0.039 A 
ATOM      8  C   UNL     1       7.865   2.877  -7.306  0.00  0.00    +0.083 A 
ATOM      9 CL   UNL     1       9.433   2.285  -7.719  0.00  0.00    -0.080 Cl
ATOM     10  C   UNL     1       7.082   3.570  -8.231  0.00  0.00    +0.139 A 
ATOM     11  C   UNL     1       5.806   3.996  -7.878  0.00  0.00    +0.093 A 
ATOM     12  C   UNL     1       5.312   3.717  -6.599  0.00  0.00    +0.131 A 
BRANCH  10  13
ATOM     13  O   UNL     1       7.564   3.827  -9.485  0.00  0.00    -0.505 OA
ATOM     14  H   UNL     1       6.908   4.340  -9.985  0.00  0.00    +0.292 HD
ENDBRANCH  10  13
BRANCH  12  15
ATOM     15  O   UNL     1       4.023   4.127  -6.375  0.00  0.00    -0.506 OA
ATOM     16  H   UNL     1       3.758   3.895  -5.467  0.00  0.00    +0.292 HD
ENDBRANCH  12  15
ENDBRANCH   3   6
BRANCH   2  17
ATOM     17  C   UNL     1       6.342   0.447  -3.605  0.00  0.00    -0.012 A 
ATOM     18  C   UNL     1       6.365  -0.166  -4.861  0.00  0.00    +0.009 A 
ATOM     19  C   UNL     1       7.326  -1.133  -5.160  0.00  0.00    +0.005 A 
ATOM     20  C   UNL     1       8.239  -1.553  -4.186  0.00  0.00    -0.033 A 
ATOM     21  C   UNL     1       8.097  -1.074  -2.880  0.00  0.00    +0.005 A 
ATOM     22  C   UNL     1       7.163  -0.072  -2.594  0.00  0.00    +0.009 A 
BRANCH  20  23
ATOM     23  C   UNL     1       9.422  -2.411  -4.580  0.00  0.00    +0.119 C 
BRANCH  23  24
ATOM     24  N   UNL     1       9.535  -3.690  -3.866  0.00  0.00    -0.294 NA
ATOM     25  C   UNL     1      10.783  -4.388  -4.264  0.00  0.00    +0.113 C 
ATOM     26  C   UNL     1      10.742  -4.995  -5.679  0.00  0.00    +0.175 C 
ATOM     27  O   UNL     1       9.623  -5.874  -5.841  0.00  0.00    -0.377 OA
ATOM     28  C   UNL     1       8.394  -5.196  -5.553  0.00  0.00    +0.175 C 
ATOM     29  C   UNL     1       8.400  -4.601  -4.135  0.00  0.00    +0.113 C 
ENDBRANCH  23  24
ENDBRANCH  20  23
ENDBRANCH   2  17
BRANCH   1  32
ATOM     30  N   UNL     1       4.192   2.327   0.028  0.00  0.00    -0.310 N 
ATOM     31  H   UNL     1       4.142   3.321  -0.168  0.00  0.00    +0.149 HD
ATOM     32  C   UNL     1       4.540   1.493  -1.013  0.00  0.00    +0.266 C 
ATOM     33  O   UNL     1       4.558   0.268  -0.904  0.00  0.00    -0.268 OA
BRANCH  30  35
ATOM     34  C   UNL     1       2.175   1.756   1.281  0.00  0.00    +0.024 C 
ATOM     35  C   UNL     1       3.692   1.816   1.286  0.00  0.00    +0.101 C 
ENDBRANCH  30  35
ENDBRANCH   1  32
TORSDOF 8
