REMARK  Name = 
REMARK  12 active torsions:
REMARK  status: ('A' for Active; 'I' for Inactive)
REMARK    1  A    between atoms: C_2  and  C_3
REMARK    2  A    between atoms: C_2  and  C_10
REMARK    3  A    between atoms: C_2  and  C_13
REMARK    4  A    between atoms: C_3  and  C_4
REMARK    5  A    between atoms: C_4  and  C_5
REMARK    6  A    between atoms: C_5  and  C_6
REMARK    7  A    between atoms: C_6  and  C_7
REMARK    8  A    between atoms: C_10  and  O_11
REMARK    9  A    between atoms: C_18  and  O_20
REMARK   10  A    between atoms: C_22  and  C_25
REMARK   11  A    between atoms: C_27  and  O_28
REMARK   12  A    between atoms: O_28  and  C_29
REMARK                            x       y       z     vdW  Elec       q    Type
REMARK                         _______ _______ _______ _____ _____    ______ ____
ROOT
ATOM      1  C   UNL     1       2.763  -1.457   0.296  0.00  0.00    +0.062 C 
ATOM      2  C   UNL     1       2.677  -2.257  -1.046  0.00  0.00    +0.127 C 
ATOM      3  C   UNL     1       2.556  -3.758  -0.728  0.00  0.00    +0.067 C 
ATOM      4  C   UNL     1       2.260  -3.767   0.734  0.00  0.00    -0.041 A 
ATOM      5  C   UNL     1       2.035  -4.909   1.503  0.00  0.00    +0.012 A 
ATOM      6  C   UNL     1       1.889  -4.806   2.896  0.00  0.00    -0.017 A 
ATOM      7  C   UNL     1       1.929  -3.511   3.452  0.00  0.00    +0.009 A 
ATOM      8  C   UNL     1       2.160  -2.369   2.672  0.00  0.00    +0.005 A 
ATOM      9  C   UNL     1       2.322  -2.494   1.302  0.00  0.00    -0.038 A 
ENDROOT
BRANCH   6  10
ATOM     10  C   UNL     1       1.792  -6.005   3.766  0.00  0.00    -0.014 A 
ATOM     11  C   UNL     1       2.515  -7.176   3.471  0.00  0.00    +0.009 A 
ATOM     12  C   UNL     1       2.487  -8.283   4.321  0.00  0.00    +0.004 A 
ATOM     13  C   UNL     1       1.746  -8.234   5.497  0.00  0.00    +0.045 A 
ATOM     14  C   UNL     1       1.018  -7.091   5.825  0.00  0.00    +0.121 A 
ATOM     15  C   UNL     1       1.028  -5.997   4.952  0.00  0.00    +0.054 A 
BRANCH  14  16
ATOM     16  O   UNL     1       0.355  -7.160   7.019  0.00  0.00    -0.495 OA
ATOM     17  C   UNL     1      -0.339  -5.993   7.440  0.00  0.00    +0.277 C 
ENDBRANCH  14  16
ENDBRANCH   6  10
BRANCH   2  18
ATOM     18  O   UNL     1       3.845  -2.002  -1.824  0.00  0.00    -0.391 OA
ATOM     19  H   UNL     1       4.593  -2.487  -1.435  0.00  0.00    +0.210 HD
ENDBRANCH   2  18
BRANCH   1  20
ATOM     20  C   UNL     1       1.991  -0.115   0.173  0.00  0.00    +0.107 C 
BRANCH  20  21
ATOM     21  C   UNL     1       2.562   0.722  -0.967  0.00  0.00    +0.308 C 
ATOM     22  O   UNL     1       1.882   1.109  -1.907  0.00  0.00    -0.251 OA
BRANCH  21  23
ATOM     23  O   UNL     1       3.856   1.078  -0.835  0.00  0.00    -0.480 OA
ATOM     24  H   UNL     1       4.317   0.711  -0.059  0.00  0.00    +0.295 HD
ENDBRANCH  21  23
ENDBRANCH  20  21
BRANCH  20  25
ATOM     25  C   UNL     1       1.954   0.751   1.445  0.00  0.00    +0.015 C 
BRANCH  25  26
ATOM     26  C   UNL     1       1.068   2.001   1.322  0.00  0.00    +0.001 C 
BRANCH  26  27
ATOM     27  C   UNL     1       0.984   2.731   2.666  0.00  0.00    +0.012 C 
BRANCH  27  28
ATOM     28  C   UNL     1       0.070   3.951   2.593  0.00  0.00    +0.127 C 
BRANCH  28  29
ATOM     29  C   UNL     1       0.007   4.631   3.945  0.00  0.00    +0.276 C 
ATOM     30  N   UNL     1      -0.867   4.293   4.835  0.00  0.00    -0.104 NA
ATOM     31  H   UNL     1      -1.463   3.536   4.484  0.00  0.00    +0.363 HD
ATOM     32  N   UNL     1       0.894   5.613   4.245  0.00  0.00    -0.251 N 
ATOM     33  H   UNL     1       0.612   6.146   5.063  0.00  0.00    +0.288 HD
ATOM     34  H   UNL     1       1.233   6.185   3.482  0.00  0.00    +0.288 HD
ENDBRANCH  28  29
ENDBRANCH  27  28
ENDBRANCH  26  27
ENDBRANCH  25  26
ENDBRANCH  20  25
ENDBRANCH   1  20
TORSDOF 11
