REMARK  Name = 
REMARK  7 active torsions:
REMARK  status: ('A' for Active; 'I' for Inactive)
REMARK    1  A    between atoms: C_7  and  C_8
REMARK    2  A    between atoms: C_7  and  C_9
REMARK    3  A    between atoms: C_11  and  C_12
REMARK    4  A    between atoms: C_12  and  C_14
REMARK    5  A    between atoms: C_16  and  C_17
REMARK    6  A    between atoms: C_19  and  O_21
REMARK    7  A    between atoms: C_34  and  C_35
REMARK                            x       y       z     vdW  Elec       q    Type
REMARK                         _______ _______ _______ _____ _____    ______ ____
ROOT
ATOM      1  C   UNL     1      -0.000  -0.000  -0.000  0.00  0.00    +0.007 C 
ATOM      2  C   UNL     1      -0.000  -0.000  -0.000  0.00  0.00    +0.034 C 
ATOM      3  C   UNL     1      -0.000  -0.000   0.000  0.00  0.00    +0.011 C 
ATOM      4  C   UNL     1      -0.000  -0.000   0.000  0.00  0.00    +0.032 C 
ATOM      5  C   UNL     1      -0.000  -0.000  -0.000  0.00  0.00    -0.057 C 
ATOM      6  C   UNL     1      -0.000  -0.000  -0.000  0.00  0.00    +0.026 C 
ATOM      7  C   UNL     1      -0.000  -0.000  -0.000  0.00  0.00    +0.019 C 
ATOM      8  C   UNL     1      -0.000  -0.000   0.000  0.00  0.00    +0.022 C 
ATOM      9  C   UNL     1      -0.000  -0.000  -0.000  0.00  0.00    +0.080 C 
ATOM     10  C   UNL     1      -0.000  -0.000   0.000  0.00  0.00    +0.156 C 
ATOM     11  O   UNL     1      -0.000  -0.000  -0.000  0.00  0.00    -0.293 OA
ATOM     12  C   UNL     1      -0.000  -0.000  -0.000  0.00  0.00    +0.046 C 
ATOM     13  C   UNL     1      -0.000  -0.000  -0.000  0.00  0.00    +0.149 C 
ATOM     14  F   UNL     1      -0.000  -0.000   0.000  0.00  0.00    -0.238 F 
ATOM     15  C   UNL     1      -0.000  -0.000  -0.000  0.00  0.00    +0.153 C 
ATOM     16  C   UNL     1      -0.000  -0.000   0.000  0.00  0.00    +0.044 C 
ATOM     17  C   UNL     1      -0.000  -0.000   0.000  0.00  0.00    +0.012 C 
ATOM     18  C   UNL     1      -0.000  -0.000  -0.000  0.00  0.00    +0.015 C 
ATOM     19  C   UNL     1      -0.000  -0.000  -0.000  0.00  0.00    +0.163 C 
ATOM     20  C   UNL     1      -0.000  -0.000  -0.000  0.00  0.00    +0.162 C 
ATOM     21  O   UNL     1      -0.000  -0.000   0.000  0.00  0.00    -0.343 OA
ATOM     22  C   UNL     1      -0.000  -0.000  -0.000  0.00  0.00    +0.166 C 
ATOM     23  C   UNL     1      -0.000  -0.000  -0.000  0.00  0.00    +0.074 C 
ATOM     24  C   UNL     1      -0.000  -0.000   0.000  0.00  0.00    +0.074 C 
ATOM     25  O   UNL     1      -0.000  -0.000   0.000  0.00  0.00    -0.332 OA
ATOM     26  C   UNL     1      -0.000  -0.000  -0.000  0.00  0.00    +0.039 C 
ENDROOT
BRANCH  15  27
ATOM     27  O   UNL     1      -0.000  -0.000   0.000  0.00  0.00    -0.389 OA
ATOM     28  H   UNL     1       0.000   0.000   0.000  0.00  0.00    +0.210 HD
ENDBRANCH  15  27
BRANCH  19  29
ATOM     29  C   UNL     1      -0.000  -0.000  -0.000  0.00  0.00    +0.182 C 
ATOM     30  O   UNL     1      -0.000  -0.000  -0.000  0.00  0.00    -0.293 OA
BRANCH  29  31
ATOM     31  C   UNL     1      -0.000  -0.000   0.000  0.00  0.00    +0.186 C 
ATOM     32 CL   UNL     1      -0.000  -0.000  -0.000  0.00  0.00    -0.117 Cl
ENDBRANCH  29  31
ENDBRANCH  19  29
TORSDOF 3
