REMARK  Name = 
REMARK  14 active torsions:
REMARK  status: ('A' for Active; 'I' for Inactive)
REMARK    1  A    between atoms: C_2  and  O_3
REMARK    2  A    between atoms: C_2  and  C_4
REMARK    3  A    between atoms: C_2  and  C_25
REMARK    4  A    between atoms: C_4  and  C_5
REMARK    5  A    between atoms: C_5  and  C_6
REMARK    6  A    between atoms: C_7  and  C_18
REMARK    7  A    between atoms: N_14  and  C_15
REMARK    8  A    between atoms: C_15  and  C_16
REMARK    9  A    between atoms: C_15  and  C_17
REMARK   10  A    between atoms: C_25  and  C_26
REMARK   11  A    between atoms: C_26  and  O_28
REMARK   12  A    between atoms: C_26  and  C_29
REMARK   13  A    between atoms: C_29  and  C_30
REMARK   14  A    between atoms: C_30  and  O_31
REMARK                            x       y       z     vdW  Elec       q    Type
REMARK                         _______ _______ _______ _____ _____    ______ ____
ROOT
ATOM      1  C   UNL     1       2.448  -0.655  -3.601  0.00  0.00    +0.028 A 
ATOM      2  N   UNL     1       2.606   0.563  -4.268  0.00  0.00    -0.341 N 
ATOM      3  C   UNL     1       3.158   0.329  -5.531  0.00  0.00    +0.050 A 
ATOM      4  C   UNL     1       3.474   1.218  -6.582  0.00  0.00    +0.026 A 
ATOM      5  C   UNL     1       3.979   0.707  -7.779  0.00  0.00    +0.002 A 
ATOM      6  C   UNL     1       4.151  -0.657  -7.943  0.00  0.00    +0.001 A 
ATOM      7  C   UNL     1       3.841  -1.534  -6.900  0.00  0.00    +0.010 A 
ATOM      8  C   UNL     1       3.357  -1.044  -5.661  0.00  0.00    +0.008 A 
ATOM      9  C   UNL     1       2.984  -1.663  -4.420  0.00  0.00    +0.011 A 
ENDROOT
BRANCH   9  10
ATOM     10  C   UNL     1       3.120  -3.100  -4.077  0.00  0.00    -0.015 A 
ATOM     11  C   UNL     1       4.254  -3.816  -4.502  0.00  0.00    +0.011 A 
ATOM     12  C   UNL     1       4.402  -5.184  -4.227  0.00  0.00    +0.039 A 
ATOM     13  C   UNL     1       3.431  -5.845  -3.492  0.00  0.00    +0.123 A 
ATOM     14  F   UNL     1       3.584  -7.144  -3.208  0.00  0.00    -0.205 F 
ATOM     15  C   UNL     1       2.309  -5.171  -3.047  0.00  0.00    +0.039 A 
ATOM     16  C   UNL     1       2.151  -3.816  -3.360  0.00  0.00    +0.011 A 
ENDBRANCH   9  10
BRANCH   2  17
ATOM     17  C   UNL     1       2.195   1.925  -3.886  0.00  0.00    +0.081 C 
ATOM     18  C   UNL     1       2.444   2.396  -2.453  0.00  0.00    +0.030 C 
ATOM     19  C   UNL     1       0.774   2.253  -4.352  0.00  0.00    +0.030 C 
ENDBRANCH   2  17
BRANCH   1  20
ATOM     20  C   UNL     1       1.771  -0.811  -2.260  0.00  0.00    +0.056 C 
BRANCH  20  21
ATOM     21  C   UNL     1       0.258  -1.009  -2.450  0.00  0.00    +0.037 C 
BRANCH  21  22
ATOM     22  C   UNL     1      -0.476  -1.556  -1.222  0.00  0.00    +0.117 C 
BRANCH  22  23
ATOM     23  O   UNL     1      -0.467  -0.561  -0.198  0.00  0.00    -0.392 OA
ATOM     24  H   UNL     1       0.435  -0.492   0.159  0.00  0.00    +0.210 HD
ENDBRANCH  22  23
BRANCH  22  25
ATOM     25  C   UNL     1      -1.949  -1.874  -1.544  0.00  0.00    +0.063 C 
BRANCH  25  26
ATOM     26  C   UNL     1      -2.178  -3.006  -2.555  0.00  0.00    +0.128 C 
BRANCH  26  27
ATOM     27  O   UNL     1      -1.661  -4.246  -2.049  0.00  0.00    -0.391 OA
ATOM     28  H   UNL     1      -0.690  -4.174  -2.013  0.00  0.00    +0.210 HD
ENDBRANCH  26  27
BRANCH  26  29
ATOM     29  C   UNL     1      -3.672  -3.206  -2.821  0.00  0.00    +0.151 C 
BRANCH  29  30
ATOM     30  C   UNL     1      -3.935  -4.238  -3.896  0.00  0.00    +0.307 C 
ATOM     31  O   UNL     1      -4.794  -4.107  -4.757  0.00  0.00    -0.251 OA
BRANCH  30  32
ATOM     32  O   UNL     1      -3.196  -5.363  -3.775  0.00  0.00    -0.481 OA
ATOM     33  H   UNL     1      -2.579  -5.303  -3.006  0.00  0.00    +0.295 HD
ENDBRANCH  30  32
ENDBRANCH  29  30
ENDBRANCH  26  29
ENDBRANCH  25  26
ENDBRANCH  22  25
ENDBRANCH  21  22
ENDBRANCH  20  21
ENDBRANCH   1  20
TORSDOF 12
