REMARK  Name = 
REMARK  6 active torsions:
REMARK  status: ('A' for Active; 'I' for Inactive)
REMARK    1  A    between atoms: C_1  and  N_2
REMARK    2  A    between atoms: C_3  and  C_5
REMARK    3  A    between atoms: C_9  and  O_10
REMARK    4  A    between atoms: O_10  and  C_11
REMARK    5  A    between atoms: N_19  and  C_20
REMARK    6  A    between atoms: C_22  and  C_27
REMARK                            x       y       z     vdW  Elec       q    Type
REMARK                         _______ _______ _______ _____ _____    ______ ____
ROOT
ATOM      1  C   UNL     1       6.744   2.667   3.005  0.00  0.00    +0.131 A 
ATOM      2  C   UNL     1       6.090   1.875   3.959  0.00  0.00    +0.048 A 
ATOM      3  C   UNL     1       5.440   2.458   5.048  0.00  0.00    +0.033 A 
ATOM      4  C   UNL     1       5.530   3.842   5.211  0.00  0.00    +0.091 A 
ATOM      5  N   UNL     1       5.006   4.618   6.198  0.00  0.00    -0.214 NA
ATOM      6  C   UNL     1       5.416   5.843   5.966  0.00  0.00    +0.198 A 
ATOM      7  N   UNL     1       6.154   5.885   4.806  0.00  0.00    -0.326 N 
ATOM      8  H   UNL     1       6.577   6.709   4.410  0.00  0.00    +0.169 HD
ATOM      9  N   UNL     1       5.177   6.962   6.692  0.00  0.00    -0.285 N 
ATOM     10  H   UNL     1       5.410   7.879   6.337  0.00  0.00    +0.155 HD
ATOM     11  C   UNL     1       6.246   4.608   4.302  0.00  0.00    +0.071 A 
ATOM     12  C   UNL     1       6.866   4.058   3.176  0.00  0.00    +0.074 A 
ENDROOT
BRANCH   9  13
ATOM     13  C   UNL     1       4.415   6.971   7.883  0.00  0.00    +0.034 A 
ATOM     14  C   UNL     1       3.670   8.102   8.220  0.00  0.00    +0.025 A 
ATOM     15  C   UNL     1       2.791   8.078   9.311  0.00  0.00    +0.022 A 
ATOM     16  C   UNL     1       2.635   6.916  10.074  0.00  0.00    +0.053 A 
ATOM     17 CL   UNL     1       1.494   6.953  11.368  0.00  0.00    -0.083 Cl
ATOM     18  C   UNL     1       3.375   5.774   9.772  0.00  0.00    +0.075 A 
ATOM     19  C   UNL     1       4.272   5.831   8.692  0.00  0.00    +0.037 A 
BRANCH  18  20
ATOM     20  C   UNL     1       3.209   4.484  10.528  0.00  0.00    +0.419 C 
ATOM     21  F   UNL     1       1.944   3.982  10.453  0.00  0.00    -0.166 F 
ATOM     22  F   UNL     1       3.494   4.603  11.855  0.00  0.00    -0.166 F 
ATOM     23  F   UNL     1       4.019   3.480  10.080  0.00  0.00    -0.166 F 
ENDBRANCH  18  20
ENDBRANCH   9  13
BRANCH   1  24
ATOM     24  O   UNL     1       7.350   2.146   1.875  0.00  0.00    -0.456 OA
BRANCH  24  27
ATOM     25  C   UNL     1       5.067  -0.468   0.676  0.00  0.00    +0.129 A 
ATOM     26  C   UNL     1       5.460   0.750   1.207  0.00  0.00    +0.079 A 
ATOM     27  C   UNL     1       6.824   1.011   1.295  0.00  0.00    +0.132 A 
ATOM     28  C   UNL     1       7.732   0.107   0.752  0.00  0.00    +0.066 A 
ATOM     29  C   UNL     1       7.240  -1.063   0.196  0.00  0.00    +0.115 A 
ATOM     30  N   UNL     1       5.930  -1.389   0.160  0.00  0.00    -0.250 NA
BRANCH  25  34
ATOM     31  C   UNL     1       1.996  -2.640   0.299  0.00  0.00    +0.128 C 
ATOM     32  N   UNL     1       3.326  -2.099   0.236  0.00  0.00    -0.313 N 
ATOM     33  H   UNL     1       4.106  -2.652  -0.113  0.00  0.00    +0.149 HD
ATOM     34  C   UNL     1       3.619  -0.848   0.732  0.00  0.00    +0.262 C 
ATOM     35  O   UNL     1       2.780  -0.096   1.215  0.00  0.00    -0.269 OA
ENDBRANCH  25  34
ENDBRANCH  24  27
ENDBRANCH   1  24
TORSDOF 5
