REMARK  Name = 
REMARK  8 active torsions:
REMARK  status: ('A' for Active; 'I' for Inactive)
REMARK    1  A    between atoms: C_1  and  C_2
REMARK    2  A    between atoms: C_2  and  C_3
REMARK    3  A    between atoms: C_2  and  C_4
REMARK    4  A    between atoms: C_4  and  O_5
REMARK    5  A    between atoms: O_5  and  C_6
REMARK    6  A    between atoms: C_7  and  O_8
REMARK    7  A    between atoms: C_9  and  C_13
REMARK    8  A    between atoms: C_17  and  C_18
REMARK                            x       y       z     vdW  Elec       q    Type
REMARK                         _______ _______ _______ _____ _____    ______ ____
ROOT
ATOM      1  C   UNL     1       6.669  -2.370  -4.977  0.00  0.00    +0.143 A 
ATOM      2  N   UNL     1       5.940  -3.532  -4.862  0.00  0.00    -0.338 N 
ATOM      3  H   UNL     1       5.101  -3.619  -4.305  0.00  0.00    +0.167 HD
ATOM      4  C   UNL     1       6.587  -4.527  -5.547  0.00  0.00    +0.069 A 
ATOM      5  C   UNL     1       7.714  -3.903  -6.063  0.00  0.00    +0.090 A 
ATOM      6  C   UNL     1       8.658  -4.653  -6.781  0.00  0.00    +0.048 A 
ATOM      7  C   UNL     1       8.437  -6.028  -6.966  0.00  0.00    +0.102 A 
ATOM      8  C   UNL     1       7.269  -6.612  -6.454  0.00  0.00    +0.140 A 
ATOM      9  F   UNL     1       7.034  -7.923  -6.627  0.00  0.00    -0.205 F 
ATOM     10  C   UNL     1       6.315  -5.881  -5.736  0.00  0.00    +0.067 A 
ATOM     11  N   UNL     1       7.724  -2.570  -5.747  0.00  0.00    -0.228 NA
ENDROOT
BRANCH   1  16
ATOM     12  C   UNL     1       5.238   0.203  -2.559  0.00  0.00    +0.162 A 
ATOM     13  C   UNL     1       5.641   1.380  -3.192  0.00  0.00    +0.049 A 
ATOM     14  C   UNL     1       6.382   1.324  -4.373  0.00  0.00    +0.004 A 
ATOM     15  C   UNL     1       6.712   0.091  -4.934  0.00  0.00    +0.015 A 
ATOM     16  C   UNL     1       6.293  -1.107  -4.338  0.00  0.00    +0.062 A 
ATOM     17  C   UNL     1       5.560  -1.034  -3.145  0.00  0.00    +0.169 A 
BRANCH  17  18
ATOM     18  O   UNL     1       5.159  -2.188  -2.509  0.00  0.00    -0.503 OA
ATOM     19  H   UNL     1       4.817  -1.887  -1.642  0.00  0.00    +0.292 HD
ENDBRANCH  17  18
BRANCH  12  20
ATOM     20  O   UNL     1       4.544   0.138  -1.371  0.00  0.00    -0.488 OA
BRANCH  20  21
ATOM     21  C   UNL     1       4.201   1.404  -0.794  0.00  0.00    +0.232 C 
BRANCH  21  23
ATOM     22  C   UNL     1       4.471   0.554   1.573  0.00  0.00    +0.010 C 
ATOM     23  C   UNL     1       3.524   1.213   0.570  0.00  0.00    +0.020 C 
ATOM     24  C   UNL     1       3.054   2.569   1.098  0.00  0.00    +0.010 C 
ENDBRANCH  21  23
ENDBRANCH  20  21
ENDBRANCH  12  20
ENDBRANCH   1  16
BRANCH   7  25
ATOM     25  C   UNL     1       9.463  -6.852  -7.676  0.00  0.00    +0.311 C 
ATOM     26  N   UNL     1       9.343  -8.126  -7.886  0.00  0.00    -0.099 NA
ATOM     27  H   UNL     1       8.463  -8.487  -7.496  0.00  0.00    +0.363 HD
ATOM     28  N   UNL     1      10.618  -6.301  -8.151  0.00  0.00    -0.247 N 
ATOM     29  H   UNL     1      11.105  -6.962  -8.750  0.00  0.00    +0.288 HD
ATOM     30  H   UNL     1      10.561  -5.381  -8.566  0.00  0.00    +0.288 HD
ENDBRANCH   7  25
TORSDOF 6
