REMARK  Name = 
REMARK  10 active torsions:
REMARK  status: ('A' for Active; 'I' for Inactive)
REMARK    1  A    between atoms: C_2  and  C_3
REMARK    2  A    between atoms: C_3  and  C_4
REMARK    3  A    between atoms: N_10  and  C_11
REMARK    4  A    between atoms: C_11  and  C_12
REMARK    5  A    between atoms: N_16  and  C_17
REMARK    6  A    between atoms: C_17  and  C_18
REMARK    7  A    between atoms: C_20  and  C_22
REMARK    8  A    between atoms: C_22  and  C_23
REMARK    9  A    between atoms: C_29  and  O_31
REMARK   10  A    between atoms: C_32  and  O_34
REMARK                            x       y       z     vdW  Elec       q    Type
REMARK                         _______ _______ _______ _____ _____    ______ ____
ROOT
ATOM      1  C   UNL     1       2.089  -0.285   0.009  0.00  0.00    +0.113 C 
ATOM      2  C   UNL     1       2.431   1.099  -0.629  0.00  0.00    +0.165 C 
ATOM      3  C   UNL     1       3.902   1.518  -0.365  0.00  0.00    +0.165 C 
ATOM      4  C   UNL     1       4.945   0.859  -1.342  0.00  0.00    +0.113 C 
ATOM      5  N   UNL     1       4.487  -0.481  -1.818  0.00  0.00    -0.276 N 
ATOM      6  C   UNL     1       4.081  -1.365  -0.809  0.00  0.00    +0.306 C 
ATOM      7  O   UNL     1       4.839  -1.784   0.056  0.00  0.00    -0.252 OA
ATOM      8  N   UNL     1       2.685  -1.424  -0.732  0.00  0.00    -0.276 N 
ENDROOT
BRANCH   2   9
ATOM      9  O   UNL     1       2.110   1.120  -2.018  0.00  0.00    -0.387 OA
ATOM     10  H   UNL     1       2.667   0.425  -2.419  0.00  0.00    +0.210 HD
ENDBRANCH   2   9
BRANCH   3  11
ATOM     11  O   UNL     1       4.164   1.302   1.026  0.00  0.00    -0.387 OA
ATOM     12  H   UNL     1       5.055   1.618   1.239  0.00  0.00    +0.210 HD
ENDBRANCH   3  11
BRANCH   1  13
ATOM     13  C   UNL     1       0.576  -0.364   0.339  0.00  0.00    +0.060 C 
BRANCH  13  14
ATOM     14  C   UNL     1       0.222  -1.629   1.086  0.00  0.00    -0.046 A 
ATOM     15  C   UNL     1      -0.665  -2.552   0.523  0.00  0.00    +0.004 A 
ATOM     16  C   UNL     1      -0.805  -3.819   1.085  0.00  0.00    +0.000 A 
ATOM     17  C   UNL     1      -0.081  -4.160   2.227  0.00  0.00    +0.000 A 
ATOM     18  C   UNL     1       0.730  -3.213   2.848  0.00  0.00    +0.000 A 
ATOM     19  C   UNL     1       0.866  -1.945   2.291  0.00  0.00    +0.004 A 
ENDBRANCH  13  14
ENDBRANCH   1  13
BRANCH   4  20
ATOM     20  C   UNL     1       6.402   0.904  -0.794  0.00  0.00    +0.060 C 
BRANCH  20  21
ATOM     21  C   UNL     1       6.882   2.286  -0.366  0.00  0.00    -0.046 A 
ATOM     22  C   UNL     1       6.851   3.374  -1.250  0.00  0.00    +0.004 A 
ATOM     23  C   UNL     1       7.259   4.645  -0.835  0.00  0.00    +0.000 A 
ATOM     24  C   UNL     1       7.706   4.850   0.469  0.00  0.00    +0.000 A 
ATOM     25  C   UNL     1       7.763   3.777   1.353  0.00  0.00    +0.000 A 
ATOM     26  C   UNL     1       7.366   2.502   0.937  0.00  0.00    +0.004 A 
ENDBRANCH  20  21
ENDBRANCH   4  20
BRANCH   5  27
ATOM     27  C   UNL     1       5.189  -1.135  -2.912  0.00  0.00    +0.136 C 
BRANCH  27  28
ATOM     28  C   UNL     1       5.120  -0.298  -4.152  0.00  0.00    -0.016 C 
ATOM     29  C   UNL     1       6.182   0.010  -4.906  0.00  0.00    +0.005 C 
ENDBRANCH  27  28
ENDBRANCH   5  27
BRANCH   8  30
ATOM     30  C   UNL     1       1.961  -2.099  -1.806  0.00  0.00    +0.136 C 
BRANCH  30  31
ATOM     31  C   UNL     1       2.120  -3.583  -1.608  0.00  0.00    -0.016 C 
ATOM     32  C   UNL     1       2.605  -4.455  -2.504  0.00  0.00    +0.005 C 
ENDBRANCH  30  31
ENDBRANCH   8  30
TORSDOF 10
