REMARK  Name = 
REMARK  52 active torsions:
REMARK  status: ('A' for Active; 'I' for Inactive)
REMARK    1  A    between atoms: C_1  and  C_2
REMARK    2  A    between atoms: C_2  and  O_3
REMARK    3  A    between atoms: C_5  and  C_6
REMARK    4  A    between atoms: C_6  and  O_7
REMARK    5  A    between atoms: CA_10  and  C_11
REMARK    6  A    between atoms: CA_10  and  N_13
REMARK    7  A    between atoms: CA_10  and  C_49
REMARK    8  A    between atoms: C_11  and  O_12
REMARK    9  A    between atoms: C_14  and  O_15
REMARK   10  A    between atoms: C_14  and  CA_16
REMARK   11  A    between atoms: CA_16  and  CB_18
REMARK   12  A    between atoms: CA_16  and  N_28
REMARK   13  A    between atoms: CB_18  and  CG_19
REMARK   14  A    between atoms: C_29  and  O_30
REMARK   15  A    between atoms: C_29  and  CA_31
REMARK   16  A    between atoms: CA_31  and  CB_33
REMARK   17  A    between atoms: CA_31  and  N_39
REMARK   18  A    between atoms: CB_33  and  CG_34
REMARK   19  A    between atoms: C_40  and  O_41
REMARK   20  A    between atoms: C_40  and  CA_42
REMARK   21  A    between atoms: C_46  and  O_47
REMARK   22  A    between atoms: C_49  and  O_50
REMARK   23  A    between atoms: N_51  and  C_52
REMARK   24  A    between atoms: C_52  and  C_54
REMARK   25  A    between atoms: C_52  and  C_62
REMARK   26  A    between atoms: C_54  and  C_55
REMARK   27  A    between atoms: C_58  and  O_59
REMARK   28  A    between atoms: C_62  and  O_63
REMARK   29  A    between atoms: N_64  and  C_65
REMARK   30  A    between atoms: C_65  and  C_67
REMARK   31  A    between atoms: C_65  and  C_80
REMARK   32  A    between atoms: C_67  and  C_68
REMARK   33  A    between atoms: N_70  and  C_71
REMARK   34  A    between atoms: C_71  and  C_72
REMARK   35  A    between atoms: C_80  and  O_81
REMARK   36  A    between atoms: N_82  and  C_83
REMARK   37  A    between atoms: C_83  and  C_85
REMARK   38  A    between atoms: C_83  and  C_89
REMARK   39  A    between atoms: C_85  and  C_86
REMARK   40  A    between atoms: C_86  and  C_87
REMARK   41  A    between atoms: C_86  and  C_88
REMARK   42  A    between atoms: C_89  and  O_90
REMARK   43  A    between atoms: N_91  and  C_92
REMARK   44  A    between atoms: C_92  and  C_94
REMARK   45  A    between atoms: C_92  and  C_101
REMARK   46  A    between atoms: C_94  and  C_95
REMARK   47  A    between atoms: C_95  and  C_96
REMARK   48  A    between atoms: C_96  and  N_97
REMARK   49  A    between atoms: C_107  and  C_109
REMARK   50  A    between atoms: C_109  and  O_110
REMARK   51  A    between atoms: N_111  and  C_112
REMARK   52  A    between atoms: C_112  and  C_113
REMARK                            x       y       z     vdW  Elec       q    Type
REMARK                         _______ _______ _______ _____ _____    ______ ____
ROOT
ATOM      1  C   UNL     1       1.057  -0.364   0.780  0.00  0.00    +0.136 C 
ATOM      2  C   UNL     1       2.170   0.094   1.684  0.00  0.00    +0.302 C 
ATOM      3  O   UNL     1       2.842  -0.688   2.338  0.00  0.00    -0.251 OA
ENDROOT
BRANCH   2   4
ATOM      4  O   UNL     1       2.506   1.402   1.611  0.00  0.00    -0.481 OA
ATOM      5  H   UNL     1       1.944   1.979   1.054  0.00  0.00    +0.295 HD
ENDBRANCH   2   4
TORSDOF 1
REMARK  Name = 
REMARK  52 active torsions:
REMARK  status: ('A' for Active; 'I' for Inactive)
REMARK    1  A    between atoms: C_1  and  C_2
REMARK    2  A    between atoms: C_2  and  O_3
REMARK    3  A    between atoms: C_5  and  C_6
REMARK    4  A    between atoms: C_6  and  O_7
REMARK    5  A    between atoms: CA_10  and  C_11
REMARK    6  A    between atoms: CA_10  and  N_13
REMARK    7  A    between atoms: CA_10  and  C_49
REMARK    8  A    between atoms: C_11  and  O_12
REMARK    9  A    between atoms: C_14  and  O_15
REMARK   10  A    between atoms: C_14  and  CA_16
REMARK   11  A    between atoms: CA_16  and  CB_18
REMARK   12  A    between atoms: CA_16  and  N_28
REMARK   13  A    between atoms: CB_18  and  CG_19
REMARK   14  A    between atoms: C_29  and  O_30
REMARK   15  A    between atoms: C_29  and  CA_31
REMARK   16  A    between atoms: CA_31  and  CB_33
REMARK   17  A    between atoms: CA_31  and  N_39
REMARK   18  A    between atoms: CB_33  and  CG_34
REMARK   19  A    between atoms: C_40  and  O_41
REMARK   20  A    between atoms: C_40  and  CA_42
REMARK   21  A    between atoms: C_46  and  O_47
REMARK   22  A    between atoms: C_49  and  O_50
REMARK   23  A    between atoms: N_51  and  C_52
REMARK   24  A    between atoms: C_52  and  C_54
REMARK   25  A    between atoms: C_52  and  C_62
REMARK   26  A    between atoms: C_54  and  C_55
REMARK   27  A    between atoms: C_58  and  O_59
REMARK   28  A    between atoms: C_62  and  O_63
REMARK   29  A    between atoms: N_64  and  C_65
REMARK   30  A    between atoms: C_65  and  C_67
REMARK   31  A    between atoms: C_65  and  C_80
REMARK   32  A    between atoms: C_67  and  C_68
REMARK   33  A    between atoms: N_70  and  C_71
REMARK   34  A    between atoms: C_71  and  C_72
REMARK   35  A    between atoms: C_80  and  O_81
REMARK   36  A    between atoms: N_82  and  C_83
REMARK   37  A    between atoms: C_83  and  C_85
REMARK   38  A    between atoms: C_83  and  C_89
REMARK   39  A    between atoms: C_85  and  C_86
REMARK   40  A    between atoms: C_86  and  C_87
REMARK   41  A    between atoms: C_86  and  C_88
REMARK   42  A    between atoms: C_89  and  O_90
REMARK   43  A    between atoms: N_91  and  C_92
REMARK   44  A    between atoms: C_92  and  C_94
REMARK   45  A    between atoms: C_92  and  C_101
REMARK   46  A    between atoms: C_94  and  C_95
REMARK   47  A    between atoms: C_95  and  C_96
REMARK   48  A    between atoms: C_96  and  N_97
REMARK   49  A    between atoms: C_107  and  C_109
REMARK   50  A    between atoms: C_109  and  O_110
REMARK   51  A    between atoms: N_111  and  C_112
REMARK   52  A    between atoms: C_112  and  C_113
REMARK                            x       y       z     vdW  Elec       q    Type
REMARK                         _______ _______ _______ _____ _____    ______ ____
ROOT
ATOM      1  C   UNL     1       3.425   0.271  -1.005  0.00  0.00    +0.136 C 
ATOM      2  C   UNL     1       4.811   0.790  -1.074  0.00  0.00    +0.302 C 
ATOM      3  O   UNL     1       5.435   0.918  -2.113  0.00  0.00    -0.251 OA
ENDROOT
BRANCH   2   4
ATOM      4  O   UNL     1       5.312   1.079   0.149  0.00  0.00    -0.481 OA
ATOM      5  H   UNL     1       4.657   1.016   0.881  0.00  0.00    +0.295 HD
ENDBRANCH   2   4
TORSDOF 1
REMARK  Name = 
REMARK  52 active torsions:
REMARK  status: ('A' for Active; 'I' for Inactive)
REMARK    1  A    between atoms: C_1  and  C_2
REMARK    2  A    between atoms: C_2  and  O_3
REMARK    3  A    between atoms: C_5  and  C_6
REMARK    4  A    between atoms: C_6  and  O_7
REMARK    5  A    between atoms: CA_10  and  C_11
REMARK    6  A    between atoms: CA_10  and  N_13
REMARK    7  A    between atoms: CA_10  and  C_49
REMARK    8  A    between atoms: C_11  and  O_12
REMARK    9  A    between atoms: C_14  and  O_15
REMARK   10  A    between atoms: C_14  and  CA_16
REMARK   11  A    between atoms: CA_16  and  CB_18
REMARK   12  A    between atoms: CA_16  and  N_28
REMARK   13  A    between atoms: CB_18  and  CG_19
REMARK   14  A    between atoms: C_29  and  O_30
REMARK   15  A    between atoms: C_29  and  CA_31
REMARK   16  A    between atoms: CA_31  and  CB_33
REMARK   17  A    between atoms: CA_31  and  N_39
REMARK   18  A    between atoms: CB_33  and  CG_34
REMARK   19  A    between atoms: C_40  and  O_41
REMARK   20  A    between atoms: C_40  and  CA_42
REMARK   21  A    between atoms: C_46  and  O_47
REMARK   22  A    between atoms: C_49  and  O_50
REMARK   23  A    between atoms: N_51  and  C_52
REMARK   24  A    between atoms: C_52  and  C_54
REMARK   25  A    between atoms: C_52  and  C_62
REMARK   26  A    between atoms: C_54  and  C_55
REMARK   27  A    between atoms: C_58  and  O_59
REMARK   28  A    between atoms: C_62  and  O_63
REMARK   29  A    between atoms: N_64  and  C_65
REMARK   30  A    between atoms: C_65  and  C_67
REMARK   31  A    between atoms: C_65  and  C_80
REMARK   32  A    between atoms: C_67  and  C_68
REMARK   33  A    between atoms: N_70  and  C_71
REMARK   34  A    between atoms: C_71  and  C_72
REMARK   35  A    between atoms: C_80  and  O_81
REMARK   36  A    between atoms: N_82  and  C_83
REMARK   37  A    between atoms: C_83  and  C_85
REMARK   38  A    between atoms: C_83  and  C_89
REMARK   39  A    between atoms: C_85  and  C_86
REMARK   40  A    between atoms: C_86  and  C_87
REMARK   41  A    between atoms: C_86  and  C_88
REMARK   42  A    between atoms: C_89  and  O_90
REMARK   43  A    between atoms: N_91  and  C_92
REMARK   44  A    between atoms: C_92  and  C_94
REMARK   45  A    between atoms: C_92  and  C_101
REMARK   46  A    between atoms: C_94  and  C_95
REMARK   47  A    between atoms: C_95  and  C_96
REMARK   48  A    between atoms: C_96  and  N_97
REMARK   49  A    between atoms: C_107  and  C_109
REMARK   50  A    between atoms: C_109  and  O_110
REMARK   51  A    between atoms: N_111  and  C_112
REMARK   52  A    between atoms: C_112  and  C_113
REMARK                            x       y       z     vdW  Elec       q    Type
REMARK                         _______ _______ _______ _____ _____    ______ ____
ROOT
ATOM      1  C   UNL     1       6.121  -2.713   2.497  0.00  0.00    +0.198 C 
ENDROOT
BRANCH   1   3
ATOM      2  C   UNL     1       6.691  -2.564   0.088  0.00  0.00    +0.211 C 
ATOM      3  N   UNL     1       6.754  -1.965   1.257  0.00  0.00    -0.240 NA
BRANCH   2   4
ATOM      4  O   UNL     1       5.861  -3.622  -0.041  0.00  0.00    -0.494 OA
ATOM      5  H   UNL     1       5.721  -3.859  -0.976  0.00  0.00    +0.293 HD
ENDBRANCH   2   4
BRANCH   2   6
ATOM      6  CA  UNL     1       7.285  -2.056  -1.316  0.00  0.00    +0.218 C 
BRANCH   6   7
ATOM      7  N   UNL     1       8.453  -2.653  -1.987  0.00  0.00    -0.238 NA
ATOM      8  C   UNL     1       9.391  -3.273  -2.506  0.00  0.00    +0.209 C 
BRANCH   8   9
ATOM      9  O   UNL     1      10.290  -2.503  -3.208  0.00  0.00    -0.494 OA
ATOM     10  H   UNL     1      10.026  -1.568  -3.172  0.00  0.00    +0.293 HD
ENDBRANCH   8   9
BRANCH   8  11
ATOM     11  CA  UNL     1      10.028  -4.730  -2.532  0.00  0.00    +0.198 C 
BRANCH  11  12
ATOM     12  N   UNL     1      10.134  -5.216  -1.170  0.00  0.00    -0.240 NA
ATOM     13  C   UNL     1      11.078  -4.730  -0.441  0.00  0.00    +0.209 C 
BRANCH  13  14
ATOM     14  O   UNL     1      11.971  -3.765  -0.790  0.00  0.00    -0.494 OA
ATOM     15  H   UNL     1      11.766  -3.267  -1.592  0.00  0.00    +0.293 HD
ENDBRANCH  13  14
BRANCH  13  16
ATOM     16  CA  UNL     1      11.294  -5.160   0.984  0.00  0.00    +0.199 C 
BRANCH  16  17
ATOM     17  N   UNL     1      10.991  -3.957   1.676  0.00  0.00    -0.240 NA
ATOM     18  C   UNL     1      11.471  -3.734   2.822  0.00  0.00    +0.209 C 
BRANCH  18  19
ATOM     19  CA  UNL     1      10.860  -2.674   3.691  0.00  0.00    +0.194 C 
ATOM     20  N   UNL     1      10.713  -0.974   2.626  0.00  0.00    -0.242 NA
ATOM     21  C   UNL     1       9.506  -0.201   2.972  0.00  0.00    +0.183 C 
ATOM     22  C   UNL     1       8.260  -0.842   4.218  0.00  0.00    +0.097 C 
ATOM     23  C   UNL     1       8.967  -2.532   4.925  0.00  0.00    +0.046 C 
BRANCH  21  24
ATOM     24  O   UNL     1       8.873   0.836   2.361  0.00  0.00    -0.496 OA
ATOM     25  H   UNL     1       7.953   0.886   2.708  0.00  0.00    +0.293 HD
ENDBRANCH  21  24
ENDBRANCH  18  19
BRANCH  18  26
ATOM     26  O   UNL     1      12.481  -4.395   3.427  0.00  0.00    -0.494 OA
ATOM     27  H   UNL     1      12.786  -5.170   2.944  0.00  0.00    +0.293 HD
ENDBRANCH  18  26
ENDBRANCH  16  17
BRANCH  16  28
ATOM     28  CB  UNL     1      10.286  -6.180   1.531  0.00  0.00    +0.091 C 
BRANCH  28  29
ATOM     29  CG  UNL     1      10.528  -7.521   1.003  0.00  0.00    +0.038 A 
ATOM     30  ND1 UNL     1      10.389  -7.774  -0.326  0.00  0.00    -0.348 N 
ATOM     31  HD1 UNL     1      10.101  -7.084  -1.016  0.00  0.00    +0.166 HD
ATOM     32  CE1 UNL     1      10.767  -9.061  -0.531  0.00  0.00    +0.196 A 
ATOM     33  NE2 UNL     1      11.067  -9.661   0.597  0.00  0.00    -0.244 NA
ATOM     34  CD2 UNL     1      10.923  -8.705   1.565  0.00  0.00    +0.133 A 
ENDBRANCH  28  29
ENDBRANCH  16  28
ENDBRANCH  13  16
ENDBRANCH  11  12
BRANCH  11  35
ATOM     35  CB  UNL     1       9.854  -5.887  -3.560  0.00  0.00    +0.073 C 
BRANCH  35  36
ATOM     36  CG  UNL     1       8.744  -6.916  -3.534  0.00  0.00    -0.020 A 
ATOM     37  CD2 UNL     1       7.340  -6.743  -3.520  0.00  0.00    +0.003 A 
ATOM     38  CE2 UNL     1       6.704  -7.975  -3.669  0.00  0.00    +0.047 A 
ATOM     39  CZ2 UNL     1       5.333  -8.176  -3.499  0.00  0.00    +0.026 A 
ATOM     40  CH2 UNL     1       4.586  -7.066  -3.117  0.00  0.00    +0.002 A 
ATOM     41  CZ3 UNL     1       5.190  -5.828  -2.966  0.00  0.00    +0.001 A 
ATOM     42  NE1 UNL     1       7.730  -8.873  -3.842  0.00  0.00    -0.360 N 
ATOM     43  HE1 UNL     1       7.563  -9.867  -3.818  0.00  0.00    +0.165 HD
ATOM     44  CE3 UNL     1       6.560  -5.659  -3.182  0.00  0.00    +0.010 A 
ATOM     45  CD1 UNL     1       8.801  -8.263  -3.181  0.00  0.00    +0.087 A 
ENDBRANCH  35  36
ENDBRANCH  11  35
ENDBRANCH   8  11
ENDBRANCH   6   7
BRANCH   6  46
ATOM     46  C   UNL     1       6.125  -1.896  -2.332  0.00  0.00    +0.192 C 
BRANCH  46  47
ATOM     47  O   UNL     1       5.777  -3.091  -2.985  0.00  0.00    -0.392 OA
ATOM     48  H   UNL     1       6.390  -3.184  -3.741  0.00  0.00    +0.210 HD
ENDBRANCH  46  47
ENDBRANCH   6  46
ENDBRANCH   2   6
ENDBRANCH   1   3
BRANCH   1  49
ATOM     49  C   UNL     1       5.672  -1.655   3.696  0.00  0.00    +0.209 C 
ATOM     50  N   UNL     1       5.650  -1.649   4.989  0.00  0.00    -0.240 NA
BRANCH  49  51
ATOM     51  O   UNL     1       5.487  -0.405   3.136  0.00  0.00    -0.494 OA
ATOM     52  H   UNL     1       5.737  -0.431   2.194  0.00  0.00    +0.293 HD
ENDBRANCH  49  51
BRANCH  50  53
ATOM     53  C   UNL     1       5.907  -2.647   6.057  0.00  0.00    +0.199 C 
BRANCH  53  54
ATOM     54  C   UNL     1       6.766  -2.153   7.285  0.00  0.00    +0.209 C 
ATOM     55  N   UNL     1       6.875  -2.890   8.338  0.00  0.00    -0.240 NA
BRANCH  54  56
ATOM     56  O   UNL     1       7.355  -0.957   7.235  0.00  0.00    -0.494 OA
ATOM     57  H   UNL     1       7.038  -0.451   6.477  0.00  0.00    +0.293 HD
ENDBRANCH  54  56
BRANCH  55  58
ATOM     58  C   UNL     1       7.606  -2.397   9.542  0.00  0.00    +0.194 C 
BRANCH  58  59
ATOM     59  C   UNL     1       8.516  -3.564   9.927  0.00  0.00    +0.209 C 
ATOM     60  N   UNL     1       9.418  -3.479  10.827  0.00  0.00    -0.240 NA
BRANCH  59  61
ATOM     61  O   UNL     1       8.316  -4.677   9.186  0.00  0.00    -0.494 OA
ATOM     62  H   UNL     1       7.572  -4.468   8.581  0.00  0.00    +0.293 HD
ENDBRANCH  59  61
BRANCH  60  63
ATOM     63  C   UNL     1      10.276  -4.644  11.083  0.00  0.00    +0.194 C 
BRANCH  63  64
ATOM     64  C   UNL     1       9.602  -5.561  12.146  0.00  0.00    +0.241 C 
ATOM     65  N   UNL     1       9.878  -6.918  12.138  0.00  0.00    -0.288 N 
ATOM     66  C   UNL     1      10.723  -7.680  11.220  0.00  0.00    +0.161 C 
ATOM     67  C   UNL     1      11.065  -8.980  11.975  0.00  0.00    +0.033 C 
ATOM     68  C   UNL     1      10.398  -8.847  13.344  0.00  0.00    +0.021 C 
ATOM     69  C   UNL     1       9.314  -7.805  13.139  0.00  0.00    +0.109 C 
ATOM     70  O   UNL     1       8.867  -5.088  13.020  0.00  0.00    -0.273 OA
BRANCH  66  71
ATOM     71  C   UNL     1       9.995  -8.027   9.918  0.00  0.00    +0.204 C 
ATOM     72  N   UNL     1      10.494  -7.727   8.775  0.00  0.00    -0.253 NA
BRANCH  71  73
ATOM     73  O   UNL     1       8.835  -8.690  10.084  0.00  0.00    -0.494 OA
ATOM     74  H   UNL     1       8.385  -8.855   9.245  0.00  0.00    +0.293 HD
ENDBRANCH  71  73
BRANCH  72  75
ATOM     75  C   UNL     1       9.807  -8.087   7.546  0.00  0.00    +0.142 C 
ATOM     76  C   UNL     1      10.669  -7.625   6.388  0.00  0.00    +0.029 C 
ENDBRANCH  72  75
ENDBRANCH  66  71
ENDBRANCH  63  64
BRANCH  63  77
ATOM     77  C   UNL     1      11.597  -4.054  11.617  0.00  0.00    +0.039 C 
BRANCH  77  78
ATOM     78  C   UNL     1      12.228  -3.050  10.628  0.00  0.00    +0.039 C 
BRANCH  78  79
ATOM     79  C   UNL     1      13.526  -2.449  11.161  0.00  0.00    +0.196 C 
BRANCH  79  80
ATOM     80  N   UNL     1      14.141  -1.594  10.156  0.00  0.00    -0.276 N 
ATOM     81  H   UNL     1      13.487  -1.135   9.529  0.00  0.00    +0.258 HD
ATOM     82  C   UNL     1      15.261  -0.868  10.373  0.00  0.00    +0.376 C 
ATOM     83  N   UNL     1      16.035  -0.894  11.394  0.00  0.00    -0.130 NA
ATOM     84  H   UNL     1      15.664  -1.551  12.079  0.00  0.00    +0.306 HD
ATOM     85  N   UNL     1      15.559  -0.054   9.343  0.00  0.00    -0.289 N 
ATOM     86  H   UNL     1      16.508   0.293   9.451  0.00  0.00    +0.255 HD
ATOM     87  H   UNL     1      15.425  -0.472   8.432  0.00  0.00    +0.255 HD
ENDBRANCH  79  80
ENDBRANCH  78  79
ENDBRANCH  77  78
ENDBRANCH  63  77
ENDBRANCH  60  63
ENDBRANCH  58  59
BRANCH  58  88
ATOM     88  C   UNL     1       6.617  -2.066  10.689  0.00  0.00    +0.039 C 
BRANCH  88  89
ATOM     89  C   UNL     1       7.240  -1.507  12.002  0.00  0.00    -0.015 C 
ATOM     90  C   UNL     1       6.153  -1.246  13.053  0.00  0.00    +0.007 C 
ATOM     91  C   UNL     1       8.039  -0.213  11.823  0.00  0.00    +0.007 C 
ENDBRANCH  88  89
ENDBRANCH  58  88
ENDBRANCH  55  58
ENDBRANCH  53  54
BRANCH  53  92
ATOM     92  C   UNL     1       4.599  -3.090   6.735  0.00  0.00    +0.093 C 
BRANCH  92  93
ATOM     93  C   UNL     1       3.960  -1.979   7.505  0.00  0.00    +0.062 A 
ATOM     94  N   UNL     1       3.306  -2.173   8.699  0.00  0.00    -0.241 NA
ATOM     95  C   UNL     1       2.802  -0.994   9.013  0.00  0.00    +0.199 A 
ATOM     96  N   UNL     1       3.082  -0.067   8.051  0.00  0.00    -0.332 N 
ATOM     97  C   UNL     1       3.961  -0.641   7.190  0.00  0.00    +0.110 A 
BRANCH  96  98
ATOM     98  C   UNL     1       2.626   1.307   7.921  0.00  0.00    +0.157 C 
BRANCH  98  99
ATOM     99  C   UNL     1       1.329   1.461   7.146  0.00  0.00    -0.028 A 
ATOM    100  C   UNL     1       1.039   0.779   5.951  0.00  0.00    +0.005 A 
ATOM    101  C   UNL     1      -0.209   0.921   5.325  0.00  0.00    +0.000 A 
ATOM    102  C   UNL     1      -1.172   1.771   5.861  0.00  0.00    +0.000 A 
ATOM    103  C   UNL     1      -0.845   2.557   6.960  0.00  0.00    +0.000 A 
ATOM    104  C   UNL     1       0.401   2.419   7.579  0.00  0.00    +0.005 A 
ENDBRANCH  98  99
ENDBRANCH  96  98
ENDBRANCH  92  93
ENDBRANCH  53  92
ENDBRANCH  50  53
ENDBRANCH   1  49
BRANCH   1 105
ATOM    105  C   UNL     1       7.051  -3.967   2.891  0.00  0.00    +0.071 C 
BRANCH 105 106
ATOM    106  C   UNL     1       8.681  -3.838   3.191  0.00  0.00    -0.045 A 
ATOM    107  C   UNL     1       9.192  -2.255   3.136  0.00  0.00    +0.007 A 
ATOM    108  C   UNL     1      10.239  -1.315   4.632  0.00  0.00    +0.045 A 
ATOM    109  C   UNL     1      10.871  -2.442   5.824  0.00  0.00    +0.117 A 
ATOM    110  C   UNL     1      10.411  -4.067   5.657  0.00  0.00    +0.045 A 
ATOM    111  C   UNL     1       9.370  -4.726   4.440  0.00  0.00    +0.007 A 
BRANCH 109 112
ATOM    112  O   UNL     1      11.611  -1.990   6.855  0.00  0.00    -0.507 OA
ATOM    113  H   UNL     1      11.740  -2.742   7.454  0.00  0.00    +0.292 HD
ENDBRANCH 109 112
ENDBRANCH 105 106
ENDBRANCH   1 105
TORSDOF 45
