REMARK  Name = 
REMARK  6 active torsions:
REMARK  status: ('A' for Active; 'I' for Inactive)
REMARK    1  A    between atoms: C_1  and  C_2
REMARK    2  A    between atoms: C_2  and  C_3
REMARK    3  A    between atoms: C_3  and  C_5
REMARK    4  A    between atoms: C_5  and  C_12
REMARK    5  A    between atoms: N_8  and  C_9
REMARK    6  A    between atoms: C_14  and  O_15
REMARK                            x       y       z     vdW  Elec       q    Type
REMARK                         _______ _______ _______ _____ _____    ______ ____
ROOT
ATOM      1  C   UNL     1       4.392  -1.197  -1.177  0.00  0.00    +0.056 C 
ATOM      2  C   UNL     1       4.754  -1.731  -2.595  0.00  0.00    +0.034 C 
ATOM      3  C   UNL     1       4.342  -3.180  -2.851  0.00  0.00    +0.085 C 
ATOM      4  N   UNL     1       4.816  -4.120  -1.841  0.00  0.00    -0.305 NA
ATOM      5  C   UNL     1       6.253  -4.367  -1.929  0.00  0.00    +0.104 C 
ATOM      6  C   UNL     1       4.398  -3.693  -0.505  0.00  0.00    +0.085 C 
ATOM      7  C   UNL     1       4.854  -2.278  -0.147  0.00  0.00    +0.034 C 
ENDROOT
BRANCH   1   8
ATOM      8  C   UNL     1       5.118   0.155  -0.922  0.00  0.00    -0.031 A 
ATOM      9  C   UNL     1       5.341   1.074  -1.968  0.00  0.00    +0.005 A 
ATOM     10  C   UNL     1       6.076   2.248  -1.767  0.00  0.00    +0.004 A 
ATOM     11  C   UNL     1       6.595   2.540  -0.512  0.00  0.00    +0.045 A 
ATOM     12  C   UNL     1       6.351   1.671   0.540  0.00  0.00    +0.117 A 
ATOM     13  C   UNL     1       5.604   0.506   0.353  0.00  0.00    +0.050 A 
BRANCH  12  14
ATOM     14  O   UNL     1       6.886   1.985   1.755  0.00  0.00    -0.507 OA
ATOM     15  H   UNL     1       6.720   1.249   2.367  0.00  0.00    +0.292 HD
ENDBRANCH  12  14
ENDBRANCH   1   8
BRANCH   1  16
ATOM     16  C   UNL     1       2.861  -0.982  -0.979  0.00  0.00    +0.144 C 
ATOM     17  O   UNL     1       2.346  -1.094   0.139  0.00  0.00    -0.296 OA
BRANCH  16  19
ATOM     18  C   UNL     1       0.542  -0.396  -1.830  0.00  0.00    +0.012 C 
ATOM     19  C   UNL     1       2.016  -0.559  -2.176  0.00  0.00    +0.072 C 
ENDBRANCH  16  19
ENDBRANCH   1  16
TORSDOF 4
