REMARK  Name = 
REMARK  5 active torsions:
REMARK  status: ('A' for Active; 'I' for Inactive)
REMARK    1  A    between atoms: C_5  and  O_6
REMARK    2  A    between atoms: C_5  and  C_7
REMARK    3  A    between atoms: C_7  and  C_8
REMARK    4  A    between atoms: C_9  and  C_10
REMARK    5  A    between atoms: C_10  and  C_11
REMARK                            x       y       z     vdW  Elec       q    Type
REMARK                         _______ _______ _______ _____ _____    ______ ____
ROOT
ATOM      1  C   UNL     1       2.315   0.325  -0.016  0.00  0.00    +0.009 C 
ATOM      2  C   UNL     1       2.397   0.233  -1.546  0.00  0.00    +0.024 C 
ATOM      3  C   UNL     1       1.630  -1.012  -2.047  0.00  0.00    -0.041 C 
ATOM      4  C   UNL     1       1.093  -1.053  -3.296  0.00  0.00    -0.040 C 
ATOM      5  C   UNL     1       0.971   0.180  -4.072  0.00  0.00    -0.041 C 
ATOM      6  C   UNL     1       0.934   1.449  -3.262  0.00  0.00    +0.036 C 
ATOM      7  C   UNL     1       0.785   0.220  -5.399  0.00  0.00    +0.050 C 
ATOM      8  C   UNL     1       0.580  -1.020  -6.167  0.00  0.00    +0.157 C 
ATOM      9  O   UNL     1       0.650  -0.990  -7.391  0.00  0.00    -0.293 OA
ATOM     10  C   UNL     1       0.101  -2.228  -5.407  0.00  0.00    +0.083 C 
ATOM     11  C   UNL     1       0.652  -2.330  -3.984  0.00  0.00    +0.043 C 
ATOM     12  C   UNL     1       1.533  -2.126  -1.085  0.00  0.00    +0.000 C 
ATOM     13  C   UNL     1       2.002  -2.093   0.184  0.00  0.00    -0.017 C 
ATOM     14  C   UNL     1       2.087   1.546  -2.283  0.00  0.00    +0.013 C 
ATOM     15  C   UNL     1       2.862  -0.948   0.698  0.00  0.00    +0.021 C 
ATOM     16  C   UNL     1       2.888  -0.393   2.214  0.00  0.00    +0.075 C 
ATOM     17  C   UNL     1       3.616   0.966   1.951  0.00  0.00    +0.036 C 
ATOM     18  C   UNL     1       2.952   1.524   0.689  0.00  0.00    +0.008 C 
ENDROOT
BRANCH  15  19
ATOM     19  C   UNL     1       4.369  -1.406   0.381  0.00  0.00    +0.011 C 
ATOM     20  C   UNL     1       4.783  -2.116  -0.908  0.00  0.00    +0.005 C 
ENDBRANCH  15  19
BRANCH  16  21
ATOM     21  C   UNL     1       1.658   0.030   3.065  0.00  0.00    +0.032 C 
ATOM     22  C   UNL     1       0.745  -1.011   3.683  0.00  0.00    +0.007 C 
ENDBRANCH  16  21
BRANCH  16  23
ATOM     23  O   UNL     1       3.703  -1.202   3.062  0.00  0.00    -0.388 OA
ATOM     24  H   UNL     1       3.294  -2.096   3.096  0.00  0.00    +0.210 HD
ENDBRANCH  16  23
TORSDOF 3
