REMARK  Name = 
REMARK  9 active torsions:
REMARK  status: ('A' for Active; 'I' for Inactive)
REMARK    1  A    between atoms: C_1  and  C_2
REMARK    2  A    between atoms: C_2  and  N_3
REMARK    3  A    between atoms: C_4  and  C_6
REMARK    4  A    between atoms: N_13  and  C_14
REMARK    5  A    between atoms: C_16  and  C_21
REMARK    6  A    between atoms: C_19  and  C_20
REMARK    7  A    between atoms: N_23  and  O_24
REMARK    8  A    between atoms: O_24  and  C_25
REMARK    9  A    between atoms: C_27  and  C_28
REMARK                            x       y       z     vdW  Elec       q    Type
REMARK                         _______ _______ _______ _____ _____    ______ ____
ROOT
ATOM      1  C   UNL     1       4.781  -1.760   2.535  0.00  0.00    +0.060 A 
ATOM      2  C   UNL     1       4.626  -3.198   2.548  0.00  0.00    -0.008 A 
ATOM      3  C   UNL     1       4.038  -3.952   1.402  0.00  0.00    +0.047 C 
ATOM      4  C   UNL     1       5.074  -3.637   3.793  0.00  0.00    +0.109 A 
ATOM      5  N   UNL     1       5.526  -2.547   4.483  0.00  0.00    -0.234 N 
ATOM      6  N   UNL     1       6.043  -2.564   5.718  0.00  0.00    -0.155 NA
ATOM      7  C   UNL     1       6.064  -3.739   6.256  0.00  0.00    +0.245 A 
ATOM      8  N   UNL     1       5.603  -4.899   5.700  0.00  0.00    -0.217 NA
ATOM      9  C   UNL     1       5.122  -4.902   4.487  0.00  0.00    +0.151 A 
ATOM     10  N   UNL     1       4.697  -6.083   3.919  0.00  0.00    -0.297 N 
ATOM     11  H   UNL     1       4.592  -6.115   2.921  0.00  0.00    +0.154 HD
ATOM     12  C   UNL     1       5.361  -1.417   3.742  0.00  0.00    +0.126 A 
ENDROOT
BRANCH  10  13
ATOM     13  C   UNL     1       4.171  -7.208   4.585  0.00  0.00    +0.036 A 
ATOM     14  C   UNL     1       4.294  -8.492   4.016  0.00  0.00    -0.029 A 
ATOM     15  C   UNL     1       4.987  -8.699   2.695  0.00  0.00    +0.045 C 
ATOM     16  C   UNL     1       3.802  -9.611   4.710  0.00  0.00    +0.006 A 
ATOM     17  C   UNL     1       3.217  -9.470   5.969  0.00  0.00    +0.013 A 
ATOM     18  C   UNL     1       3.124  -8.207   6.553  0.00  0.00    +0.040 A 
ATOM     19  C   UNL     1       3.580  -7.087   5.851  0.00  0.00    +0.036 A 
BRANCH  18  20
ATOM     20  C   UNL     1       2.524  -8.072   7.908  0.00  0.00    +0.267 C 
ATOM     21  N   UNL     1       2.946  -6.967   8.622  0.00  0.00    -0.191 N 
ATOM     22  H   UNL     1       3.865  -6.579   8.434  0.00  0.00    +0.183 HD
ATOM     23  O   UNL     1       1.729  -8.914   8.309  0.00  0.00    -0.268 OA
BRANCH  21  24
ATOM     24  O   UNL     1       2.580  -6.967   9.989  0.00  0.00    -0.283 OA
ATOM     25  C   UNL     1       1.444  -6.121  10.137  0.00  0.00    +0.226 C 
ENDBRANCH  21  24
ENDBRANCH  18  20
ENDBRANCH  10  13
BRANCH   1  28
ATOM     26  N   UNL     1       4.147   0.448   1.881  0.00  0.00    -0.312 N 
ATOM     27  H   UNL     1       4.220   0.669   2.863  0.00  0.00    +0.149 HD
ATOM     28  C   UNL     1       4.405  -0.838   1.462  0.00  0.00    +0.246 C 
ATOM     29  O   UNL     1       4.292  -1.200   0.296  0.00  0.00    -0.270 OA
BRANCH  26  31
ATOM     30  C   UNL     1       4.977   2.240   0.445  0.00  0.00    +0.024 C 
ATOM     31  C   UNL     1       3.762   1.493   0.962  0.00  0.00    +0.101 C 
ENDBRANCH  26  31
ENDBRANCH   1  28
TORSDOF 5
