REMARK  Name = 
REMARK  8 active torsions:
REMARK  status: ('A' for Active; 'I' for Inactive)
REMARK    1  A    between atoms: C_1  and  C_2
REMARK    2  A    between atoms: C_23  and  O_25
REMARK    3  A    between atoms: C_27  and  C_32
REMARK    4  A    between atoms: C_29  and  O_31
REMARK    5  A    between atoms: C_32  and  C_33
REMARK    6  A    between atoms: C_32  and  C_34
REMARK    7  A    between atoms: C_32  and  C_35
REMARK    8  A    between atoms: C_36  and  O_37
REMARK                            x       y       z     vdW  Elec       q    Type
REMARK                         _______ _______ _______ _____ _____    ______ ____
ROOT
ATOM      1  C   UNL     1       0.000   0.000  -0.000  0.00  0.00    +0.022 C 
ATOM      2  C   UNL     1      -0.000  -0.000   0.000  0.00  0.00    +0.133 C 
ATOM      3  C   UNL     1      -0.000  -0.000  -0.000  0.00  0.00    +0.155 C 
ATOM      4  C   UNL     1      -0.000  -0.000  -0.000  0.00  0.00    +0.213 C 
ATOM      5  C   UNL     1      -0.000   0.000  -0.000  0.00  0.00    +0.062 C 
ATOM      6  C   UNL     1      -0.000  -0.000   0.000  0.00  0.00    +0.071 C 
ATOM      7  C   UNL     1      -0.000  -0.000  -0.000  0.00  0.00    +0.088 C 
ATOM      8  C   UNL     1      -0.000   0.000   0.000  0.00  0.00    +0.042 C 
ATOM      9  C   UNL     1      -0.000  -0.000  -0.000  0.00  0.00    +0.160 C 
ATOM     10  C   UNL     1      -0.000  -0.000  -0.000  0.00  0.00    +0.322 C 
ATOM     11  O   UNL     1      -0.000  -0.000  -0.000  0.00  0.00    -0.433 OA
ATOM     12  C   UNL     1      -0.000  -0.000  -0.000  0.00  0.00    +0.339 C 
ATOM     13  O   UNL     1      -0.000  -0.000  -0.000  0.00  0.00    -0.248 OA
ATOM     14  O   UNL     1      -0.000  -0.000  -0.000  0.00  0.00    -0.319 OA
ATOM     15  C   UNL     1      -0.000  -0.000  -0.000  0.00  0.00    +0.236 C 
ATOM     16  C   UNL     1      -0.000  -0.000   0.000  0.00  0.00    +0.216 C 
ATOM     17  O   UNL     1      -0.000  -0.000  -0.000  0.00  0.00    -0.456 OA
ATOM     18  C   UNL     1      -0.000   0.000  -0.000  0.00  0.00    +0.344 C 
ATOM     19  O   UNL     1      -0.000  -0.000  -0.000  0.00  0.00    -0.247 OA
ATOM     20  O   UNL     1      -0.000  -0.000   0.000  0.00  0.00    -0.458 OA
ATOM     21  C   UNL     1      -0.000  -0.000  -0.000  0.00  0.00    +0.212 C 
ATOM     22  C   UNL     1      -0.000   0.000  -0.000  0.00  0.00    +0.313 C 
ATOM     23  O   UNL     1      -0.000   0.000   0.000  0.00  0.00    -0.250 OA
ENDROOT
BRANCH   8  24
ATOM     24  C   UNL     1      -0.000  -0.000  -0.000  0.00  0.00    -0.032 C 
ATOM     25  C   UNL     1      -0.000   0.000   0.000  0.00  0.00    +0.011 C 
ATOM     26  C   UNL     1      -0.000   0.000   0.000  0.00  0.00    +0.011 C 
ATOM     27  C   UNL     1      -0.000   0.000   0.000  0.00  0.00    +0.011 C 
ENDBRANCH   8  24
BRANCH   3  28
ATOM     28  O   UNL     1      -0.000  -0.000  -0.000  0.00  0.00    -0.381 OA
ATOM     29  H   UNL     1       0.000   0.000   0.000  0.00  0.00    +0.210 HD
ENDBRANCH   3  28
BRANCH   9  30
ATOM     30  O   UNL     1      -0.000   0.000  -0.000  0.00  0.00    -0.388 OA
ATOM     31  H   UNL     1       0.000   0.000   0.000  0.00  0.00    +0.210 HD
ENDBRANCH   9  30
BRANCH  15  32
ATOM     32  O   UNL     1      -0.000  -0.000  -0.000  0.00  0.00    -0.380 OA
ATOM     33  H   UNL     1       0.000   0.000   0.000  0.00  0.00    +0.211 HD
ENDBRANCH  15  32
TORSDOF 4
