REMARK  Name = 
REMARK  5 active torsions:
REMARK  status: ('A' for Active; 'I' for Inactive)
REMARK    1  A    between atoms: N_1  and  C_2
REMARK    2  A    between atoms: C_6  and  S_10
REMARK    3  A    between atoms: S_10  and  N_13
REMARK    4  A    between atoms: C_17  and  S_19
REMARK    5  A    between atoms: S_19  and  N_20
REMARK                            x       y       z     vdW  Elec       q    Type
REMARK                         _______ _______ _______ _____ _____    ______ ____
ROOT
ATOM      1  S   UNL     1       7.096   0.168  -0.094  0.00  0.00    +0.074 S 
ATOM      2  O   UNL     1       7.554   0.775   1.138  0.00  0.00    -0.150 OA
ATOM      3  O   UNL     1       7.469   0.717  -1.378  0.00  0.00    -0.150 OA
ENDROOT
BRANCH   1   8
ATOM      4  C   UNL     1       2.536  -0.108   0.141  0.00  0.00    +0.079 A 
ATOM      5  C   UNL     1       3.163   0.581  -0.912  0.00  0.00    +0.066 A 
ATOM      6 CL   UNL     1       2.224   1.325  -2.160  0.00  0.00    -0.081 Cl
ATOM      7  C   UNL     1       4.555   0.661  -0.998  0.00  0.00    +0.050 A 
ATOM      8  C   UNL     1       5.336   0.077   0.003  0.00  0.00    +0.113 A 
ATOM      9  C   UNL     1       4.744  -0.557   1.093  0.00  0.00    +0.069 A 
ATOM     10  C   UNL     1       3.357  -0.630   1.154  0.00  0.00    +0.147 A 
ATOM     11  F   UNL     1       2.794  -1.242   2.208  0.00  0.00    -0.203 F 
BRANCH   4  12
ATOM     12  N   UNL     1       1.137  -0.090   0.315  0.00  0.00    -0.355 N 
ATOM     13  H   UNL     1       0.623   0.013  -0.557  0.00  0.00    +0.142 HD
ATOM     14  H   UNL     1       0.795  -0.847   0.903  0.00  0.00    +0.142 HD
ENDBRANCH   4  12
ENDBRANCH   1   8
BRANCH   1  15
ATOM     15  N   UNL     1       7.569  -1.451   0.004  0.00  0.00    -0.192 N 
ATOM     16  H   UNL     1       8.318  -1.481   0.694  0.00  0.00    +0.176 HD
ATOM     17  C   UNL     1       7.950  -1.975  -1.252  0.00  0.00    +0.202 A 
ATOM     18  S   UNL     1       9.580  -2.093  -1.744  0.00  0.00    -0.009 S 
ATOM     19  C   UNL     1       9.001  -2.919  -3.120  0.00  0.00    +0.256 A 
ATOM     20  N   UNL     1       7.696  -3.107  -3.164  0.00  0.00    -0.119 NA
ATOM     21  N   UNL     1       7.077  -2.533  -2.061  0.00  0.00    -0.123 NA
BRANCH  19  22
ATOM     22  S   UNL     1      10.166  -3.478  -4.317  0.00  0.00    +0.081 S 
ATOM     23  O   UNL     1      11.116  -4.288  -3.590  0.00  0.00    -0.151 OA
ATOM     24  O   UNL     1      10.547  -2.304  -5.069  0.00  0.00    -0.151 OA
BRANCH  22  25
ATOM     25  N   UNL     1       9.382  -4.512  -5.395  0.00  0.00    -0.202 NA
ATOM     26  H   UNL     1       9.021  -5.350  -4.941  0.00  0.00    +0.144 HD
ATOM     27  H   UNL     1       8.710  -4.020  -5.982  0.00  0.00    +0.144 HD
ENDBRANCH  22  25
ENDBRANCH  19  22
ENDBRANCH   1  15
TORSDOF 5
