REMARK  Name = 
REMARK  13 active torsions:
REMARK  status: ('A' for Active; 'I' for Inactive)
REMARK    1  A    between atoms: C_1  and  O_2
REMARK    2  A    between atoms: O_2  and  C_3
REMARK    3  A    between atoms: C_3  and  C_5
REMARK    4  A    between atoms: C_5  and  C_6
REMARK    5  A    between atoms: C_5  and  C_13
REMARK    6  A    between atoms: C_5  and  C_25
REMARK    7  A    between atoms: C_6  and  C_7
REMARK    8  A    between atoms: C_13  and  C_14
REMARK    9  A    between atoms: C_17  and  N_18
REMARK   10  A    between atoms: N_18  and  S_19
REMARK   11  A    between atoms: S_19  and  O_20
REMARK   12  A    between atoms: C_25  and  O_27
REMARK   13  A    between atoms: O_27  and  C_28
REMARK                            x       y       z     vdW  Elec       q    Type
REMARK                         _______ _______ _______ _____ _____    ______ ____
ROOT
ATOM      1  C   UNL     1       4.500  -0.321  -1.347  0.00  0.00    +0.172 C 
ENDROOT
BRANCH   1   2
ATOM      2  C   UNL     1       2.978  -0.307  -1.340  0.00  0.00    +0.325 C 
ATOM      3  O   UNL     1       2.271  -0.829  -0.486  0.00  0.00    -0.250 OA
BRANCH   2   5
ATOM      4  C   UNL     1       1.045   0.456  -2.430  0.00  0.00    +0.280 C 
ATOM      5  O   UNL     1       2.475   0.430  -2.375  0.00  0.00    -0.467 OA
ENDBRANCH   2   5
ENDBRANCH   1   2
BRANCH   1   6
ATOM      6  C   UNL     1       5.074  -0.677  -2.713  0.00  0.00    +0.325 C 
ATOM      7  O   UNL     1       6.193  -0.338  -3.087  0.00  0.00    -0.250 OA
BRANCH   6   8
ATOM      8  O   UNL     1       4.254  -1.489  -3.435  0.00  0.00    -0.467 OA
ATOM      9  C   UNL     1       4.807  -1.941  -4.674  0.00  0.00    +0.280 C 
ENDBRANCH   6   8
ENDBRANCH   1   6
BRANCH   1  10
ATOM     10  C   UNL     1       5.091  -1.340  -0.322  0.00  0.00    +0.065 C 
BRANCH  10  11
ATOM     11  C   UNL     1       4.791  -2.809  -0.596  0.00  0.00    -0.046 A 
ATOM     12  C   UNL     1       3.614  -3.396  -0.110  0.00  0.00    +0.005 A 
ATOM     13  C   UNL     1       3.212  -4.663  -0.537  0.00  0.00    +0.025 A 
ATOM     14  C   UNL     1       4.010  -5.375  -1.425  0.00  0.00    +0.050 A 
ATOM     15  C   UNL     1       5.250  -4.868  -1.807  0.00  0.00    +0.025 A 
ATOM     16  C   UNL     1       5.638  -3.586  -1.400  0.00  0.00    +0.005 A 
BRANCH  14  17
ATOM     17  N   UNL     1       3.575  -6.620  -1.966  0.00  0.00    -0.197 N 
ATOM     18  H   UNL     1       2.603  -6.609  -2.277  0.00  0.00    +0.176 HD
BRANCH  17  19
ATOM     19  S   UNL     1       3.807  -7.994  -1.030  0.00  0.00    +0.164 S 
ATOM     20  O   UNL     1       3.363  -9.118  -1.821  0.00  0.00    -0.127 OA
ATOM     21  O   UNL     1       3.284  -7.748   0.292  0.00  0.00    -0.127 OA
BRANCH  19  22
ATOM     22  O   UNL     1       5.402  -8.082  -0.872  0.00  0.00    -0.238 OA
ATOM     23  H   UNL     1       5.630  -7.659  -0.020  0.00  0.00    +0.246 HD
ENDBRANCH  19  22
ENDBRANCH  17  19
ENDBRANCH  14  17
ENDBRANCH  10  11
ENDBRANCH   1  10
BRANCH   1  24
ATOM     24  C   UNL     1       4.985   1.132  -1.046  0.00  0.00    +0.065 C 
BRANCH  24  25
ATOM     25  C   UNL     1       4.506   1.793   0.229  0.00  0.00    -0.046 A 
ATOM     26  C   UNL     1       3.304   2.519   0.253  0.00  0.00    +0.003 A 
ATOM     27  C   UNL     1       2.882   3.162   1.419  0.00  0.00    +0.000 A 
ATOM     28  C   UNL     1       3.660   3.097   2.572  0.00  0.00    +0.000 A 
ATOM     29  C   UNL     1       4.861   2.390   2.558  0.00  0.00    +0.000 A 
ATOM     30  C   UNL     1       5.282   1.742   1.395  0.00  0.00    +0.003 A 
ENDBRANCH  24  25
ENDBRANCH   1  24
TORSDOF 11
