REMARK  Name = 
REMARK  5 active torsions:
REMARK  status: ('A' for Active; 'I' for Inactive)
REMARK    1  A    between atoms: O_1  and  C_2
REMARK    2  A    between atoms: C_5  and  C_8
REMARK    3  A    between atoms: C_13  and  C_14
REMARK    4  A    between atoms: C_14  and  C_15
REMARK    5  A    between atoms: C_18  and  O_19
REMARK                            x       y       z     vdW  Elec       q    Type
REMARK                         _______ _______ _______ _____ _____    ______ ____
ROOT
ATOM      1  C   UNL     1       6.642   0.171  -0.551  0.00  0.00    +0.136 A 
ATOM      2  O   UNL     1       7.454  -0.920  -0.753  0.00  0.00    -0.455 OA
ATOM      3  C   UNL     1       8.718  -0.452  -1.015  0.00  0.00    +0.140 A 
ATOM      4  C   UNL     1       9.870  -1.224  -1.276  0.00  0.00    +0.013 A 
ATOM      5  C   UNL     1      11.039  -0.476  -1.553  0.00  0.00    +0.053 A 
ATOM      6  C   UNL     1      11.038   0.918  -1.540  0.00  0.00    +0.118 A 
ATOM      7  C   UNL     1       9.887   1.647  -1.256  0.00  0.00    +0.057 A 
ATOM      8  C   UNL     1       8.705   0.942  -0.991  0.00  0.00    +0.025 A 
ATOM      9  C   UNL     1       7.380   1.329  -0.679  0.00  0.00    +0.058 A 
ENDROOT
BRANCH   1  13
ATOM     10  C   UNL     1       2.510  -0.491   0.297  0.00  0.00    +0.117 A 
ATOM     11  C   UNL     1       3.136   0.653   0.771  0.00  0.00    +0.046 A 
ATOM     12  C   UNL     1       4.491   0.863   0.495  0.00  0.00    +0.015 A 
ATOM     13  C   UNL     1       5.232  -0.073  -0.250  0.00  0.00    +0.018 A 
ATOM     14  C   UNL     1       4.573  -1.213  -0.726  0.00  0.00    +0.015 A 
ATOM     15  C   UNL     1       3.214  -1.423  -0.459  0.00  0.00    +0.046 A 
BRANCH  10  16
ATOM     16  O   UNL     1       1.191  -0.664   0.598  0.00  0.00    -0.507 OA
ATOM     17  H   UNL     1       0.908  -1.531   0.263  0.00  0.00    +0.292 HD
ENDBRANCH  10  16
ENDBRANCH   1  13
BRANCH   6  18
ATOM     18  O   UNL     1      12.169   1.631  -1.806  0.00  0.00    -0.507 OA
ATOM     19  H   UNL     1      12.887   1.022  -2.042  0.00  0.00    +0.292 HD
ENDBRANCH   6  18
BRANCH   4  20
ATOM     20  C   UNL     1       9.922  -2.738  -1.308  0.00  0.00    +0.157 C 
BRANCH  20  21
ATOM     21  C   UNL     1       9.614  -3.272  -2.698  0.00  0.00    +0.067 C 
ATOM     22  N   UNL     1       9.359  -3.715  -3.850  0.00  0.00    -0.196 NA
ENDBRANCH  20  21
ENDBRANCH   4  20
TORSDOF 5
