REMARK  Name = 
REMARK  7 active torsions:
REMARK  status: ('A' for Active; 'I' for Inactive)
REMARK    1  A    between atoms: C_1  and  N_2
REMARK    2  A    between atoms: N_2  and  C_3
REMARK    3  A    between atoms: N_6  and  C_7
REMARK    4  A    between atoms: C_7  and  C_8
REMARK    5  A    between atoms: C_8  and  O_9
REMARK    6  A    between atoms: C_8  and  C_10
REMARK    7  A    between atoms: C_8  and  C_16
REMARK                            x       y       z     vdW  Elec       q    Type
REMARK                         _______ _______ _______ _____ _____    ______ ____
ROOT
ATOM      1  C   UNL     1       4.357   1.179   4.161  0.00  0.00    +0.106 C 
ENDROOT
BRANCH   1   2
ATOM      2  C   UNL     1       3.675   0.841   5.495  0.00  0.00    -0.015 A 
ATOM      3  C   UNL     1       2.553  -0.006   5.568  0.00  0.00    +0.006 A 
ATOM      4  C   UNL     1       2.038  -0.427   6.798  0.00  0.00    +0.000 A 
ATOM      5  C   UNL     1       2.611   0.016   7.984  0.00  0.00    +0.000 A 
ATOM      6  C   UNL     1       3.672   0.915   7.940  0.00  0.00    +0.000 A 
ATOM      7  C   UNL     1       4.192   1.330   6.709  0.00  0.00    +0.006 A 
ENDBRANCH   1   2
BRANCH   1   8
ATOM      8  C   UNL     1       3.977   2.629   3.635  0.00  0.00    +0.026 C 
ATOM      9  C   UNL     1       2.476   2.965   3.527  0.00  0.00    +0.007 C 
ATOM     10  C   UNL     1       1.792   2.448   2.266  0.00  0.00    +0.000 C 
ATOM     11  C   UNL     1       2.507   2.871   0.989  0.00  0.00    +0.000 C 
ATOM     12  C   UNL     1       4.009   2.641   1.016  0.00  0.00    +0.000 C 
ATOM     13  C   UNL     1       4.674   3.084   2.320  0.00  0.00    +0.007 C 
ENDBRANCH   1   8
BRANCH   1  14
ATOM     14  O   UNL     1       5.786   1.200   4.442  0.00  0.00    -0.382 OA
ATOM     15  H   UNL     1       6.231   1.773   3.804  0.00  0.00    +0.211 HD
ENDBRANCH   1  14
BRANCH   1  16
ATOM     16  C   UNL     1       4.175   0.053   3.079  0.00  0.00    +0.124 C 
BRANCH  16  21
ATOM     17  C   UNL     1       7.362  -1.305   0.247  0.00  0.00    +0.192 C 
ATOM     18  N   UNL     1       6.610  -2.022   1.361  0.00  0.00    +0.241 N 
ATOM     19  C   UNL     1       5.098  -2.006   1.013  0.00  0.00    +0.148 C 
ATOM     20  C   UNL     1       4.186  -2.241   2.237  0.00  0.00    +0.135 C 
ATOM     21  N   UNL     1       4.483  -1.374   3.394  0.00  0.00    -0.289 NA
ATOM     22  C   UNL     1       5.878  -1.613   3.803  0.00  0.00    +0.135 C 
ATOM     23  C   UNL     1       6.912  -1.288   2.706  0.00  0.00    +0.148 C 
ATOM     24  C   UNL     1       7.106  -3.463   1.448  0.00  0.00    +0.192 C 
ENDBRANCH  16  21
ENDBRANCH   1  16
TORSDOF 5
