REMARK  Name = 
REMARK  10 active torsions:
REMARK  status: ('A' for Active; 'I' for Inactive)
REMARK    1  A    between atoms: CA_2  and  N_3
REMARK    2  A    between atoms: CA_2  and  C_4
REMARK    3  A    between atoms: CA_2  and  C_22
REMARK    4  A    between atoms: C_4  and  C_5
REMARK    5  A    between atoms: C_7  and  N_8
REMARK    6  A    between atoms: C_9  and  C_10
REMARK    7  A    between atoms: C_10  and  C_11
REMARK    8  A    between atoms: C_17  and  O_18
REMARK    9  A    between atoms: C_20  and  O_21
REMARK   10  A    between atoms: C_22  and  O_23
REMARK                            x       y       z     vdW  Elec       q    Type
REMARK                         _______ _______ _______ _____ _____    ______ ____
ROOT
ATOM      1  C   UNL     1       2.157   1.856  -1.451  0.00  0.00    -0.002 A 
ATOM      2  C   UNL     1       2.224   3.231  -1.720  0.00  0.00    +0.124 A 
ATOM      3  C   UNL     1       1.976   3.736  -2.996  0.00  0.00    +0.093 A 
ATOM      4  C   UNL     1       1.671   2.847  -4.018  0.00  0.00    +0.146 A 
ATOM      5  C   UNL     1       1.561   1.471  -3.792  0.00  0.00    +0.105 A 
ATOM      6  C   UNL     1       1.753   0.999  -2.490  0.00  0.00    +0.038 A 
ENDROOT
BRANCH   2   7
ATOM      7  O   UNL     1       2.540   4.087  -0.701  0.00  0.00    -0.506 OA
ATOM      8  H   UNL     1       2.510   4.997  -1.044  0.00  0.00    +0.292 HD
ENDBRANCH   2   7
BRANCH   4   9
ATOM      9  O   UNL     1       1.478   3.338  -5.282  0.00  0.00    -0.505 OA
ATOM     10  H   UNL     1       1.304   2.536  -5.818  0.00  0.00    +0.292 HD
ENDBRANCH   4   9
BRANCH   5  11
ATOM     11  N   UNL     1       1.242   0.631  -4.880  0.00  0.00    -0.256 NA
ATOM     12  C   UNL     1       1.913  -0.474  -4.993  0.00  0.00    +0.089 C 
BRANCH  12  13
ATOM     13  C   UNL     1       1.678  -1.413  -6.147  0.00  0.00    +0.082 C 
BRANCH  13  14
ATOM     14  C   UNL     1       2.792  -1.296  -7.152  0.00  0.00    -0.042 A 
ATOM     15  C   UNL     1       2.696  -0.370  -8.201  0.00  0.00    +0.004 A 
ATOM     16  C   UNL     1       3.750  -0.209  -9.099  0.00  0.00    +0.000 A 
ATOM     17  C   UNL     1       4.912  -0.966  -8.956  0.00  0.00    +0.000 A 
ATOM     18  C   UNL     1       5.022  -1.885  -7.917  0.00  0.00    +0.000 A 
ATOM     19  C   UNL     1       3.967  -2.055  -7.016  0.00  0.00    +0.004 A 
ENDBRANCH  13  14
ENDBRANCH  12  13
ENDBRANCH   5  11
BRANCH   1  20
ATOM     20  C   UNL     1       2.485   1.312  -0.074  0.00  0.00    +0.068 C 
BRANCH  20  21
ATOM     21  CA  UNL     1       3.159  -0.074  -0.033  0.00  0.00    +0.165 C 
BRANCH  21  22
ATOM     22  N   UNL     1       3.355  -0.530   1.364  0.00  0.00    -0.318 NA
ATOM     23  H1  UNL     1       3.924  -1.376   1.394  0.00  0.00    +0.119 HD
ATOM     24  H2  UNL     1       3.726   0.180   1.986  0.00  0.00    +0.119 HD
ENDBRANCH  21  22
BRANCH  21  25
ATOM     25  C   UNL     1       4.489  -0.078  -0.811  0.00  0.00    +0.322 C 
ATOM     26  OXT UNL     1       4.594  -0.412  -1.984  0.00  0.00    -0.249 OA
BRANCH  25  27
ATOM     27  O   UNL     1       5.561   0.302  -0.076  0.00  0.00    -0.480 OA
ATOM     28  H   UNL     1       5.307   0.534   0.835  0.00  0.00    +0.295 HD
ENDBRANCH  25  27
ENDBRANCH  21  25
ENDBRANCH  20  21
ENDBRANCH   1  20
TORSDOF 10
