REMARK  Name = 
REMARK  9 active torsions:
REMARK  status: ('A' for Active; 'I' for Inactive)
REMARK    1  A    between atoms: C_2  and  C_3
REMARK    2  A    between atoms: C_2  and  N_4
REMARK    3  A    between atoms: C_2  and  C_25
REMARK    4  A    between atoms: N_4  and  C_5
REMARK    5  A    between atoms: C_11  and  C_12
REMARK    6  A    between atoms: C_17  and  C_18
REMARK    7  A    between atoms: C_18  and  C_19
REMARK    8  A    between atoms: C_19  and  C_20
REMARK    9  A    between atoms: C_20  and  O_21
REMARK                            x       y       z     vdW  Elec       q    Type
REMARK                         _______ _______ _______ _____ _____    ______ ____
ROOT
ATOM      1  C   UNL     1       2.288   1.642   1.776  0.00  0.00    +0.120 A 
ATOM      2  N   UNL     1       1.481   1.760   2.856  0.00  0.00    -0.237 NA
ATOM      3  C   UNL     1       1.229   2.987   3.391  0.00  0.00    +0.162 A 
ATOM      4  C   UNL     1       1.772   4.096   2.773  0.00  0.00    +0.186 A 
ATOM      5  O   UNL     1       1.613   5.395   3.124  0.00  0.00    -0.353 OA
ATOM      6  N   UNL     1       2.306   6.204   2.238  0.00  0.00    -0.077 NA
ATOM      7  C   UNL     1       2.881   5.380   1.342  0.00  0.00    +0.121 A 
ATOM      8  C   UNL     1       2.587   4.018   1.664  0.00  0.00    +0.054 A 
ATOM      9  C   UNL     1       2.901   2.741   1.174  0.00  0.00    +0.057 A 
ENDROOT
BRANCH   7  10
ATOM     10  C   UNL     1       3.687   5.896   0.232  0.00  0.00    +0.006 A 
ATOM     11  C   UNL     1       4.453   7.062   0.392  0.00  0.00    +0.014 A 
ATOM     12  C   UNL     1       5.310   7.515  -0.626  0.00  0.00    -0.045 A 
ATOM     13  C   UNL     1       5.355   6.811  -1.835  0.00  0.00    +0.023 A 
ATOM     14  C   UNL     1       4.563   5.680  -2.016  0.00  0.00    +0.042 A 
ATOM     15 CL   UNL     1       4.630   4.821  -3.506  0.00  0.00    -0.084 Cl
ATOM     16  C   UNL     1       3.729   5.225  -0.997  0.00  0.00    +0.030 A 
BRANCH  12  17
ATOM     17  C   UNL     1       6.176   8.737  -0.430  0.00  0.00    +0.037 C 
BRANCH  17  18
ATOM     18  C   UNL     1       7.117   8.660   0.775  0.00  0.00    +0.032 C 
BRANCH  18  19
ATOM     19  C   UNL     1       8.125   7.520   0.681  0.00  0.00    +0.156 C 
BRANCH  19  20
ATOM     20  O   UNL     1       8.976   7.537   1.821  0.00  0.00    -0.395 OA
ATOM     21  H   UNL     1       9.444   8.389   1.830  0.00  0.00    +0.209 HD
ENDBRANCH  19  20
ENDBRANCH  18  19
ENDBRANCH  17  18
ENDBRANCH  12  17
ENDBRANCH   7  10
BRANCH   1  22
ATOM     22  N   UNL     1       2.560   0.390   1.211  0.00  0.00    -0.322 N 
ATOM     23  H   UNL     1       3.505   0.123   1.480  0.00  0.00    +0.148 HD
BRANCH  22  24
ATOM     24  C   UNL     1       1.609  -0.691   1.470  0.00  0.00    +0.099 C 
ATOM     25  C   UNL     1       0.272  -0.413   0.768  0.00  0.00    +0.033 C 
BRANCH  24  26
ATOM     26  C   UNL     1       2.204  -1.992   0.932  0.00  0.00    -0.028 A 
ATOM     27  C   UNL     1       2.431  -3.074   1.796  0.00  0.00    +0.005 A 
ATOM     28  C   UNL     1       2.916  -4.289   1.305  0.00  0.00    +0.000 A 
ATOM     29  C   UNL     1       3.186  -4.439  -0.054  0.00  0.00    +0.000 A 
ATOM     30  C   UNL     1       2.989  -3.367  -0.922  0.00  0.00    +0.000 A 
ATOM     31  C   UNL     1       2.509  -2.151  -0.433  0.00  0.00    +0.005 A 
ENDBRANCH  24  26
ENDBRANCH  22  24
ENDBRANCH   1  22
TORSDOF 8
