REMARK  Name = 
REMARK  5 active torsions:
REMARK  status: ('A' for Active; 'I' for Inactive)
REMARK    1  A    between atoms: C_1  and  C_2
REMARK    2  A    between atoms: C_5  and  C_19
REMARK    3  A    between atoms: C_7  and  C_8
REMARK    4  A    between atoms: N_21  and  C_22
REMARK    5  A    between atoms: C_26  and  C_28
REMARK                            x       y       z     vdW  Elec       q    Type
REMARK                         _______ _______ _______ _____ _____    ______ ____
ROOT
ATOM      1  C   UNL     1       0.985   0.408  -0.003  0.00  0.00    +0.044 C 
ATOM      2  C   UNL     1       2.480   0.206  -0.061  0.00  0.00    -0.043 A 
ATOM      3  C   UNL     1       3.136  -1.061  -0.114  0.00  0.00    -0.014 A 
ATOM      4  C   UNL     1       4.560  -1.043  -0.222  0.00  0.00    +0.021 A 
ATOM      5  C   UNL     1       5.293   0.154  -0.287  0.00  0.00    +0.038 A 
ATOM      6  C   UNL     1       4.618   1.368  -0.186  0.00  0.00    +0.013 A 
ATOM      7  C   UNL     1       3.237   1.394  -0.067  0.00  0.00    +0.005 A 
ENDROOT
BRANCH   3   8
ATOM      8  C   UNL     1       2.426  -2.384  -0.082  0.00  0.00    -0.017 A 
ATOM      9  C   UNL     1       1.237  -2.605   0.632  0.00  0.00    +0.020 A 
ATOM     10  C   UNL     1       0.555  -3.847   0.605  0.00  0.00    +0.019 A 
ATOM     11  C   UNL     1       1.079  -4.948  -0.063  0.00  0.00    +0.076 A 
ATOM     12  N   UNL     1       0.463  -6.141  -0.074  0.00  0.00    -0.215 NA
ATOM     13  C   UNL     1      -0.696  -6.245   0.585  0.00  0.00    +0.213 A 
ATOM     14  N   UNL     1      -1.317  -5.244   1.211  0.00  0.00    -0.222 NA
ATOM     15  N   UNL     1      -1.325  -7.467   0.584  0.00  0.00    -0.327 N 
ATOM     16  H   UNL     1      -2.318  -7.347   0.713  0.00  0.00    +0.145 HD
ATOM     17  H   UNL     1      -1.025  -8.020  -0.210  0.00  0.00    +0.145 HD
ATOM     18  C   UNL     1       2.277  -4.759  -0.734  0.00  0.00    +0.029 A 
ATOM     19  C   UNL     1      -0.671  -4.064   1.216  0.00  0.00    +0.124 A 
ATOM     20  C   UNL     1       2.926  -3.508  -0.766  0.00  0.00    +0.010 A 
ENDBRANCH   3   8
BRANCH   5  21
ATOM     21  C   UNL     1       6.780   0.237  -0.414  0.00  0.00    +0.248 C 
ATOM     22  N   UNL     1       7.412  -0.726  -1.189  0.00  0.00    -0.281 N 
ATOM     23  H   UNL     1       6.842  -1.453  -1.597  0.00  0.00    +0.155 HD
ATOM     24  O   UNL     1       7.321   1.194   0.131  0.00  0.00    -0.270 OA
BRANCH  22  25
ATOM     25  C   UNL     1       8.785  -0.718  -1.563  0.00  0.00    +0.034 A 
ATOM     26  C   UNL     1       9.258  -1.746  -2.394  0.00  0.00    +0.035 A 
ATOM     27  C   UNL     1      10.601  -1.770  -2.835  0.00  0.00    +0.057 A 
ATOM     28  C   UNL     1      11.472  -0.750  -2.428  0.00  0.00    +0.012 A 
ATOM     29  C   UNL     1      11.013   0.269  -1.602  0.00  0.00    +0.002 A 
ATOM     30  C   UNL     1       9.684   0.282  -1.175  0.00  0.00    +0.023 A 
BRANCH  27  31
ATOM     31  C   UNL     1      11.096  -2.872  -3.738  0.00  0.00    +0.417 C 
ATOM     32  F   UNL     1      10.374  -2.961  -4.890  0.00  0.00    -0.166 F 
ATOM     33  F   UNL     1      11.021  -4.099  -3.154  0.00  0.00    -0.166 F 
ATOM     34  F   UNL     1      12.394  -2.721  -4.125  0.00  0.00    -0.166 F 
ENDBRANCH  27  31
ENDBRANCH  22  25
ENDBRANCH   5  21
TORSDOF 4
