REMARK  Name = 
REMARK  9 active torsions:
REMARK  status: ('A' for Active; 'I' for Inactive)
REMARK    1  A    between atoms: C_1  and  C_2
REMARK    2  A    between atoms: C_2  and  C_3
REMARK    3  A    between atoms: C_3  and  C_4
REMARK    4  A    between atoms: C_4  and  C_6
REMARK    5  A    between atoms: C_6  and  O_7
REMARK    6  A    between atoms: C_8  and  O_9
REMARK    7  A    between atoms: O_9  and  P_10
REMARK    8  A    between atoms: P_10  and  O_11
REMARK    9  A    between atoms: P_10  and  O_12
REMARK                            x       y       z     vdW  Elec       q    Type
REMARK                         _______ _______ _______ _____ _____    ______ ____
ROOT
ATOM      1  C   UNL     1       5.340   1.026  -2.467  0.00  0.00    +0.195 C 
ATOM      2  C   UNL     1       6.663   1.169  -2.553  0.00  0.00    +0.248 C 
ENDROOT
BRANCH   1   3
ATOM      3  C   UNL     1       4.631   0.454  -1.274  0.00  0.00    +0.200 C 
ATOM      4  O   UNL     1       3.404   0.385  -1.341  0.00  0.00    -0.289 OA
BRANCH   3   5
ATOM      5  C   UNL     1       5.443  -0.001  -0.085  0.00  0.00    +0.083 C 
BRANCH   5   7
ATOM      6  C   UNL     1       5.432  -0.914   2.245  0.00  0.00    +0.004 C 
ATOM      7  C   UNL     1       4.570  -0.460   1.079  0.00  0.00    +0.005 C 
ENDBRANCH   5   7
ENDBRANCH   3   5
ENDBRANCH   1   3
BRANCH   1   8
ATOM      8  O   UNL     1       4.539   1.434  -3.526  0.00  0.00    -0.501 OA
ATOM      9  H   UNL     1       3.623   1.244  -3.239  0.00  0.00    +0.292 HD
ENDBRANCH   1   8
BRANCH   2  10
ATOM     10  O   UNL     1       7.226   1.742  -3.663  0.00  0.00    -0.408 OA
BRANCH  10  11
ATOM     11  P   UNL     1       8.779   2.085  -3.877  0.00  0.00    +0.528 P 
ATOM     12  O   UNL     1       9.524   2.445  -2.643  0.00  0.00    -0.216 OA
BRANCH  11  13
ATOM     13  O   UNL     1       8.625   3.199  -5.011  0.00  0.00    -0.293 OA
ATOM     14  H   UNL     1       7.757   3.637  -4.938  0.00  0.00    +0.223 HD
ENDBRANCH  11  13
BRANCH  11  15
ATOM     15  O   UNL     1       9.256   0.798  -4.691  0.00  0.00    -0.293 OA
ATOM     16  H   UNL     1       9.072  -0.034  -4.225  0.00  0.00    +0.223 HD
ENDBRANCH  11  15
ENDBRANCH  10  11
ENDBRANCH   2  10
TORSDOF 8
