REMARK  Name = 
REMARK  7 active torsions:
REMARK  status: ('A' for Active; 'I' for Inactive)
REMARK    1  A    between atoms: C_1  and  C_2
REMARK    2  A    between atoms: C_14  and  C_16
REMARK    3  A    between atoms: C_16  and  C_17
REMARK    4  A    between atoms: C_16  and  C_18
REMARK    5  A    between atoms: C_16  and  C_19
REMARK    6  A    between atoms: C_21  and  O_23
REMARK    7  A    between atoms: C_34  and  O_35
REMARK                            x       y       z     vdW  Elec       q    Type
REMARK                         _______ _______ _______ _____ _____    ______ ____
ROOT
ATOM      1  C   UNL     1       0.000   0.000  -0.000  0.00  0.00    +0.022 C 
ATOM      2  C   UNL     1      -0.000  -0.000  -0.000  0.00  0.00    +0.133 C 
ATOM      3  C   UNL     1      -0.000  -0.000  -0.000  0.00  0.00    +0.155 C 
ATOM      4  C   UNL     1      -0.000  -0.000  -0.000  0.00  0.00    +0.213 C 
ATOM      5  C   UNL     1      -0.000  -0.000  -0.000  0.00  0.00    +0.062 C 
ATOM      6  C   UNL     1      -0.000  -0.000  -0.000  0.00  0.00    +0.068 C 
ATOM      7  C   UNL     1      -0.000  -0.000  -0.000  0.00  0.00    +0.085 C 
ATOM      8  C   UNL     1      -0.000  -0.000  -0.000  0.00  0.00    +0.322 C 
ATOM      9  O   UNL     1      -0.000  -0.000  -0.000  0.00  0.00    -0.319 OA
ATOM     10  O   UNL     1      -0.000  -0.000  -0.000  0.00  0.00    -0.433 OA
ATOM     11  C   UNL     1      -0.000  -0.000  -0.000  0.00  0.00    +0.339 C 
ATOM     12  O   UNL     1      -0.000  -0.000  -0.000  0.00  0.00    -0.248 OA
ATOM     13  C   UNL     1      -0.000  -0.000  -0.000  0.00  0.00    +0.236 C 
ATOM     14  C   UNL     1      -0.000  -0.000  -0.000  0.00  0.00    +0.014 C 
ATOM     15  C   UNL     1      -0.000  -0.000  -0.000  0.00  0.00    +0.050 C 
ATOM     16  C   UNL     1      -0.000  -0.000  -0.000  0.00  0.00    +0.187 C 
ATOM     17  O   UNL     1      -0.000  -0.000  -0.000  0.00  0.00    -0.459 OA
ATOM     18  C   UNL     1      -0.000  -0.000  -0.000  0.00  0.00    +0.344 C 
ATOM     19  O   UNL     1      -0.000  -0.000  -0.000  0.00  0.00    -0.247 OA
ATOM     20  O   UNL     1      -0.000  -0.000  -0.000  0.00  0.00    -0.458 OA
ATOM     21  C   UNL     1      -0.000  -0.000  -0.000  0.00  0.00    +0.212 C 
ATOM     22  C   UNL     1      -0.000  -0.000  -0.000  0.00  0.00    +0.313 C 
ATOM     23  O   UNL     1      -0.000  -0.000  -0.000  0.00  0.00    -0.250 OA
ENDROOT
BRANCH  14  24
ATOM     24  C   UNL     1      -0.000  -0.000  -0.000  0.00  0.00    -0.034 C 
ATOM     25  C   UNL     1      -0.000  -0.000  -0.000  0.00  0.00    +0.011 C 
ATOM     26  C   UNL     1      -0.000  -0.000  -0.000  0.00  0.00    +0.011 C 
ATOM     27  C   UNL     1      -0.000  -0.000  -0.000  0.00  0.00    +0.011 C 
ENDBRANCH  14  24
BRANCH   3  28
ATOM     28  O   UNL     1      -0.000  -0.000  -0.000  0.00  0.00    -0.381 OA
ATOM     29  H   UNL     1       0.000   0.000   0.000  0.00  0.00    +0.210 HD
ENDBRANCH   3  28
BRANCH  13  30
ATOM     30  O   UNL     1       0.000  -0.000  -0.000  0.00  0.00    -0.380 OA
ATOM     31  H   UNL     1       0.000   0.000   0.000  0.00  0.00    +0.211 HD
ENDBRANCH  13  30
TORSDOF 3
