REMARK  Name = 
REMARK  15 active torsions:
REMARK  status: ('A' for Active; 'I' for Inactive)
REMARK    1  A    between atoms: C_2  and  C_3
REMARK    2  A    between atoms: C_3  and  O_4
REMARK    3  A    between atoms: C_3  and  C_5
REMARK    4  A    between atoms: C_5  and  O_6
REMARK    5  A    between atoms: C_7  and  C_8
REMARK    6  A    between atoms: C_8  and  O_9
REMARK    7  A    between atoms: O_9  and  C_10
REMARK    8  A    between atoms: C_13  and  C_14
REMARK    9  A    between atoms: C_14  and  C_15
REMARK   10  A    between atoms: C_17  and  C_22
REMARK   11  A    between atoms: C_25  and  C_27
REMARK   12  A    between atoms: C_27  and  O_28
REMARK   13  A    between atoms: C_29  and  O_31
REMARK   14  A    between atoms: C_32  and  O_34
REMARK   15  A    between atoms: C_35  and  O_37
REMARK                            x       y       z     vdW  Elec       q    Type
REMARK                         _______ _______ _______ _____ _____    ______ ____
ROOT
ATOM      1  O   HOH     1       1.375   1.965   1.656  0.00  0.00    -0.410 OA
ATOM      2  H   HOH     0       1.337   2.202   0.720  0.00  0.00    +0.205 HD
ATOM      3  H   HOH     0       1.867   1.116   1.632  0.00  0.00    +0.205 HD
ENDROOT
TORSDOF 0
REMARK  Name = 
REMARK  15 active torsions:
REMARK  status: ('A' for Active; 'I' for Inactive)
REMARK    1  A    between atoms: C_2  and  C_3
REMARK    2  A    between atoms: C_3  and  O_4
REMARK    3  A    between atoms: C_3  and  C_5
REMARK    4  A    between atoms: C_5  and  O_6
REMARK    5  A    between atoms: C_7  and  C_8
REMARK    6  A    between atoms: C_8  and  O_9
REMARK    7  A    between atoms: O_9  and  C_10
REMARK    8  A    between atoms: C_13  and  C_14
REMARK    9  A    between atoms: C_14  and  C_15
REMARK   10  A    between atoms: C_17  and  C_22
REMARK   11  A    between atoms: C_25  and  C_27
REMARK   12  A    between atoms: C_27  and  O_28
REMARK   13  A    between atoms: C_29  and  O_31
REMARK   14  A    between atoms: C_32  and  O_34
REMARK   15  A    between atoms: C_35  and  O_37
REMARK                            x       y       z     vdW  Elec       q    Type
REMARK                         _______ _______ _______ _____ _____    ______ ____
ROOT
ATOM      1  C   UNL     1       0.885  -0.635  -0.776  0.00  0.00    +0.040 C 
ATOM      2  C   UNL     1       2.372  -0.403  -0.572  0.00  0.00    +0.137 C 
ENDROOT
BRANCH   2   3
ATOM      3  O   UNL     1       2.630  -0.394   0.836  0.00  0.00    -0.390 OA
ATOM      4  H   UNL     1       2.937  -1.287   1.085  0.00  0.00    +0.210 HD
ENDBRANCH   2   3
BRANCH   2   5
ATOM      5  C   UNL     1       3.214  -1.464  -1.292  0.00  0.00    +0.186 C 
BRANCH   5   6
ATOM      6  O   UNL     1       4.602  -1.266  -1.040  0.00  0.00    -0.392 OA
ATOM      7  H   UNL     1       4.809  -0.330  -1.209  0.00  0.00    +0.210 HD
ENDBRANCH   5   6
ENDBRANCH   2   5
TORSDOF 3
REMARK  Name = 
REMARK  15 active torsions:
REMARK  status: ('A' for Active; 'I' for Inactive)
REMARK    1  A    between atoms: C_2  and  C_3
REMARK    2  A    between atoms: C_3  and  O_4
REMARK    3  A    between atoms: C_3  and  C_5
REMARK    4  A    between atoms: C_5  and  O_6
REMARK    5  A    between atoms: C_7  and  C_8
REMARK    6  A    between atoms: C_8  and  O_9
REMARK    7  A    between atoms: O_9  and  C_10
REMARK    8  A    between atoms: C_13  and  C_14
REMARK    9  A    between atoms: C_14  and  C_15
REMARK   10  A    between atoms: C_17  and  C_22
REMARK   11  A    between atoms: C_25  and  C_27
REMARK   12  A    between atoms: C_27  and  O_28
REMARK   13  A    between atoms: C_29  and  O_31
REMARK   14  A    between atoms: C_32  and  O_34
REMARK   15  A    between atoms: C_35  and  O_37
REMARK                            x       y       z     vdW  Elec       q    Type
REMARK                         _______ _______ _______ _____ _____    ______ ____
ROOT
ATOM      1  C   UNL     1      14.801  -2.861   1.150  0.00  0.00    -0.024 A 
ATOM      2  C   UNL     1      13.427  -3.143   1.113  0.00  0.00    +0.044 A 
ATOM      3 CL   UNL     1      12.763  -4.408   0.141  0.00  0.00    -0.083 Cl
ATOM      4  C   UNL     1      12.530  -2.399   1.880  0.00  0.00    +0.020 A 
ATOM      5  C   UNL     1      12.985  -1.344   2.668  0.00  0.00    +0.008 A 
ATOM      6  C   UNL     1      14.342  -0.993   2.685  0.00  0.00    -0.016 A 
ATOM      7  C   UNL     1      15.241  -1.769   1.936  0.00  0.00    +0.011 A 
ENDROOT
BRANCH   6   8
ATOM      8  C   UNL     1      14.796   0.167   3.561  0.00  0.00    +0.180 C 
ATOM      9  C   UNL     1      15.070  -0.284   5.015  0.00  0.00    +0.179 C 
ATOM     10  C   UNL     1      15.592   0.912   5.830  0.00  0.00    +0.177 C 
ATOM     11  C   UNL     1      16.771   1.595   5.131  0.00  0.00    +0.176 C 
ATOM     12  C   UNL     1      16.377   1.962   3.697  0.00  0.00    +0.175 C 
ATOM     13  O   UNL     1      15.954   0.790   2.979  0.00  0.00    -0.361 OA
BRANCH   9  14
ATOM     14  O   UNL     1      13.878  -0.819   5.613  0.00  0.00    -0.386 OA
ATOM     15  H   UNL     1      13.452  -0.127   6.147  0.00  0.00    +0.210 HD
ENDBRANCH   9  14
BRANCH  10  16
ATOM     16  O   UNL     1      15.985   0.494   7.144  0.00  0.00    -0.386 OA
ATOM     17  H   UNL     1      16.588   1.183   7.488  0.00  0.00    +0.210 HD
ENDBRANCH  10  16
BRANCH  11  18
ATOM     18  O   UNL     1      17.163   2.736   5.904  0.00  0.00    -0.386 OA
ATOM     19  H   UNL     1      16.486   3.430   5.814  0.00  0.00    +0.210 HD
ENDBRANCH  11  18
BRANCH  12  20
ATOM     20  C   UNL     1      17.555   2.587   2.941  0.00  0.00    +0.190 C 
BRANCH  20  21
ATOM     21  O   UNL     1      17.126   3.002   1.644  0.00  0.00    -0.392 OA
ATOM     22  H   UNL     1      16.761   2.203   1.217  0.00  0.00    +0.210 HD
ENDBRANCH  20  21
ENDBRANCH  12  20
ENDBRANCH   6   8
BRANCH   1  23
ATOM     23  C   UNL     1      15.825  -3.752   0.482  0.00  0.00    +0.071 C 
BRANCH  23  27
ATOM     24  C   UNL     1      18.677  -1.785  -2.113  0.00  0.00    +0.121 A 
ATOM     25  C   UNL     1      17.323  -1.802  -2.451  0.00  0.00    +0.046 A 
ATOM     26  C   UNL     1      16.387  -2.430  -1.616  0.00  0.00    +0.007 A 
ATOM     27  C   UNL     1      16.801  -3.052  -0.430  0.00  0.00    -0.043 A 
ATOM     28  C   UNL     1      18.162  -3.050  -0.112  0.00  0.00    +0.007 A 
ATOM     29  C   UNL     1      19.087  -2.420  -0.944  0.00  0.00    +0.046 A 
BRANCH  24  30
ATOM     30  O   UNL     1      19.510  -1.119  -2.978  0.00  0.00    -0.492 OA
BRANCH  30  32
ATOM     31  C   UNL     1      21.638  -0.124  -3.517  0.00  0.00    +0.048 C 
ATOM     32  C   UNL     1      20.864  -0.987  -2.543  0.00  0.00    +0.225 C 
ENDBRANCH  30  32
ENDBRANCH  24  30
ENDBRANCH  23  27
ENDBRANCH   1  23
TORSDOF 10
