REMARK  Name = 
REMARK  5 active torsions:
REMARK  status: ('A' for Active; 'I' for Inactive)
REMARK    1  A    between atoms: C_1  and  N_2
REMARK    2  A    between atoms: N_5  and  C_8
REMARK    3  A    between atoms: C_11  and  C_14
REMARK    4  A    between atoms: C_20  and  N_21
REMARK    5  A    between atoms: C_22  and  C_24
REMARK                            x       y       z     vdW  Elec       q    Type
REMARK                         _______ _______ _______ _____ _____    ______ ____
ROOT
ATOM      1  C   UNL     1       5.778  -2.092  -7.622  0.00  0.00    +0.001 A 
ATOM      2  C   UNL     1       5.359  -3.127  -8.467  0.00  0.00    +0.121 A 
ATOM      3  N   UNL     1       5.820  -3.398  -9.717  0.00  0.00    -0.237 NA
ATOM      4  C   UNL     1       6.749  -2.521 -10.132  0.00  0.00    +0.140 A 
ATOM      5  N   UNL     1       7.331  -2.539 -11.366  0.00  0.00    -0.344 N 
ATOM      6  H   UNL     1       7.118  -3.219 -12.082  0.00  0.00    +0.167 HD
ATOM      7  C   UNL     1       8.205  -1.489 -11.480  0.00  0.00    +0.108 A 
ATOM      8  C   UNL     1       8.206  -0.783 -10.294  0.00  0.00    +0.061 A 
ATOM      9  C   UNL     1       7.283  -1.448  -9.427  0.00  0.00    +0.040 A 
ATOM     10  C   UNL     1       6.803  -1.260  -8.119  0.00  0.00    +0.023 A 
ENDROOT
BRANCH   1  14
ATOM     11  C   UNL     1       3.755  -1.151  -3.876  0.00  0.00    +0.030 A 
ATOM     12  C   UNL     1       3.907  -2.476  -4.305  0.00  0.00    +0.024 A 
ATOM     13  C   UNL     1       4.580  -2.805  -5.499  0.00  0.00    +0.010 A 
ATOM     14  C   UNL     1       5.135  -1.813  -6.318  0.00  0.00    -0.016 A 
ATOM     15  C   UNL     1       5.013  -0.491  -5.865  0.00  0.00    +0.010 A 
ATOM     16  C   UNL     1       4.354  -0.174  -4.674  0.00  0.00    +0.024 A 
BRANCH  11  21
ATOM     17  C   UNL     1       1.275   0.309   0.267  0.00  0.00    +0.105 C 
ATOM     18  N   UNL     1       0.784  -0.470  -0.867  0.00  0.00    -0.302 NA
ATOM     19  C   UNL     1       1.525  -1.746  -1.018  0.00  0.00    +0.103 C 
ATOM     20  C   UNL     1       2.977  -1.621  -1.543  0.00  0.00    +0.120 C 
ATOM     21  N   UNL     1       3.006  -0.813  -2.770  0.00  0.00    -0.327 N 
ATOM     22  C   UNL     1       2.328   0.489  -2.670  0.00  0.00    +0.120 C 
ATOM     23  C   UNL     1       0.890   0.295  -2.130  0.00  0.00    +0.103 C 
ENDBRANCH  11  21
ENDBRANCH   1  14
BRANCH   8  24
ATOM     24  N   UNL     1       8.937   0.370 -10.003  0.00  0.00    -0.280 N 
ATOM     25  H   UNL     1       8.822   0.748  -9.073  0.00  0.00    +0.155 HD
ATOM     26  C   UNL     1       9.833   0.961 -10.884  0.00  0.00    +0.250 C 
ATOM     27  O   UNL     1      10.121   0.545 -12.002  0.00  0.00    -0.270 OA
BRANCH  26  28
ATOM     28  C   UNL     1      10.520   2.191 -10.434  0.00  0.00    +0.055 A 
ATOM     29  C   UNL     1       9.958   3.162  -9.605  0.00  0.00    +0.016 A 
ATOM     30  C   UNL     1      10.689   4.322  -9.332  0.00  0.00    +0.020 A 
ATOM     31  C   UNL     1      11.952   4.469  -9.890  0.00  0.00    +0.111 A 
ATOM     32  N   UNL     1      12.523   3.544 -10.688  0.00  0.00    -0.263 NA
ATOM     33  C   UNL     1      11.789   2.437 -10.953  0.00  0.00    +0.123 A 
ENDBRANCH  26  28
ENDBRANCH   8  24
TORSDOF 4
