REMARK  Name = 
REMARK  11 active torsions:
REMARK  status: ('A' for Active; 'I' for Inactive)
REMARK    1  A    between atoms: C_2  and  O_3
REMARK    2  A    between atoms: C_2  and  C_4
REMARK    3  A    between atoms: C_2  and  C_9
REMARK    4  A    between atoms: C_4  and  N_5
REMARK    5  A    between atoms: N_5  and  C_6
REMARK    6  A    between atoms: C_6  and  C_7
REMARK    7  A    between atoms: C_6  and  C_8
REMARK    8  A    between atoms: C_9  and  O_10
REMARK    9  A    between atoms: O_10  and  C_11
REMARK   10  A    between atoms: C_14  and  C_15
REMARK   11  A    between atoms: C_15  and  C_16
REMARK                            x       y       z     vdW  Elec       q    Type
REMARK                         _______ _______ _______ _____ _____    ______ ____
ROOT
ATOM      1  C   UNL     1       4.516  -2.611   1.124  0.00  0.00    +0.121 A 
ATOM      2  C   UNL     1       5.893  -2.645   1.353  0.00  0.00    +0.046 A 
ATOM      3  C   UNL     1       6.495  -3.781   1.909  0.00  0.00    +0.007 A 
ATOM      4  C   UNL     1       5.719  -4.896   2.251  0.00  0.00    -0.038 A 
ATOM      5  C   UNL     1       4.352  -4.879   1.957  0.00  0.00    +0.007 A 
ATOM      6  C   UNL     1       3.758  -3.748   1.402  0.00  0.00    +0.046 A 
ENDROOT
BRANCH   1   7
ATOM      7  O   UNL     1       4.014  -1.424   0.654  0.00  0.00    -0.489 OA
BRANCH   7   8
ATOM      8  C   UNL     1       2.590  -1.375   0.526  0.00  0.00    +0.261 C 
BRANCH   8   9
ATOM      9  C   UNL     1       2.120  -0.003   0.045  0.00  0.00    +0.166 C 
BRANCH   9  10
ATOM     10  O   UNL     1       0.694  -0.039  -0.122  0.00  0.00    -0.387 OA
ATOM     11  H   UNL     1       0.504   0.624  -0.819  0.00  0.00    +0.210 HD
ENDBRANCH   9  10
BRANCH   9  12
ATOM     12  C   UNL     1       2.777   0.374  -1.293  0.00  0.00    +0.115 C 
BRANCH  12  13
ATOM     13  N   UNL     1       2.191   1.628  -1.802  0.00  0.00    -0.311 NA
ATOM     14  H   UNL     1       2.322   2.358  -1.098  0.00  0.00    +0.122 HD
BRANCH  13  15
ATOM     15  C   UNL     1       2.837   2.069  -3.051  0.00  0.00    +0.048 C 
ATOM     16  C   UNL     1       2.283   3.448  -3.414  0.00  0.00    +0.023 C 
ATOM     17  C   UNL     1       2.598   1.094  -4.206  0.00  0.00    +0.023 C 
ENDBRANCH  13  15
ENDBRANCH  12  13
ENDBRANCH   9  12
ENDBRANCH   8   9
ENDBRANCH   7   8
ENDBRANCH   1   7
BRANCH   4  18
ATOM     18  C   UNL     1       6.308  -6.073   2.991  0.00  0.00    +0.130 C 
BRANCH  18  19
ATOM     19  C   UNL     1       6.733  -7.283   2.187  0.00  0.00    +0.215 C 
ATOM     20  O   UNL     1       7.136  -8.309   2.734  0.00  0.00    -0.276 OA
ATOM     21  N   UNL     1       6.676  -7.229   0.831  0.00  0.00    -0.329 N 
ATOM     22  H   UNL     1       6.979  -8.047   0.319  0.00  0.00    +0.145 HD
ATOM     23  H   UNL     1       6.399  -6.404   0.318  0.00  0.00    +0.145 HD
ENDBRANCH  18  19
ENDBRANCH   4  18
TORSDOF 9
