REMARK  Name = 
REMARK  13 active torsions:
REMARK  status: ('A' for Active; 'I' for Inactive)
REMARK    1  A    between atoms: O_2  and  C_3
REMARK    2  A    between atoms: C_3  and  C_4
REMARK    3  A    between atoms: C_4  and  O_6
REMARK    4  A    between atoms: C_4  and  C_7
REMARK    5  A    between atoms: C_7  and  C_9
REMARK    6  A    between atoms: C_7  and  N_11
REMARK    7  A    between atoms: C_9  and  O_10
REMARK    8  A    between atoms: N_14  and  C_15
REMARK    9  A    between atoms: C_15  and  C_16
REMARK   10  A    between atoms: N_21  and  C_22
REMARK   11  A    between atoms: C_22  and  C_23
REMARK   12  A    between atoms: N_28  and  C_29
REMARK   13  A    between atoms: C_29  and  C_30
REMARK                            x       y       z     vdW  Elec       q    Type
REMARK                         _______ _______ _______ _____ _____    ______ ____
ROOT
ATOM      1 GD   UNL     1       0.141  -0.773  -1.656  0.00  0.00    +0.000 Gd
ENDROOT
TORSDOF 0
REMARK  Name = 
REMARK  13 active torsions:
REMARK  status: ('A' for Active; 'I' for Inactive)
REMARK    1  A    between atoms: O_2  and  C_3
REMARK    2  A    between atoms: C_3  and  C_4
REMARK    3  A    between atoms: C_4  and  O_6
REMARK    4  A    between atoms: C_4  and  C_7
REMARK    5  A    between atoms: C_7  and  C_9
REMARK    6  A    between atoms: C_7  and  N_11
REMARK    7  A    between atoms: C_9  and  O_10
REMARK    8  A    between atoms: N_14  and  C_15
REMARK    9  A    between atoms: C_15  and  C_16
REMARK   10  A    between atoms: N_21  and  C_22
REMARK   11  A    between atoms: C_22  and  C_23
REMARK   12  A    between atoms: N_28  and  C_29
REMARK   13  A    between atoms: C_29  and  C_30
REMARK                            x       y       z     vdW  Elec       q    Type
REMARK                         _______ _______ _______ _____ _____    ______ ____
ROOT
ATOM      1  N   UNL     1       4.709   1.905  -2.086  0.00  0.00    +0.000 NA
ATOM      2  C   UNL     1       3.725   2.940  -2.513  0.00  0.00    +0.000 C 
ATOM      3  C   UNL     1       3.859   4.253  -1.720  0.00  0.00    +0.000 C 
ATOM      4  N   UNL     1       3.316   5.389  -2.522  0.00  0.00    +0.000 NA
ATOM      5  C   UNL     1       4.248   6.549  -2.600  0.00  0.00    +0.000 C 
ATOM      6  C   UNL     1       5.326   6.387  -3.705  0.00  0.00    +0.000 C 
ATOM      7  N   UNL     1       6.426   5.444  -3.377  0.00  0.00    +0.000 NA
ATOM      8  C   UNL     1       7.165   5.059  -4.601  0.00  0.00    +0.000 C 
ATOM      9  C   UNL     1       8.164   3.900  -4.395  0.00  0.00    +0.000 C 
ATOM     10  N   UNL     1       7.445   2.603  -4.424  0.00  0.00    +0.000 NA
ATOM     11  C   UNL     1       6.965   2.195  -3.086  0.00  0.00    +0.000 C 
ATOM     12  C   UNL     1       5.625   1.452  -3.166  0.00  0.00    +0.000 C 
ENDROOT
BRANCH   1  13
ATOM     13  C   UNL     1       4.376   0.974  -0.975  0.00  0.00    +0.000 C 
BRANCH  13  14
ATOM     14  C   UNL     1       3.705  -0.341  -1.502  0.00  0.00    +0.000 C 
BRANCH  14  15
ATOM     15  O   UNL     1       2.603   0.016  -2.297  0.00  0.00    +0.000 OA
ATOM     16  H   UNL     1       2.517  -0.674  -3.007  0.00  0.00    +0.000 HD
ENDBRANCH  14  15
BRANCH  14  17
ATOM     17  C   UNL     1       3.216  -1.313  -0.406  0.00  0.00    +0.000 C 
BRANCH  17  18
ATOM     18  O   UNL     1       2.602  -2.423  -1.007  0.00  0.00    +0.000 OA
ATOM     19  H   UNL     1       2.644  -3.169  -0.353  0.00  0.00    +0.000 HD
ENDBRANCH  17  18
ENDBRANCH  14  17
ENDBRANCH  13  14
BRANCH  13  20
ATOM     20  C   UNL     1       5.666   0.719  -0.148  0.00  0.00    +0.000 C 
BRANCH  20  21
ATOM     21  O   UNL     1       5.440  -0.007   1.030  0.00  0.00    +0.000 OA
ATOM     22  H   UNL     1       4.829   0.534   1.592  0.00  0.00    +0.000 HD
ENDBRANCH  20  21
ENDBRANCH  13  20
ENDBRANCH   1  13
BRANCH   4  23
ATOM     23  C   UNL     1       1.969   5.803  -2.073  0.00  0.00    +0.000 C 
BRANCH  23  24
ATOM     24  C   UNL     1       1.337   6.766  -3.051  0.00  0.00    +0.000 C 
ATOM     25  O   UNL     1       1.034   7.898  -2.697  0.00  0.00    -0.500 OA
ATOM     26  O   UNL     1       1.154   6.406  -4.336  0.00  0.00    -0.500 OA
ENDBRANCH  23  24
ENDBRANCH   4  23
BRANCH   7  27
ATOM     27  C   UNL     1       7.271   5.898  -2.217  0.00  0.00    +0.000 C 
BRANCH  27  28
ATOM     28  C   UNL     1       8.559   6.682  -2.446  0.00  0.00    +0.000 C 
ATOM     29  O   UNL     1       9.214   6.992  -1.467  0.00  0.00    -0.500 OA
ATOM     30  O   UNL     1       9.016   7.047  -3.655  0.00  0.00    -0.500 OA
ENDBRANCH  27  28
ENDBRANCH   7  27
BRANCH  10  31
ATOM     31  C   UNL     1       8.242   1.571  -5.125  0.00  0.00    +0.000 C 
BRANCH  31  32
ATOM     32  C   UNL     1       7.438   0.341  -5.439  0.00  0.00    +0.000 C 
ATOM     33  O   UNL     1       7.800  -0.747  -5.032  0.00  0.00    -0.500 OA
ATOM     34  O   UNL     1       6.330   0.440  -6.200  0.00  0.00    -0.500 OA
ENDBRANCH  31  32
ENDBRANCH  10  31
TORSDOF 13
