REMARK  Name = 
REMARK  10 active torsions:
REMARK  status: ('A' for Active; 'I' for Inactive)
REMARK    1  A    between atoms: C_1  and  O_2
REMARK    2  A    between atoms: O_2  and  C_3
REMARK    3  A    between atoms: C_8  and  C_15
REMARK    4  A    between atoms: C_16  and  O_17
REMARK    5  A    between atoms: C_18  and  C_28
REMARK    6  A    between atoms: N_20  and  C_21
REMARK    7  A    between atoms: C_21  and  C_22
REMARK    8  A    between atoms: C_22  and  C_23
REMARK    9  A    between atoms: C_23  and  C_24
REMARK   10  A    between atoms: C_23  and  C_25
REMARK                            x       y       z     vdW  Elec       q    Type
REMARK                         _______ _______ _______ _____ _____    ______ ____
ROOT
ATOM      1  C   UNL     1       6.368  -5.028   4.259  0.00  0.00    +0.176 A 
ATOM      2  C   UNL     1       5.976  -6.407   3.885  0.00  0.00    +0.286 A 
ATOM      3  O   UNL     1       5.236  -6.588   2.916  0.00  0.00    -0.265 OA
ATOM      4  N   UNL     1       6.455  -7.430   4.684  0.00  0.00    -0.228 N 
ATOM      5  N   UNL     1       7.322  -7.244   5.728  0.00  0.00    -0.164 NA
ATOM      6  C   UNL     1       7.705  -6.032   6.021  0.00  0.00    +0.134 A 
ATOM      7  C   UNL     1       7.229  -4.822   5.273  0.00  0.00    +0.165 A 
ENDROOT
BRANCH   1  13
ATOM      8  C   UNL     1       3.783   0.702   2.497  0.00  0.00    +0.122 A 
ATOM      9  C   UNL     1       3.979  -0.412   1.686  0.00  0.00    +0.081 A 
ATOM     10  C   UNL     1       4.603  -1.548   2.213  0.00  0.00    +0.183 A 
ATOM     11  C   UNL     1       5.034  -1.615   3.530  0.00  0.00    +0.205 A 
ATOM     12  N   UNL     1       5.687  -2.703   4.124  0.00  0.00    -0.037 NA
ATOM     13  C   UNL     1       5.799  -3.853   3.534  0.00  0.00    +0.351 C 
ATOM     14  N   UNL     1       5.400  -4.089   2.220  0.00  0.00    -0.090 N 
ATOM     15  H   UNL     1       5.060  -5.030   1.983  0.00  0.00    +0.326 HD
ATOM     16  C   UNL     1       4.779  -0.507   4.343  0.00  0.00    +0.061 A 
ATOM     17  S   UNL     1       4.881  -2.918   1.177  0.00  0.00    +0.136 S 
ATOM     18  O   UNL     1       5.979  -2.588   0.299  0.00  0.00    -0.130 OA
ATOM     19  O   UNL     1       3.600  -3.358   0.671  0.00  0.00    -0.130 OA
ATOM     20  C   UNL     1       4.155   0.642   3.838  0.00  0.00    +0.050 A 
BRANCH   8  22
ATOM     21  C   UNL     1       3.514   3.045   2.461  0.00  0.00    +0.277 C 
ATOM     22  O   UNL     1       3.195   1.778   1.893  0.00  0.00    -0.495 OA
ENDBRANCH   8  22
ENDBRANCH   1  13
BRANCH   6  23
ATOM     23  C   UNL     1       8.679  -5.862   7.159  0.00  0.00    +0.006 A 
ATOM     24  C   UNL     1       9.558  -6.917   7.456  0.00  0.00    +0.010 A 
ATOM     25  C   UNL     1      10.526  -6.781   8.458  0.00  0.00    +0.001 A 
ATOM     26  C   UNL     1      10.631  -5.591   9.174  0.00  0.00    +0.000 A 
ATOM     27  C   UNL     1       9.736  -4.557   8.925  0.00  0.00    +0.001 A 
ATOM     28  C   UNL     1       8.749  -4.704   7.946  0.00  0.00    +0.010 A 
ENDBRANCH   6  23
BRANCH   7  29
ATOM     29  O   UNL     1       7.697  -3.565   5.630  0.00  0.00    -0.504 OA
ATOM     30  H   UNL     1       7.139  -2.878   5.204  0.00  0.00    +0.292 HD
ENDBRANCH   7  29
BRANCH   4  31
ATOM     31  C   UNL     1       6.021  -8.802   4.431  0.00  0.00    +0.148 C 
BRANCH  31  32
ATOM     32  C   UNL     1       6.858  -9.534   3.377  0.00  0.00    +0.026 C 
BRANCH  32  33
ATOM     33  C   UNL     1       8.335  -9.769   3.746  0.00  0.00    -0.015 C 
ATOM     34  C   UNL     1       9.035 -10.513   2.604  0.00  0.00    +0.007 C 
ATOM     35  C   UNL     1       8.500 -10.558   5.045  0.00  0.00    +0.007 C 
ENDBRANCH  32  33
ENDBRANCH  31  32
ENDBRANCH   4  31
TORSDOF 7
