REMARK  Name = 
REMARK  7 active torsions:
REMARK  status: ('A' for Active; 'I' for Inactive)
REMARK    1  A    between atoms: C_1  and  N_2
REMARK    2  A    between atoms: N_2  and  C_3
REMARK    3  A    between atoms: N_6  and  C_7
REMARK    4  A    between atoms: C_11  and  C_13
REMARK    5  A    between atoms: C_13  and  C_14
REMARK    6  A    between atoms: C_14  and  N_15
REMARK    7  A    between atoms: N_18  and  C_21
REMARK                            x       y       z     vdW  Elec       q    Type
REMARK                         _______ _______ _______ _____ _____    ______ ____
ROOT
ATOM      1  C   UNL     1       9.194   3.493   2.116  0.00  0.00    +0.085 C 
ENDROOT
BRANCH   1   2
ATOM      2  N   UNL     1      10.022   4.006   3.222  0.00  0.00    -0.299 NA
ATOM      3  C   UNL     1      10.502   5.375   2.906  0.00  0.00    +0.103 C 
ATOM      4  C   UNL     1      11.528   5.447   1.746  0.00  0.00    +0.120 C 
ATOM      5  N   UNL     1      12.659   4.523   1.968  0.00  0.00    -0.326 N 
ATOM      6  C   UNL     1      12.268   3.154   2.370  0.00  0.00    +0.120 C 
ATOM      7  C   UNL     1      11.218   3.184   3.501  0.00  0.00    +0.103 C 
BRANCH   5   8
ATOM      8  C   UNL     1      13.989   4.940   2.001  0.00  0.00    +0.050 A 
ATOM      9  C   UNL     1      14.285   6.265   2.388  0.00  0.00    +0.025 A 
ATOM     10  C   UNL     1      15.590   6.757   2.484  0.00  0.00    +0.003 A 
ATOM     11  C   UNL     1      16.664   5.919   2.236  0.00  0.00    +0.021 A 
ATOM     12  C   UNL     1      16.431   4.604   1.841  0.00  0.00    +0.061 A 
ATOM     13 CL   UNL     1      17.833   3.620   1.568  0.00  0.00    -0.082 Cl
ATOM     14  C   UNL     1      15.112   4.122   1.680  0.00  0.00    +0.080 A 
ATOM     15 CL   UNL     1      14.917   2.549   0.938  0.00  0.00    -0.080 Cl
ENDBRANCH   5   8
ENDBRANCH   1   2
BRANCH   1  16
ATOM     16  C   UNL     1       8.686   2.064   2.322  0.00  0.00    +0.019 C 
BRANCH  16  20
ATOM     17  C   UNL     1       5.136   0.933   2.283  0.00  0.00    +0.074 C 
ATOM     18  C   UNL     1       5.569   2.371   1.961  0.00  0.00    +0.022 C 
ATOM     19  C   UNL     1       6.602   2.415   0.834  0.00  0.00    +0.005 C 
ATOM     20  C   UNL     1       7.830   1.546   1.144  0.00  0.00    -0.010 C 
ATOM     21  C   UNL     1       7.385   0.098   1.413  0.00  0.00    +0.005 C 
ATOM     22  C   UNL     1       6.334   0.007   2.524  0.00  0.00    +0.022 C 
BRANCH  17  26
ATOM     23  C   UNL     1       0.921   0.246  -0.091  0.00  0.00    +0.133 C 
ATOM     24  N   UNL     1       2.362   0.106  -0.008  0.00  0.00    -0.292 N 
ATOM     25  C   UNL     1       2.975   0.652   1.112  0.00  0.00    +0.302 C 
ATOM     26  N   UNL     1       4.322   0.386   1.207  0.00  0.00    -0.296 N 
ATOM     27  H   UNL     1       4.791   0.208   0.335  0.00  0.00    +0.151 HD
ATOM     28  O   UNL     1       2.364   1.293   1.961  0.00  0.00    -0.253 OA
ATOM     29  C   UNL     1       3.023  -0.771  -0.961  0.00  0.00    +0.133 C 
ENDBRANCH  17  26
ENDBRANCH  16  20
ENDBRANCH   1  16
TORSDOF 5
