REMARK  Name = 
REMARK  27 active torsions:
REMARK  status: ('A' for Active; 'I' for Inactive)
REMARK    1  A    between atoms: C_2  and  C_3
REMARK    2  A    between atoms: C_6  and  C_7
REMARK    3  A    between atoms: C_7  and  O_8
REMARK    4  A    between atoms: O_8  and  P_9
REMARK    5  A    between atoms: P_9  and  O_10
REMARK    6  A    between atoms: P_9  and  O_11
REMARK    7  A    between atoms: C_13  and  C_14
REMARK    8  A    between atoms: C_14  and  N_15
REMARK    9  A    between atoms: N_15  and  C_16
REMARK   10  A    between atoms: N_15  and  C_38
REMARK   11  A    between atoms: C_16  and  C_17
REMARK   12  A    between atoms: C_17  and  N_18
REMARK   13  A    between atoms: N_18  and  C_19
REMARK   14  A    between atoms: N_18  and  C_23
REMARK   15  A    between atoms: C_19  and  C_20
REMARK   16  A    between atoms: C_20  and  O_21
REMARK   17  A    between atoms: C_23  and  C_24
REMARK   18  A    between atoms: C_25  and  O_26
REMARK   19  A    between atoms: C_27  and  C_28
REMARK   20  A    between atoms: C_31  and  C_32
REMARK   21  A    between atoms: C_32  and  O_33
REMARK   22  A    between atoms: O_33  and  P_34
REMARK   23  A    between atoms: P_34  and  O_35
REMARK   24  A    between atoms: P_34  and  O_36
REMARK   25  A    between atoms: C_38  and  C_39
REMARK   26  A    between atoms: C_39  and  O_40
REMARK   27  A    between atoms: C_42  and  O_43
REMARK                            x       y       z     vdW  Elec       q    Type
REMARK                         _______ _______ _______ _____ _____    ______ ____
ROOT
ATOM      1 MN   UNL     1       0.011  -1.838   0.327  0.00  0.00    +0.000 Mn
ENDROOT
TORSDOF 0
REMARK  Name = 
REMARK  27 active torsions:
REMARK  status: ('A' for Active; 'I' for Inactive)
REMARK    1  A    between atoms: C_2  and  C_3
REMARK    2  A    between atoms: C_6  and  C_7
REMARK    3  A    between atoms: C_7  and  O_8
REMARK    4  A    between atoms: O_8  and  P_9
REMARK    5  A    between atoms: P_9  and  O_10
REMARK    6  A    between atoms: P_9  and  O_11
REMARK    7  A    between atoms: C_13  and  C_14
REMARK    8  A    between atoms: C_14  and  N_15
REMARK    9  A    between atoms: N_15  and  C_16
REMARK   10  A    between atoms: N_15  and  C_38
REMARK   11  A    between atoms: C_16  and  C_17
REMARK   12  A    between atoms: C_17  and  N_18
REMARK   13  A    between atoms: N_18  and  C_19
REMARK   14  A    between atoms: N_18  and  C_23
REMARK   15  A    between atoms: C_19  and  C_20
REMARK   16  A    between atoms: C_20  and  O_21
REMARK   17  A    between atoms: C_23  and  C_24
REMARK   18  A    between atoms: C_25  and  O_26
REMARK   19  A    between atoms: C_27  and  C_28
REMARK   20  A    between atoms: C_31  and  C_32
REMARK   21  A    between atoms: C_32  and  O_33
REMARK   22  A    between atoms: O_33  and  P_34
REMARK   23  A    between atoms: P_34  and  O_35
REMARK   24  A    between atoms: P_34  and  O_36
REMARK   25  A    between atoms: C_38  and  C_39
REMARK   26  A    between atoms: C_39  and  O_40
REMARK   27  A    between atoms: C_42  and  O_43
REMARK                            x       y       z     vdW  Elec       q    Type
REMARK                         _______ _______ _______ _____ _____    ______ ____
ROOT
ATOM      1  C   UNL     1       3.793  -3.693  -1.174  0.00  0.00    +0.000 C 
ENDROOT
BRANCH   1   2
ATOM      2  C   UNL     1       2.991  -2.442  -1.621  0.00  0.00    +0.000 C 
BRANCH   2   3
ATOM      3  N   UNL     1       2.357  -2.497  -2.962  0.00  0.00    +0.000 NA
BRANCH   3   4
ATOM      4  C   UNL     1       1.675  -1.193  -3.129  0.00  0.00    +0.000 C 
BRANCH   4   5
ATOM      5  C   UNL     1       1.080  -0.900  -4.489  0.00  0.00    +0.000 A 
ATOM      6  C   UNL     1       1.919  -0.792  -5.643  0.00  0.00    +0.000 A 
ATOM      7  C   UNL     1       1.312  -0.359  -6.842  0.00  0.00    +0.000 A 
ATOM      8  N   UNL     1      -0.011  -0.041  -6.887  0.00  0.00    +0.000 NA
ATOM      9  C   UNL     1      -0.820  -0.133  -5.810  0.00  0.00    +0.000 A 
ATOM     10  C   UNL     1      -2.267   0.303  -5.936  0.00  0.00    +0.000 C 
ATOM     11  C   UNL     1      -0.310  -0.585  -4.590  0.00  0.00    +0.000 A 
BRANCH  11  12
ATOM     12  O   UNL     1      -1.178  -0.686  -3.552  0.00  0.00    +0.000 OA
ATOM     13  H   UNL     1      -1.028  -1.106  -2.698  0.00  0.00    +0.000 HD
ENDBRANCH  11  12
BRANCH   6  14
ATOM     14  C   UNL     1       3.434  -1.104  -5.606  0.00  0.00    +0.000 C 
BRANCH  14  15
ATOM     15  O   UNL     1       4.112  -0.488  -6.687  0.00  0.00    +0.000 OA
BRANCH  15  16
ATOM     16  P   UNL     1       5.786  -0.919  -6.773  0.00  0.00    +0.000 P 
ATOM     17  O   UNL     1       7.283  -1.304  -6.851  0.00  0.00    +0.000 OA
BRANCH  16  18
ATOM     18  O   UNL     1       5.988   0.144  -8.136  0.00  0.00    +0.000 OA
ATOM     19  H   UNL     1       5.741  -0.403  -8.924  0.00  0.00    +0.000 HD
ENDBRANCH  16  18
BRANCH  16  20
ATOM     20  O   UNL     1       6.162   0.294  -5.576  0.00  0.00    +0.000 OA
ATOM     21  H   UNL     1       5.857   1.166  -5.937  0.00  0.00    +0.000 HD
ENDBRANCH  16  20
ENDBRANCH  15  16
ENDBRANCH  14  15
ENDBRANCH   6  14
ENDBRANCH   4   5
ENDBRANCH   3   4
BRANCH   3  22
ATOM     22  C   UNL     1       1.447  -3.656  -3.169  0.00  0.00    +0.000 C 
BRANCH  22  23
ATOM     23  C   UNL     1       0.317  -3.792  -2.161  0.00  0.00    +0.000 C 
ATOM     24  O   UNL     1       0.560  -3.994  -0.983  0.00  0.00    +0.000 OA
BRANCH  23  25
ATOM     25  O   UNL     1      -0.971  -3.764  -2.562  0.00  0.00    +0.000 OA
ATOM     26  H   UNL     1      -1.218  -3.647  -3.489  0.00  0.00    +0.000 HD
ENDBRANCH  23  25
ENDBRANCH  22  23
ENDBRANCH   3  22
ENDBRANCH   2   3
ENDBRANCH   1   2
BRANCH   1  27
ATOM     27  N   UNL     1       4.367  -3.564   0.207  0.00  0.00    +0.000 NA
BRANCH  27  28
ATOM     28  C   UNL     1       5.270  -2.393   0.348  0.00  0.00    +0.000 C 
BRANCH  28  29
ATOM     29  C   UNL     1       6.379  -2.408  -0.685  0.00  0.00    +0.000 C 
ATOM     30  O   UNL     1       7.173  -3.332  -0.705  0.00  0.00    +0.000 OA
BRANCH  29  31
ATOM     31  O   UNL     1       6.486  -1.426  -1.610  0.00  0.00    +0.000 OA
ATOM     32  H   UNL     1       5.860  -0.691  -1.663  0.00  0.00    +0.000 HD
ENDBRANCH  29  31
ENDBRANCH  28  29
ENDBRANCH  27  28
BRANCH  27  33
ATOM     33  C   UNL     1       3.264  -3.554   1.208  0.00  0.00    +0.000 C 
BRANCH  33  37
ATOM     34  C   UNL     1       4.891  -5.984   5.360  0.00  0.00    +0.000 C 
ATOM     35  C   UNL     1       4.403  -4.748   4.670  0.00  0.00    +0.000 A 
ATOM     36  C   UNL     1       4.218  -4.708   3.275  0.00  0.00    +0.000 A 
ATOM     37  C   UNL     1       3.652  -3.550   2.683  0.00  0.00    +0.000 A 
ATOM     38  C   UNL     1       3.348  -2.430   3.513  0.00  0.00    +0.000 A 
ATOM     39  C   UNL     1       3.594  -2.532   4.895  0.00  0.00    +0.000 A 
ATOM     40  N   UNL     1       4.093  -3.669   5.426  0.00  0.00    +0.000 NA
BRANCH  36  41
ATOM     41  O   UNL     1       4.561  -5.793   2.547  0.00  0.00    +0.000 OA
ATOM     42  H   UNL     1       4.542  -5.822   1.582  0.00  0.00    +0.000 HD
ENDBRANCH  36  41
BRANCH  38  43
ATOM     43  C   UNL     1       2.752  -1.134   2.978  0.00  0.00    +0.000 C 
BRANCH  43  44
ATOM     44  O   UNL     1       3.092  -0.089   3.844  0.00  0.00    +0.000 OA
BRANCH  44  45
ATOM     45  P   UNL     1       2.409   1.395   3.274  0.00  0.00    +0.000 P 
ATOM     46  O   UNL     1       1.799   2.724   2.764  0.00  0.00    +0.000 OA
BRANCH  45  47
ATOM     47  O   UNL     1       2.385   2.001   4.905  0.00  0.00    +0.000 OA
ATOM     48  H   UNL     1       1.736   1.426   5.385  0.00  0.00    +0.000 HD
ENDBRANCH  45  47
BRANCH  45  49
ATOM     49  O   UNL     1       4.012   1.977   2.907  0.00  0.00    +0.000 OA
ATOM     50  H   UNL     1       4.525   1.969   3.755  0.00  0.00    +0.000 HD
ENDBRANCH  45  49
ENDBRANCH  44  45
ENDBRANCH  43  44
ENDBRANCH  38  43
ENDBRANCH  33  37
ENDBRANCH  27  33
ENDBRANCH   1  27
TORSDOF 25
