REMARK  Name = 
REMARK  6 active torsions:
REMARK  status: ('A' for Active; 'I' for Inactive)
REMARK    1  A    between atoms: C_1  and  N_2
REMARK    2  A    between atoms: N_5  and  C_8
REMARK    3  A    between atoms: C_9  and  C_10
REMARK    4  A    between atoms: C_10  and  N_11
REMARK    5  A    between atoms: N_12  and  C_13
REMARK    6  A    between atoms: C_13  and  N_14
REMARK                            x       y       z     vdW  Elec       q    Type
REMARK                         _______ _______ _______ _____ _____    ______ ____
ROOT
ATOM      1  C   UNL     1       3.762  -1.025  -3.889  0.00  0.00    +0.035 A 
ATOM      2  C   UNL     1       3.863  -2.377  -4.283  0.00  0.00    +0.023 A 
ATOM      3  C   UNL     1       4.546  -2.784  -5.435  0.00  0.00    +0.002 A 
ATOM      4  C   UNL     1       5.125  -1.839  -6.263  0.00  0.00    +0.000 A 
ATOM      5  C   UNL     1       5.028  -0.496  -5.925  0.00  0.00    +0.007 A 
ATOM      6  C   UNL     1       4.384  -0.074  -4.736  0.00  0.00    -0.004 A 
ENDROOT
BRANCH   1  11
ATOM      7  C   UNL     1       0.973  -0.063   0.309  0.00  0.00    +0.105 C 
ATOM      8  N   UNL     1       2.338   0.308  -0.043  0.00  0.00    -0.302 NA
ATOM      9  C   UNL     1       2.371   1.145  -1.266  0.00  0.00    +0.103 C 
ATOM     10  C   UNL     1       2.146   0.375  -2.593  0.00  0.00    +0.120 C 
ATOM     11  N   UNL     1       3.163  -0.687  -2.685  0.00  0.00    -0.327 N 
ATOM     12  C   UNL     1       3.064  -1.644  -1.569  0.00  0.00    +0.120 C 
ATOM     13  C   UNL     1       3.199  -0.875  -0.222  0.00  0.00    +0.103 C 
ENDBRANCH   1  11
BRANCH   6  14
ATOM     14  C   UNL     1       4.522   1.401  -4.399  0.00  0.00    +0.200 C 
BRANCH  14  15
ATOM     15  N   UNL     1       3.638   2.240  -5.223  0.00  0.00    -0.191 NA
ATOM     16  N   UNL     1       3.451   3.465  -5.028  0.00  0.00    -0.100 NA
BRANCH  16  17
ATOM     17  C   UNL     1       4.032   4.163  -3.996  0.00  0.00    +0.172 C 
ATOM     18  S   UNL     1       3.213   5.246  -3.012  0.00  0.00    -0.015 S 
BRANCH  17  19
ATOM     19  N   UNL     1       5.388   4.100  -3.852  0.00  0.00    -0.338 N 
ATOM     20  H   UNL     1       5.827   4.724  -3.188  0.00  0.00    +0.144 HD
ATOM     21  H   UNL     1       5.963   3.648  -4.542  0.00  0.00    +0.144 HD
ENDBRANCH  17  19
ENDBRANCH  16  17
ENDBRANCH  14  15
ENDBRANCH   6  14
TORSDOF 5
