REMARK  Name = 
REMARK  17 active torsions:
REMARK  status: ('A' for Active; 'I' for Inactive)
REMARK    1  A    between atoms: C_2  and  O_3
REMARK    2  A    between atoms: C_2  and  C_4
REMARK    3  A    between atoms: C_2  and  C_29
REMARK    4  A    between atoms: C_4  and  C_5
REMARK    5  A    between atoms: C_5  and  C_6
REMARK    6  A    between atoms: C_8  and  C_10
REMARK    7  A    between atoms: C_17  and  O_19
REMARK    8  A    between atoms: O_19  and  C_20
REMARK    9  A    between atoms: C_20  and  C_22
REMARK   10  A    between atoms: C_22  and  C_24
REMARK   11  A    between atoms: C_22  and  C_25
REMARK   12  A    between atoms: C_25  and  C_26
REMARK   13  A    between atoms: C_29  and  C_30
REMARK   14  A    between atoms: C_30  and  O_32
REMARK   15  A    between atoms: C_30  and  C_33
REMARK   16  A    between atoms: C_33  and  C_34
REMARK   17  A    between atoms: C_34  and  O_35
REMARK                            x       y       z     vdW  Elec       q    Type
REMARK                         _______ _______ _______ _____ _____    ______ ____
ROOT
ATOM      1  C   UNL     1       2.629  -5.183  -6.880  0.00  0.00    +0.007 C 
ATOM      2  C   UNL     1       3.229  -4.028  -7.774  0.00  0.00    +0.063 C 
ATOM      3  C   UNL     1       2.822  -2.636  -7.260  0.00  0.00    -0.045 C 
ATOM      4  C   UNL     1       2.769  -1.553  -8.051  0.00  0.00    -0.023 C 
ATOM      5  C   UNL     1       3.014  -1.606  -9.516  0.00  0.00    +0.031 C 
ATOM      6  C   UNL     1       2.534  -2.925 -10.080  0.00  0.00    +0.049 C 
ATOM      7  C   UNL     1       2.529  -2.464  -5.856  0.00  0.00    -0.000 C 
ATOM      8  C   UNL     1       2.541  -3.468  -4.981  0.00  0.00    -0.023 C 
ATOM      9  C   UNL     1       3.005  -4.188  -9.325  0.00  0.00    +0.184 C 
ATOM     10  C   UNL     1       2.834  -4.889  -5.353  0.00  0.00    +0.012 C 
ATOM     11  C   UNL     1       4.225  -5.251  -4.817  0.00  0.00    +0.012 C 
ENDROOT
BRANCH   1  12
ATOM     12  C   UNL     1       3.096  -6.645  -7.211  0.00  0.00    +0.007 C 
BRANCH  12  13
ATOM     13  C   UNL     1       2.236  -7.664  -6.423  0.00  0.00    +0.032 C 
BRANCH  13  14
ATOM     14  C   UNL     1       2.546  -9.156  -6.593  0.00  0.00    +0.117 C 
BRANCH  14  15
ATOM     15  O   UNL     1       3.886  -9.430  -6.166  0.00  0.00    -0.392 OA
ATOM     16  H   UNL     1       4.494  -8.941  -6.745  0.00  0.00    +0.210 HD
ENDBRANCH  14  15
BRANCH  14  17
ATOM     17  C   UNL     1       1.635 -10.031  -5.700  0.00  0.00    +0.063 C 
BRANCH  17  18
ATOM     18  C   UNL     1       0.126  -9.874  -5.928  0.00  0.00    +0.128 C 
BRANCH  18  19
ATOM     19  O   UNL     1      -0.217 -10.264  -7.264  0.00  0.00    -0.391 OA
ATOM     20  H   UNL     1       0.243 -11.106  -7.458  0.00  0.00    +0.210 HD
ENDBRANCH  18  19
BRANCH  18  21
ATOM     21  C   UNL     1      -0.690 -10.732  -4.957  0.00  0.00    +0.151 C 
BRANCH  21  22
ATOM     22  C   UNL     1      -2.182 -10.505  -5.054  0.00  0.00    +0.307 C 
ATOM     23  O   UNL     1      -2.936 -10.625  -4.100  0.00  0.00    -0.251 OA
BRANCH  22  24
ATOM     24  O   UNL     1      -2.642 -10.250  -6.300  0.00  0.00    -0.481 OA
ATOM     25  H   UNL     1      -1.922 -10.204  -6.974  0.00  0.00    +0.295 HD
ENDBRANCH  22  24
ENDBRANCH  21  22
ENDBRANCH  18  21
ENDBRANCH  17  18
ENDBRANCH  14  17
ENDBRANCH  13  14
ENDBRANCH  12  13
ENDBRANCH   1  12
BRANCH   9  26
ATOM     26  O   UNL     1       2.007  -5.202  -9.588  0.00  0.00    -0.461 OA
BRANCH  26  27
ATOM     27  C   UNL     1       2.046  -5.830 -10.794  0.00  0.00    +0.310 C 
ATOM     28  O   UNL     1       2.914  -5.670 -11.640  0.00  0.00    -0.251 OA
BRANCH  27  29
ATOM     29  C   UNL     1       0.895  -6.814 -10.946  0.00  0.00    +0.094 C 
ATOM     30  C   UNL     1       1.351  -8.196 -10.489  0.00  0.00    +0.019 C 
BRANCH  29  31
ATOM     31  C   UNL     1      -0.381  -6.386 -10.200  0.00  0.00    +0.011 C 
ATOM     32  C   UNL     1      -0.995  -5.122 -10.787  0.00  0.00    +0.004 C 
ENDBRANCH  29  31
ENDBRANCH  27  29
ENDBRANCH  26  27
ENDBRANCH   9  26
TORSDOF 14
