REMARK  Name = 
REMARK  11 active torsions:
REMARK  status: ('A' for Active; 'I' for Inactive)
REMARK    1  A    between atoms: C_5  and  O_6
REMARK    2  A    between atoms: C_5  and  C_14
REMARK    3  A    between atoms: O_6  and  C_7
REMARK    4  A    between atoms: C_7  and  C_9
REMARK    5  A    between atoms: C_9  and  C_10
REMARK    6  A    between atoms: C_10  and  C_11
REMARK    7  A    between atoms: C_11  and  C_12
REMARK    8  A    between atoms: C_12  and  C_13
REMARK    9  A    between atoms: C_14  and  C_15
REMARK   10  A    between atoms: C_17  and  C_18
REMARK   11  A    between atoms: C_33  and  C_34
REMARK                            x       y       z     vdW  Elec       q    Type
REMARK                         _______ _______ _______ _____ _____    ______ ____
ROOT
ATOM      1  C   UNL     1      -0.000  -0.000  -0.000  0.00  0.00    +0.003 C 
ATOM      2  C   UNL     1      -0.000  -0.000  -0.000  0.00  0.00    -0.003 C 
ATOM      3  C   UNL     1      -0.000  -0.000   0.000  0.00  0.00    +0.008 C 
ATOM      4  C   UNL     1      -0.000  -0.000   0.000  0.00  0.00    +0.032 C 
ATOM      5  C   UNL     1      -0.000  -0.000   0.000  0.00  0.00    -0.060 C 
ATOM      6  C   UNL     1      -0.000  -0.000  -0.000  0.00  0.00    -0.007 C 
ATOM      7  C   UNL     1      -0.000  -0.000  -0.000  0.00  0.00    +0.016 C 
ATOM      8  C   UNL     1      -0.000  -0.000  -0.000  0.00  0.00    +0.019 C 
ATOM      9  C   UNL     1      -0.000  -0.000  -0.000  0.00  0.00    +0.080 C 
ATOM     10  C   UNL     1      -0.000  -0.000  -0.000  0.00  0.00    +0.156 C 
ATOM     11  O   UNL     1      -0.000  -0.000  -0.000  0.00  0.00    -0.293 OA
ATOM     12  C   UNL     1      -0.000  -0.000   0.000  0.00  0.00    +0.046 C 
ATOM     13  C   UNL     1      -0.000  -0.000   0.000  0.00  0.00    +0.002 C 
ATOM     14  C   UNL     1      -0.000  -0.000  -0.000  0.00  0.00    +0.005 C 
ATOM     15  C   UNL     1      -0.000  -0.000  -0.000  0.00  0.00    +0.011 C 
ATOM     16  C   UNL     1      -0.000  -0.000  -0.000  0.00  0.00    +0.018 C 
ATOM     17  C   UNL     1      -0.000  -0.000   0.000  0.00  0.00    +0.016 C 
ATOM     18  C   UNL     1      -0.000  -0.000   0.000  0.00  0.00    +0.176 C 
ATOM     19  C   UNL     1      -0.000  -0.000  -0.000  0.00  0.00    +0.057 C 
ATOM     20  C   UNL     1      -0.000  -0.000  -0.000  0.00  0.00    +0.009 C 
ENDROOT
BRANCH  18  21
ATOM     21  C   UNL     1      -0.000  -0.000  -0.000  0.00  0.00    +0.174 C 
ATOM     22  O   UNL     1      -0.000  -0.000  -0.000  0.00  0.00    -0.293 OA
ATOM     23  C   UNL     1      -0.000  -0.000   0.000  0.00  0.00    +0.090 C 
ENDBRANCH  18  21
BRANCH  18  24
ATOM     24  O   UNL     1      -0.000  -0.000   0.000  0.00  0.00    -0.450 OA
BRANCH  24  25
ATOM     25  C   UNL     1      -0.000  -0.000   0.000  0.00  0.00    +0.308 C 
ATOM     26  O   UNL     1      -0.000  -0.000   0.000  0.00  0.00    -0.251 OA
BRANCH  25  27
ATOM     27  C   UNL     1      -0.000  -0.000   0.000  0.00  0.00    +0.120 C 
BRANCH  27  28
ATOM     28  C   UNL     1      -0.000  -0.000   0.000  0.00  0.00    +0.011 C 
BRANCH  28  29
ATOM     29  C   UNL     1      -0.000  -0.000   0.000  0.00  0.00    +0.000 C 
BRANCH  29  30
ATOM     30  C   UNL     1      -0.000  -0.000   0.000  0.00  0.00    -0.003 C 
ATOM     31  C   UNL     1      -0.000  -0.000   0.000  0.00  0.00    +0.004 C 
ENDBRANCH  29  30
ENDBRANCH  28  29
ENDBRANCH  27  28
ENDBRANCH  25  27
ENDBRANCH  24  25
ENDBRANCH  18  24
TORSDOF 7
