REMARK  Name = 
REMARK  12 active torsions:
REMARK  status: ('A' for Active; 'I' for Inactive)
REMARK    1  A    between atoms: C_1  and  C_2
REMARK    2  A    between atoms: N_5  and  C_6
REMARK    3  A    between atoms: C_6  and  C_7
REMARK    4  A    between atoms: C_7  and  C_9
REMARK    5  A    between atoms: C_7  and  C_16
REMARK    6  A    between atoms: C_9  and  C_10
REMARK    7  A    between atoms: N_18  and  C_19
REMARK    8  A    between atoms: C_19  and  C_20
REMARK    9  A    between atoms: C_20  and  O_21
REMARK   10  A    between atoms: C_25  and  C_26
REMARK   11  A    between atoms: C_25  and  C_27
REMARK   12  A    between atoms: C_29  and  O_30
REMARK                            x       y       z     vdW  Elec       q    Type
REMARK                         _______ _______ _______ _____ _____    ______ ____
ROOT
ATOM      1  C   UNL     1       1.082  -3.505  -3.742  0.00  0.00    +0.097 C 
ENDROOT
BRANCH   1   8
ATOM      2  C   UNL     1       1.068  -6.833  -1.073  0.00  0.00    +0.009 C 
ATOM      3  C   UNL     1       0.471  -5.496  -0.584  0.00  0.00    +0.010 C 
ATOM      4  C   UNL     1      -1.099  -5.490  -0.514  0.00  0.00    -0.002 C 
ATOM      5  C   UNL     1      -1.607  -4.204   0.200  0.00  0.00    +0.016 C 
ATOM      6  C   UNL     1      -1.642  -5.473  -1.969  0.00  0.00    +0.027 C 
ATOM      7  C   UNL     1      -1.014  -4.399  -2.857  0.00  0.00    +0.085 C 
ATOM      8  N   UNL     1       0.450  -4.500  -2.867  0.00  0.00    -0.301 NA
ATOM      9  C   UNL     1       0.988  -4.372  -1.500  0.00  0.00    +0.088 C 
BRANCH   4  10
ATOM     10  C   UNL     1      -1.607  -6.696   0.308  0.00  0.00    -0.038 A 
ATOM     11  C   UNL     1      -2.459  -7.675  -0.235  0.00  0.00    +0.004 A 
ATOM     12  C   UNL     1      -2.822  -8.811   0.497  0.00  0.00    +0.004 A 
ATOM     13  C   UNL     1      -2.349  -8.989   1.790  0.00  0.00    +0.045 A 
ATOM     14  C   UNL     1      -1.528  -8.024   2.353  0.00  0.00    +0.117 A 
ATOM     15  C   UNL     1      -1.168  -6.884   1.636  0.00  0.00    +0.049 A 
BRANCH  14  16
ATOM     16  O   UNL     1      -1.074  -8.239   3.620  0.00  0.00    -0.507 OA
ATOM     17  H   UNL     1      -0.418  -7.555   3.832  0.00  0.00    +0.292 HD
ENDBRANCH  14  16
ENDBRANCH   4  10
ENDBRANCH   1   8
BRANCH   1  18
ATOM     18  C   UNL     1       0.663  -3.521  -5.234  0.00  0.00    +0.093 C 
BRANCH  18  19
ATOM     19  C   UNL     1       1.398  -2.393  -5.973  0.00  0.00    +0.218 C 
ATOM     20  N   UNL     1       1.503  -1.199  -5.284  0.00  0.00    -0.305 N 
ATOM     21  H   UNL     1       0.794  -1.003  -4.589  0.00  0.00    +0.149 HD
ATOM     22  O   UNL     1       1.906  -2.502  -7.083  0.00  0.00    -0.275 OA
BRANCH  20  23
ATOM     23  C   UNL     1       2.084  -0.019  -5.925  0.00  0.00    +0.224 C 
BRANCH  23  24
ATOM     24  C   UNL     1       3.617   0.009  -5.969  0.00  0.00    +0.322 C 
ATOM     25  O   UNL     1       4.261   0.943  -6.414  0.00  0.00    -0.249 OA
BRANCH  24  26
ATOM     26  O   UNL     1       4.208  -1.079  -5.417  0.00  0.00    -0.480 OA
ATOM     27  H   UNL     1       3.538  -1.750  -5.191  0.00  0.00    +0.295 HD
ENDBRANCH  24  26
ENDBRANCH  23  24
ENDBRANCH  20  23
ENDBRANCH  18  19
BRANCH  18  28
ATOM     28  C   UNL     1       0.970  -4.901  -5.872  0.00  0.00    +0.049 C 
BRANCH  28  29
ATOM     29  C   UNL     1       0.429  -5.081  -7.275  0.00  0.00    -0.047 A 
ATOM     30  C   UNL     1      -0.941  -4.965  -7.542  0.00  0.00    +0.003 A 
ATOM     31  C   UNL     1      -1.414  -5.033  -8.854  0.00  0.00    +0.000 A 
ATOM     32  C   UNL     1      -0.528  -5.239  -9.909  0.00  0.00    +0.000 A 
ATOM     33  C   UNL     1       0.830  -5.408  -9.651  0.00  0.00    +0.000 A 
ATOM     34  C   UNL     1       1.305  -5.339  -8.341  0.00  0.00    +0.003 A 
ENDBRANCH  28  29
ENDBRANCH  18  28
ENDBRANCH   1  18
TORSDOF 10
