REMARK  Name = 
REMARK  6 active torsions:
REMARK  status: ('A' for Active; 'I' for Inactive)
REMARK    1  A    between atoms: C_13  and  C_14
REMARK    2  A    between atoms: C_14  and  N_15
REMARK    3  A    between atoms: N_15  and  C_16
REMARK    4  A    between atoms: C_19  and  S_22
REMARK    5  A    between atoms: S_22  and  N_25
REMARK    6  A    between atoms: N_25  and  C_26
REMARK                            x       y       z     vdW  Elec       q    Type
REMARK                         _______ _______ _______ _____ _____    ______ ____
ROOT
ATOM      1  C   UNL     1       2.843   4.619   2.059  0.00  0.00    +0.027 A 
ATOM      2  C   UNL     1       3.520   5.816   1.819  0.00  0.00    +0.025 A 
ATOM      3  C   UNL     1       3.040   7.023   2.339  0.00  0.00    +0.030 A 
ATOM      4  C   UNL     1       1.883   7.042   3.121  0.00  0.00    +0.109 A 
ATOM      5  C   UNL     1       1.223   5.852   3.420  0.00  0.00    +0.030 A 
ATOM      6  C   UNL     1       1.727   4.648   2.915  0.00  0.00    +0.025 A 
ENDROOT
BRANCH   4   7
ATOM      7  S   UNL     1       1.150   8.611   3.553  0.00  0.00    +0.073 S 
ATOM      8  O   UNL     1      -0.276   8.399   3.681  0.00  0.00    -0.150 OA
ATOM      9  O   UNL     1       1.663   9.602   2.630  0.00  0.00    -0.150 OA
BRANCH   7  10
ATOM     10  N   UNL     1       1.701   8.979   5.071  0.00  0.00    -0.199 N 
ATOM     11  H   UNL     1       1.062   8.935   5.855  0.00  0.00    +0.175 HD
BRANCH  10  12
ATOM     12  C   UNL     1       3.074   9.103   5.282  0.00  0.00    +0.138 A 
ATOM     13  N   UNL     1       3.704   7.957   5.584  0.00  0.00    -0.239 NA
ATOM     14  C   UNL     1       5.040   8.042   5.768  0.00  0.00    +0.113 A 
ATOM     15  C   UNL     1       5.756   9.228   5.692  0.00  0.00    +0.020 A 
ATOM     16  C   UNL     1       5.059  10.401   5.423  0.00  0.00    +0.005 A 
ATOM     17  C   UNL     1       3.685  10.343   5.216  0.00  0.00    +0.045 A 
ENDBRANCH  10  12
ENDBRANCH   7  10
ENDBRANCH   4   7
BRANCH   1  18
ATOM     18  N   UNL     1       3.199   3.377   1.518  0.00  0.00    -0.340 N 
ATOM     19  H   UNL     1       3.517   2.803   2.304  0.00  0.00    +0.146 HD
BRANCH  18  20
ATOM     20  C   UNL     1       4.168   3.268   0.436  0.00  0.00    +0.143 C 
BRANCH  20  23
ATOM     21  O   UNL     1       5.959   3.133  -1.612  0.00  0.00    -0.268 OA
ATOM     22  C   UNL     1       4.830   3.439  -1.928  0.00  0.00    +0.266 C 
ATOM     23  C   UNL     1       3.691   3.557  -0.951  0.00  0.00    +0.043 C 
ATOM     24  C   UNL     1       2.619   3.877  -1.685  0.00  0.00    +0.024 A 
ATOM     25  C   UNL     1       3.142   3.957  -3.072  0.00  0.00    +0.066 A 
ATOM     26  C   UNL     1       2.229   4.312  -4.184  0.00  0.00    +0.028 A 
ATOM     27  C   UNL     1       0.938   4.562  -3.914  0.00  0.00    +0.031 A 
ATOM     28  C   UNL     1       0.420   4.482  -2.588  0.00  0.00    +0.079 A 
ATOM     29  N   UNL     1      -0.898   4.737  -2.346  0.00  0.00    -0.247 NA
ATOM     30  C   UNL     1      -1.105   4.575  -1.058  0.00  0.00    +0.157 A 
ATOM     31  S   UNL     1       0.255   4.072  -0.132  0.00  0.00    -0.075 S 
ATOM     32  C   UNL     1       1.241   4.137  -1.518  0.00  0.00    +0.048 A 
ATOM     33  N   UNL     1       4.395   3.705  -3.196  0.00  0.00    -0.176 NA
ENDBRANCH  20  23
ENDBRANCH  18  20
ENDBRANCH   1  18
TORSDOF 6
