REMARK  Name = 
REMARK  48 active torsions:
REMARK  status: ('A' for Active; 'I' for Inactive)
REMARK    1  A    between atoms: C_1  and  C_2
REMARK    2  A    between atoms: C_2  and  C_3
REMARK    3  A    between atoms: C_2  and  C_4
REMARK    4  A    between atoms: C_4  and  C_5
REMARK    5  A    between atoms: C_5  and  N_7
REMARK    6  A    between atoms: C_5  and  C_99
REMARK    7  A    between atoms: C_8  and  C_10
REMARK    8  A    between atoms: C_10  and  C_12
REMARK    9  A    between atoms: C_10  and  N_23
REMARK   10  A    between atoms: C_12  and  C_13
REMARK   11  A    between atoms: C_16  and  N_17
REMARK   12  A    between atoms: C_24  and  C_26
REMARK   13  A    between atoms: C_26  and  C_28
REMARK   14  A    between atoms: C_26  and  N_47
REMARK   15  A    between atoms: C_28  and  C_29
REMARK   16  A    between atoms: C_32  and  N_33
REMARK   17  A    between atoms: C_34  and  C_36
REMARK   18  A    between atoms: C_48  and  CA_50
REMARK   19  A    between atoms: CA_50  and  C_52
REMARK   20  A    between atoms: CA_50  and  N_54
REMARK   21  A    between atoms: C_52  and  O_53
REMARK   22  A    between atoms: C_55  and  CA_57
REMARK   23  A    between atoms: CA_57  and  C_59
REMARK   24  A    between atoms: CA_57  and  N_66
REMARK   25  A    between atoms: C_59  and  C_60
REMARK   26  A    between atoms: C_67  and  CA_69
REMARK   27  A    between atoms: CA_69  and  C_71
REMARK   28  A    between atoms: CA_69  and  N_79
REMARK   29  A    between atoms: C_71  and  C_72
REMARK   30  A    between atoms: C_80  and  CA_82
REMARK   31  A    between atoms: CA_82  and  C_84
REMARK   32  A    between atoms: CA_82  and  N_95
REMARK   33  A    between atoms: C_84  and  C_85
REMARK   34  A    between atoms: C_96  and  C_97
REMARK   35  A    between atoms: N_101  and  C_102
REMARK   36  A    between atoms: C_102  and  C_104
REMARK   37  A    between atoms: C_102  and  C_112
REMARK   38  A    between atoms: C_104  and  C_105
REMARK   39  A    between atoms: C_105  and  C_106
REMARK   40  A    between atoms: C_106  and  C_107
REMARK   41  A    between atoms: C_107  and  N_108
REMARK   42  A    between atoms: N_108  and  C_109
REMARK   43  A    between atoms: C_109  and  C_110
REMARK   44  A    between atoms: C_109  and  C_111
REMARK   45  A    between atoms: C_118  and  C_119
REMARK   46  A    between atoms: N_121  and  C_122
REMARK   47  A    between atoms: C_122  and  C_124
REMARK   48  A    between atoms: C_122  and  C_125
REMARK                            x       y       z     vdW  Elec       q    Type
REMARK                         _______ _______ _______ _____ _____    ______ ____
ROOT
ATOM      1  C   UNL     1      -8.344   5.270  20.423  0.00  0.00    +0.163 C 
ENDROOT
BRANCH   1   2
ATOM      2  N   UNL     1      -7.678   4.799  21.733  0.00  0.00    -0.302 N 
ATOM      3  H   UNL     1      -6.662   4.781  21.576  0.00  0.00    +0.150 HD
ATOM      4  C   UNL     1      -7.920   3.569  22.196  0.00  0.00    +0.236 C 
ATOM      5  O   UNL     1      -8.393   2.783  21.399  0.00  0.00    -0.274 OA
BRANCH   4   6
ATOM      6  CA  UNL     1      -7.644   3.005  23.569  0.00  0.00    +0.184 C 
BRANCH   6   7
ATOM      7  N   UNL     1      -6.996   1.720  23.270  0.00  0.00    -0.301 N 
ATOM      8  H   UNL     1      -7.476   1.220  22.528  0.00  0.00    +0.150 HD
ATOM      9  C   UNL     1      -5.777   1.323  23.733  0.00  0.00    +0.234 C 
ATOM     10  O   UNL     1      -5.243   1.871  24.696  0.00  0.00    -0.274 OA
BRANCH   9  11
ATOM     11  CA  UNL     1      -5.028   0.201  22.962  0.00  0.00    +0.163 C 
BRANCH  11  12
ATOM     12  N   UNL     1      -3.785   0.844  22.229  0.00  0.00    -0.302 N 
ATOM     13  H   UNL     1      -2.985   0.232  22.227  0.00  0.00    +0.150 HD
ATOM     14  C   UNL     1      -3.337   2.183  22.141  0.00  0.00    +0.234 C 
ATOM     15  O   UNL     1      -3.871   3.110  22.758  0.00  0.00    -0.274 OA
BRANCH  14  16
ATOM     16  CA  UNL     1      -2.108   2.593  21.094  0.00  0.00    +0.163 C 
BRANCH  16  17
ATOM     17  N   UNL     1      -2.488   3.525  20.005  0.00  0.00    -0.302 N 
ATOM     18  H   UNL     1      -1.707   3.942  19.516  0.00  0.00    +0.150 HD
ATOM     19  C   UNL     1      -3.776   3.857  19.693  0.00  0.00    +0.234 C 
ATOM     20  O   UNL     1      -4.679   3.244  20.254  0.00  0.00    -0.274 OA
BRANCH  19  21
ATOM     21  CA  UNL     1      -4.084   4.921  18.551  0.00  0.00    +0.163 C 
BRANCH  21  22
ATOM     22  N   UNL     1      -5.315   4.230  17.662  0.00  0.00    -0.304 N 
ATOM     23  H   UNL     1      -4.958   3.303  17.780  0.00  0.00    +0.149 HD
ATOM     24  C   UNL     1      -6.761   4.409  17.107  0.00  0.00    +0.211 C 
ATOM     25  O   UNL     1      -7.523   5.345  17.278  0.00  0.00    -0.276 OA
ATOM     26  C   UNL     1      -7.503   3.543  15.984  0.00  0.00    +0.109 C 
ENDBRANCH  21  22
BRANCH  21  27
ATOM     27  C   UNL     1      -2.738   5.141  17.745  0.00  0.00    +0.067 C 
BRANCH  27  28
ATOM     28  C   UNL     1      -1.621   5.976  18.368  0.00  0.00    -0.045 A 
ATOM     29  C   UNL     1      -1.830   6.921  19.375  0.00  0.00    +0.004 A 
ATOM     30  C   UNL     1      -0.766   7.314  20.192  0.00  0.00    +0.009 A 
ATOM     31  C   UNL     1       0.491   6.712  20.041  0.00  0.00    -0.018 A 
ATOM     32  C   UNL     1       0.735   5.905  18.910  0.00  0.00    -0.018 A 
ATOM     33  C   UNL     1       1.957   5.239  18.772  0.00  0.00    +0.008 A 
ATOM     34  C   UNL     1       2.869   5.241  19.824  0.00  0.00    +0.001 A 
ATOM     35  C   UNL     1       2.627   6.019  20.954  0.00  0.00    +0.001 A 
ATOM     36  C   UNL     1       1.475   6.805  21.034  0.00  0.00    +0.008 A 
ATOM     37  C   UNL     1      -0.303   5.642  18.018  0.00  0.00    +0.012 A 
ENDBRANCH  27  28
ENDBRANCH  21  27
ENDBRANCH  19  21
ENDBRANCH  16  17
BRANCH  16  38
ATOM     38  C   UNL     1      -1.112   1.567  20.482  0.00  0.00    +0.067 C 
BRANCH  38  39
ATOM     39  C   UNL     1      -0.424   0.618  21.440  0.00  0.00    -0.045 A 
ATOM     40  C   UNL     1      -0.252   0.961  22.779  0.00  0.00    +0.005 A 
ATOM     41  C   UNL     1       0.118  -0.003  23.713  0.00  0.00    +0.020 A 
ATOM     42  C   UNL     1       0.276  -1.329  23.322  0.00  0.00    +0.041 A 
ATOM     43 CL   UNL     1       0.572  -2.541  24.500  0.00  0.00    -0.084 Cl
ATOM     44  C   UNL     1       0.194  -1.673  21.981  0.00  0.00    +0.020 A 
ATOM     45  C   UNL     1      -0.014  -0.669  21.035  0.00  0.00    +0.005 A 
ENDBRANCH  38  39
ENDBRANCH  16  38
ENDBRANCH  14  16
ENDBRANCH  11  12
BRANCH  11  46
ATOM     46  C   UNL     1      -6.111  -0.823  22.191  0.00  0.00    +0.068 C 
BRANCH  46  47
ATOM     47  C   UNL     1      -6.015  -2.267  21.641  0.00  0.00    -0.027 A 
ATOM     48  C   UNL     1      -5.033  -3.194  22.000  0.00  0.00    +0.006 A 
ATOM     49  C   UNL     1      -4.859  -4.379  21.265  0.00  0.00    +0.020 A 
ATOM     50  C   UNL     1      -5.696  -4.667  20.194  0.00  0.00    +0.111 A 
ATOM     51  N   UNL     1      -6.721  -3.857  19.860  0.00  0.00    -0.263 NA
ATOM     52  C   UNL     1      -6.869  -2.698  20.576  0.00  0.00    +0.114 A 
ENDBRANCH  46  47
ENDBRANCH  11  46
ENDBRANCH   9  11
ENDBRANCH   6   7
BRANCH   6  53
ATOM     53  C   UNL     1      -7.047   4.011  24.513  0.00  0.00    +0.187 C 
BRANCH  53  54
ATOM     54  O   UNL     1      -8.011   5.040  24.782  0.00  0.00    -0.393 OA
ATOM     55  H   UNL     1      -7.978   5.661  24.028  0.00  0.00    +0.209 HD
ENDBRANCH  53  54
ENDBRANCH   6  53
ENDBRANCH   4   6
ENDBRANCH   1   2
BRANCH   1  58
ATOM     56  N   UNL     1      -7.058   6.848  18.892  0.00  0.00    -0.302 N 
ATOM     57  H   UNL     1      -7.741   7.544  19.135  0.00  0.00    +0.150 HD
ATOM     58  C   UNL     1      -7.162   5.655  19.567  0.00  0.00    +0.234 C 
ATOM     59  O   UNL     1      -6.309   4.788  19.632  0.00  0.00    -0.274 OA
BRANCH  56  60
ATOM     60  C   UNL     1      -6.190   7.297  17.707  0.00  0.00    +0.163 C 
BRANCH  60  63
ATOM     61  N   UNL     1      -5.361   5.580  15.654  0.00  0.00    -0.302 N 
ATOM     62  H   UNL     1      -6.273   5.749  15.254  0.00  0.00    +0.150 HD
ATOM     63  C   UNL     1      -5.091   6.607  16.638  0.00  0.00    +0.234 C 
ATOM     64  O   UNL     1      -4.021   7.238  16.647  0.00  0.00    -0.274 OA
BRANCH  61  65
ATOM     65  C   UNL     1      -4.889   3.882  15.404  0.00  0.00    +0.159 C 
BRANCH  65  66
ATOM     66  C   UNL     1      -5.141   2.198  16.273  0.00  0.00    +0.234 C 
ATOM     67  N   UNL     1      -6.033   2.009  17.460  0.00  0.00    -0.302 N 
ATOM     68  H   UNL     1      -6.394   2.804  17.967  0.00  0.00    +0.150 HD
ATOM     69  O   UNL     1      -4.555   1.202  15.844  0.00  0.00    -0.274 OA
BRANCH  67  70
ATOM     70  C   UNL     1      -6.135   1.042  18.594  0.00  0.00    +0.159 C 
BRANCH  70  71
ATOM     71  C   UNL     1      -5.704  -0.462  18.263  0.00  0.00    +0.237 C 
ATOM     72  N   UNL     1      -4.436  -0.859  18.612  0.00  0.00    -0.288 N 
ATOM     73  C   UNL     1      -4.076  -2.275  18.560  0.00  0.00    +0.162 C 
ATOM     74  C   UNL     1      -2.820  -2.506  19.398  0.00  0.00    +0.033 C 
ATOM     75  C   UNL     1      -2.801  -1.310  20.287  0.00  0.00    +0.021 C 
ATOM     76  C   UNL     1      -3.925  -0.425  19.864  0.00  0.00    +0.109 C 
ATOM     77  O   UNL     1      -6.553  -1.114  17.662  0.00  0.00    -0.274 OA
BRANCH  73  78
ATOM     78  C   UNL     1      -4.143  -3.074  17.269  0.00  0.00    +0.234 C 
ATOM     79  N   UNL     1      -5.450  -3.327  16.944  0.00  0.00    -0.303 N 
ATOM     80  H   UNL     1      -6.147  -3.013  17.628  0.00  0.00    +0.149 HD
ATOM     81  O   UNL     1      -3.159  -3.511  16.688  0.00  0.00    -0.274 OA
BRANCH  79  82
ATOM     82  C   UNL     1      -5.944  -4.267  15.966  0.00  0.00    +0.156 C 
ATOM     83  C   UNL     1      -5.333  -4.098  14.588  0.00  0.00    +0.038 C 
BRANCH  82  84
ATOM     84  C   UNL     1      -7.475  -4.097  15.928  0.00  0.00    +0.231 C 
ATOM     85  O   UNL     1      -8.258  -4.957  16.319  0.00  0.00    -0.274 OA
ATOM     86  N   UNL     1      -7.943  -2.902  15.449  0.00  0.00    -0.328 N 
ATOM     87  H   UNL     1      -8.938  -2.758  15.555  0.00  0.00    +0.145 HD
ATOM     88  H   UNL     1      -7.357  -2.078  15.566  0.00  0.00    +0.145 HD
ENDBRANCH  82  84
ENDBRANCH  79  82
ENDBRANCH  73  78
ENDBRANCH  70  71
BRANCH  70  89
ATOM     89  C   UNL     1      -7.441   1.336  19.660  0.00  0.00    +0.032 C 
BRANCH  89  90
ATOM     90  C   UNL     1      -9.107   1.496  19.506  0.00  0.00    +0.003 C 
BRANCH  90  91
ATOM     91  C   UNL     1     -10.340   1.555  20.837  0.00  0.00    +0.015 C 
BRANCH  91  92
ATOM     92  C   UNL     1     -10.779   2.906  21.757  0.00  0.00    +0.081 C 
BRANCH  92  93
ATOM     93  N   UNL     1     -11.959   3.047  22.673  0.00  0.00    -0.314 NA
ATOM     94  H   UNL     1     -11.973   2.238  23.300  0.00  0.00    +0.122 HD
BRANCH  93  95
ATOM     95  C   UNL     1     -11.883   4.250  23.607  0.00  0.00    +0.047 C 
ATOM     96  C   UNL     1     -13.190   4.351  24.400  0.00  0.00    +0.023 C 
ATOM     97  C   UNL     1     -11.627   5.623  22.983  0.00  0.00    +0.023 C 
ENDBRANCH  93  95
ENDBRANCH  92  93
ENDBRANCH  91  92
ENDBRANCH  90  91
ENDBRANCH  89  90
ENDBRANCH  70  89
ENDBRANCH  67  70
ENDBRANCH  65  66
BRANCH  65  98
ATOM     98  C   UNL     1      -3.487   3.825  14.835  0.00  0.00    +0.034 C 
BRANCH  98 100
ATOM     99  C   UNL     1      -3.151   6.345  14.038  0.00  0.00    +0.007 C 
ATOM    100  C   UNL     1      -3.098   4.844  13.754  0.00  0.00    -0.015 C 
ATOM    101  C   UNL     1      -1.659   4.494  13.411  0.00  0.00    +0.007 C 
ENDBRANCH  98 100
ENDBRANCH  65  98
ENDBRANCH  61  65
ENDBRANCH  60  63
BRANCH  60 102
ATOM    102  C   UNL     1      -7.008   8.298  16.855  0.00  0.00    +0.067 C 
BRANCH 102 103
ATOM    103  C   UNL     1      -8.108   7.753  15.971  0.00  0.00    -0.045 A 
ATOM    104  C   UNL     1      -8.003   7.926  14.594  0.00  0.00    +0.005 A 
ATOM    105  C   UNL     1      -9.059   7.565  13.763  0.00  0.00    +0.023 A 
ATOM    106  C   UNL     1     -10.180   6.898  14.269  0.00  0.00    +0.035 A 
ATOM    107  C   UNL     1     -10.235   6.599  15.622  0.00  0.00    +0.023 A 
ATOM    108  C   UNL     1      -9.248   7.102  16.469  0.00  0.00    +0.005 A 
BRANCH 106 109
ATOM    109  N   UNL     1     -11.205   6.611  13.359  0.00  0.00    -0.270 N 
ATOM    110  H   UNL     1     -11.103   7.008  12.439  0.00  0.00    +0.156 HD
ATOM    111  C   UNL     1     -12.406   6.010  13.606  0.00  0.00    +0.301 C 
ATOM    112  O   UNL     1     -12.815   5.517  14.646  0.00  0.00    -0.253 OA
ATOM    113  N   UNL     1     -13.205   6.027  12.499  0.00  0.00    -0.313 N 
ATOM    114  H   UNL     1     -14.067   5.512  12.621  0.00  0.00    +0.146 HD
ATOM    115  H   UNL     1     -12.774   5.942  11.592  0.00  0.00    +0.146 HD
ENDBRANCH 106 109
ENDBRANCH 102 103
ENDBRANCH  60 102
ENDBRANCH  56  60
ENDBRANCH   1  58
BRANCH   1 116
ATOM    116  C   UNL     1      -9.338   6.386  20.560  0.00  0.00    +0.067 C 
BRANCH 116 117
ATOM    117  C   UNL     1      -8.789   7.447  21.443  0.00  0.00    -0.045 A 
ATOM    118  C   UNL     1      -9.610   8.443  21.951  0.00  0.00    +0.005 A 
ATOM    119  C   UNL     1      -9.068   9.405  22.808  0.00  0.00    +0.023 A 
ATOM    120  C   UNL     1      -7.682   9.374  23.177  0.00  0.00    +0.033 A 
ATOM    121  C   UNL     1      -6.868   8.372  22.659  0.00  0.00    +0.023 A 
ATOM    122  C   UNL     1      -7.428   7.533  21.788  0.00  0.00    +0.005 A 
BRANCH 120 123
ATOM    123  N   UNL     1      -7.174  10.296  24.037  0.00  0.00    -0.284 N 
ATOM    124  H   UNL     1      -7.862  10.927  24.404  0.00  0.00    +0.155 HD
ATOM    125  C   UNL     1      -5.826  10.526  24.296  0.00  0.00    +0.238 C 
ATOM    126  O   UNL     1      -4.846  10.014  23.748  0.00  0.00    -0.273 OA
BRANCH 125 127
ATOM    127  C   UNL     1      -5.609  11.530  25.456  0.00  0.00    +0.169 C 
ATOM    128  N   UNL     1      -6.883  12.074  25.894  0.00  0.00    -0.287 N 
ATOM    129  H   UNL     1      -7.511  11.440  26.382  0.00  0.00    +0.151 HD
ATOM    130  C   UNL     1      -7.498  12.988  25.087  0.00  0.00    +0.306 C 
ATOM    131  O   UNL     1      -8.716  12.960  24.951  0.00  0.00    -0.252 OA
ATOM    132  N   UNL     1      -6.678  13.759  24.322  0.00  0.00    -0.240 N 
ATOM    133  H   UNL     1      -7.129  14.386  23.672  0.00  0.00    +0.159 HD
ATOM    134  C   UNL     1      -5.329  13.591  24.149  0.00  0.00    +0.223 C 
ATOM    135  O   UNL     1      -4.717  14.239  23.304  0.00  0.00    -0.275 OA
ATOM    136  C   UNL     1      -4.641  12.624  25.084  0.00  0.00    +0.128 C 
ENDBRANCH 125 127
ENDBRANCH 120 123
ENDBRANCH 116 117
ENDBRANCH   1 116
TORSDOF 42
