REMARK  Name = 
REMARK  12 active torsions:
REMARK  status: ('A' for Active; 'I' for Inactive)
REMARK    1  A    between atoms: C_1  and  C_2
REMARK    2  A    between atoms: C_2  and  C_3
REMARK    3  A    between atoms: C_3  and  C_4
REMARK    4  A    between atoms: C_3  and  C_6
REMARK    5  A    between atoms: C_4  and  C_5
REMARK    6  A    between atoms: C_6  and  N_7
REMARK    7  A    between atoms: C_6  and  C_11
REMARK    8  A    between atoms: C_8  and  C_9
REMARK    9  A    between atoms: C_13  and  O_15
REMARK   10  A    between atoms: C_16  and  C_25
REMARK   11  A    between atoms: C_19  and  N_21
REMARK   12  A    between atoms: C_25  and  O_26
REMARK                            x       y       z     vdW  Elec       q    Type
REMARK                         _______ _______ _______ _____ _____    ______ ____
ROOT
ATOM      1  C   UNL     1       4.996  -2.526   1.745  0.00  0.00    +0.079 C 
ATOM      2  C   UNL     1       4.976  -3.441   0.496  0.00  0.00    +0.196 C 
ATOM      3  C   UNL     1       4.556  -4.837   0.975  0.00  0.00    +0.062 C 
ATOM      4  C   UNL     1       4.496  -4.777   2.500  0.00  0.00    +0.130 C 
ATOM      5  C   UNL     1       4.169  -3.318   2.767  0.00  0.00    +0.137 C 
ENDROOT
BRANCH   2   6
ATOM      6  N   UNL     1       4.001  -2.920  -0.466  0.00  0.00    -0.110 NA
ATOM      7  C   UNL     1       4.185  -3.157  -1.715  0.00  0.00    +0.377 C 
ATOM      8  N   UNL     1       3.368  -2.606  -2.637  0.00  0.00    -0.289 N 
ATOM      9  H   UNL     1       3.118  -3.187  -3.424  0.00  0.00    +0.255 HD
ATOM     10  H   UNL     1       2.562  -2.169  -2.208  0.00  0.00    +0.255 HD
ATOM     11  N   UNL     1       5.148  -3.906  -2.296  0.00  0.00    -0.289 N 
ATOM     12  H   UNL     1       4.999  -4.172  -3.257  0.00  0.00    +0.255 HD
ATOM     13  H   UNL     1       5.575  -4.628  -1.730  0.00  0.00    +0.255 HD
ENDBRANCH   2   6
BRANCH   4  14
ATOM     14  C   UNL     1       3.467  -5.729   3.067  0.00  0.00    +0.310 C 
ATOM     15  O   UNL     1       3.202  -6.811   2.561  0.00  0.00    -0.251 OA
BRANCH  14  16
ATOM     16  O   UNL     1       2.944  -5.341   4.251  0.00  0.00    -0.480 OA
ATOM     17  H   UNL     1       3.288  -4.467   4.564  0.00  0.00    +0.295 HD
ENDBRANCH  14  16
ENDBRANCH   4  14
BRANCH   5  18
ATOM     18  O   UNL     1       4.339  -2.998   4.138  0.00  0.00    -0.391 OA
ATOM     19  H   UNL     1       5.287  -2.850   4.347  0.00  0.00    +0.210 HD
ENDBRANCH   5  18
BRANCH   1  20
ATOM     20  C   UNL     1       6.441  -2.079   2.133  0.00  0.00    +0.085 C 
BRANCH  20  21
ATOM     21  N   UNL     1       7.281  -3.223   2.524  0.00  0.00    -0.312 N 
ATOM     22  H   UNL     1       7.682  -3.797   1.792  0.00  0.00    +0.149 HD
ATOM     23  C   UNL     1       7.537  -3.545   3.836  0.00  0.00    +0.210 C 
ATOM     24  O   UNL     1       7.043  -2.924   4.772  0.00  0.00    -0.276 OA
ATOM     25  C   UNL     1       8.392  -4.764   4.050  0.00  0.00    +0.109 C 
ENDBRANCH  20  21
BRANCH  20  26
ATOM     26  C   UNL     1       7.172  -1.241   1.016  0.00  0.00    +0.009 C 
BRANCH  26  28
ATOM     27  C   UNL     1       6.862   0.734  -0.651  0.00  0.00    +0.004 C 
ATOM     28  C   UNL     1       6.267  -0.111   0.465  0.00  0.00    +0.002 C 
ENDBRANCH  26  28
BRANCH  26  29
ATOM     29  C   UNL     1       8.560  -0.732   1.484  0.00  0.00    +0.002 C 
ATOM     30  C   UNL     1       8.539   0.242   2.653  0.00  0.00    +0.004 C 
ENDBRANCH  26  29
ENDBRANCH  20  26
ENDBRANCH   1  20
TORSDOF 9
