REMARK  Name = 
REMARK  7 active torsions:
REMARK  status: ('A' for Active; 'I' for Inactive)
REMARK    1  A    between atoms: O_1  and  N_2
REMARK    2  A    between atoms: C_3  and  C_5
REMARK    3  A    between atoms: C_5  and  S_11
REMARK    4  A    between atoms: S_11  and  C_14
REMARK    5  A    between atoms: C_17  and  O_18
REMARK    6  A    between atoms: O_18  and  C_19
REMARK    7  A    between atoms: C_22  and  C_25
REMARK                            x       y       z     vdW  Elec       q    Type
REMARK                         _______ _______ _______ _____ _____    ______ ____
ROOT
ATOM      1  C   UNL     1       7.000  -0.523   1.253  0.00  0.00    +0.090 A 
ATOM      2  C   UNL     1       7.616  -1.755   1.502  0.00  0.00    +0.030 A 
ATOM      3  C   UNL     1       9.012  -1.862   1.444  0.00  0.00    +0.048 A 
ATOM      4  C   UNL     1       9.788  -0.731   1.184  0.00  0.00    +0.129 A 
ATOM      5  C   UNL     1       9.163   0.502   0.970  0.00  0.00    +0.048 A 
ATOM      6  C   UNL     1       7.773   0.615   1.015  0.00  0.00    +0.030 A 
ENDROOT
BRANCH   1   7
ATOM      7  S   UNL     1       5.228  -0.377   1.370  0.00  0.00    +0.011 S 
ATOM      8  O   UNL     1       4.780  -1.449   2.238  0.00  0.00    -0.168 OA
ATOM      9  O   UNL     1       4.947   1.003   1.741  0.00  0.00    -0.168 OA
BRANCH   7  10
ATOM     10  C   UNL     1       4.549  -0.639  -0.279  0.00  0.00    +0.174 C 
ATOM     11  C   UNL     1       4.946  -2.031  -0.816  0.00  0.00    +0.068 C 
ATOM     12  C   UNL     1       4.140  -2.424  -2.050  0.00  0.00    +0.162 C 
ATOM     13  O   UNL     1       2.744  -2.322  -1.786  0.00  0.00    -0.380 OA
ATOM     14  C   UNL     1       2.350  -0.987  -1.494  0.00  0.00    +0.162 C 
ATOM     15  C   UNL     1       3.007  -0.538  -0.199  0.00  0.00    +0.068 C 
BRANCH  10  18
ATOM     16  N   UNL     1       4.731   1.761  -0.838  0.00  0.00    -0.196 N 
ATOM     17  H   UNL     1       4.543   2.004   0.140  0.00  0.00    +0.182 HD
ATOM     18  C   UNL     1       5.107   0.472  -1.176  0.00  0.00    +0.263 C 
ATOM     19  O   UNL     1       5.808   0.213  -2.153  0.00  0.00    -0.271 OA
BRANCH  16  20
ATOM     20  O   UNL     1       5.279   2.772  -1.658  0.00  0.00    -0.295 OA
ATOM     21  H   UNL     1       5.623   3.431  -1.029  0.00  0.00    +0.241 HD
ENDBRANCH  16  20
ENDBRANCH  10  18
ENDBRANCH   7  10
ENDBRANCH   1   7
BRANCH   4  22
ATOM     22  O   UNL     1      11.151  -0.721   1.010  0.00  0.00    -0.456 OA
BRANCH  22  23
ATOM     23  C   UNL     1      11.966  -1.631   1.639  0.00  0.00    +0.128 A 
ATOM     24  C   UNL     1      11.822  -2.033   2.966  0.00  0.00    +0.047 A 
ATOM     25  C   UNL     1      12.778  -2.876   3.546  0.00  0.00    +0.016 A 
ATOM     26  C   UNL     1      13.900  -3.300   2.818  0.00  0.00    +0.055 A 
ATOM     27  C   UNL     1      14.047  -2.871   1.491  0.00  0.00    +0.016 A 
ATOM     28  C   UNL     1      13.085  -2.040   0.910  0.00  0.00    +0.047 A 
BRANCH  26  29
ATOM     29  C   UNL     1      14.942  -4.177   3.475  0.00  0.00    +0.417 C 
ATOM     30  F   UNL     1      14.415  -5.336   3.958  0.00  0.00    -0.166 F 
ATOM     31  F   UNL     1      15.540  -3.567   4.536  0.00  0.00    -0.166 F 
ATOM     32  F   UNL     1      15.954  -4.547   2.640  0.00  0.00    -0.166 F 
ENDBRANCH  26  29
ENDBRANCH  22  23
ENDBRANCH   4  22
TORSDOF 7
