REMARK  Name = 
REMARK  4 active torsions:
REMARK  status: ('A' for Active; 'I' for Inactive)
REMARK    1  A    between atoms: C_5  and  C_6
REMARK    2  A    between atoms: C_5  and  O_7
REMARK    3  A    between atoms: C_8  and  C_9
REMARK    4  A    between atoms: C_24  and  C_25
REMARK                            x       y       z     vdW  Elec       q    Type
REMARK                         _______ _______ _______ _____ _____    ______ ____
ROOT
ATOM      1  C   UNL     1      -0.000  -0.000  -0.000  0.00  0.00    +0.001 C 
ATOM      2  C   UNL     1      -0.000  -0.000  -0.000  0.00  0.00    -0.003 C 
ATOM      3  C   UNL     1      -0.000  -0.000  -0.000  0.00  0.00    +0.008 C 
ATOM      4  C   UNL     1      -0.000  -0.000  -0.000  0.00  0.00    +0.032 C 
ATOM      5  C   UNL     1      -0.000  -0.000   0.000  0.00  0.00    -0.060 C 
ATOM      6  C   UNL     1      -0.000  -0.000   0.000  0.00  0.00    -0.007 C 
ATOM      7  C   UNL     1      -0.000  -0.000  -0.000  0.00  0.00    +0.016 C 
ATOM      8  C   UNL     1       0.000  -0.000   0.000  0.00  0.00    +0.019 C 
ATOM      9  C   UNL     1      -0.000  -0.000  -0.000  0.00  0.00    +0.080 C 
ATOM     10  C   UNL     1      -0.000  -0.000  -0.000  0.00  0.00    +0.156 C 
ATOM     11  O   UNL     1      -0.000  -0.000  -0.000  0.00  0.00    -0.293 OA
ATOM     12  C   UNL     1      -0.000  -0.000  -0.000  0.00  0.00    +0.046 C 
ATOM     13  C   UNL     1      -0.000  -0.000  -0.000  0.00  0.00    +0.002 C 
ATOM     14  C   UNL     1      -0.000  -0.000  -0.000  0.00  0.00    +0.005 C 
ATOM     15  C   UNL     1      -0.000  -0.000  -0.000  0.00  0.00    +0.010 C 
ATOM     16  C   UNL     1      -0.000  -0.000  -0.000  0.00  0.00    -0.000 C 
ATOM     17  C   UNL     1      -0.000  -0.000   0.000  0.00  0.00    +0.014 C 
ATOM     18  C   UNL     1      -0.000  -0.000   0.000  0.00  0.00    +0.069 C 
ATOM     19  C   UNL     1      -0.000  -0.000  -0.000  0.00  0.00    +0.042 C 
ATOM     20  C   UNL     1      -0.000  -0.000  -0.000  0.00  0.00    +0.035 C 
ATOM     21  C   UNL     1      -0.000  -0.000  -0.000  0.00  0.00    +0.007 C 
ENDROOT
BRANCH  18  22
ATOM     22  O   UNL     1      -0.000  -0.000  -0.000  0.00  0.00    -0.388 OA
ATOM     23  H   UNL     1       0.000   0.000   0.000  0.00  0.00    +0.210 HD
ENDBRANCH  18  22
TORSDOF 1
