REMARK  Name = 
REMARK  9 active torsions:
REMARK  status: ('A' for Active; 'I' for Inactive)
REMARK    1  A    between atoms: C_1  and  C_2
REMARK    2  A    between atoms: C_2  and  C_3
REMARK    3  A    between atoms: C_8  and  N_9
REMARK    4  A    between atoms: C_10  and  C_11
REMARK    5  A    between atoms: N_23  and  C_24
REMARK    6  A    between atoms: C_24  and  C_25
REMARK    7  A    between atoms: C_25  and  C_26
REMARK    8  A    between atoms: C_26  and  O_27
REMARK    9  A    between atoms: O_27  and  C_28
REMARK                            x       y       z     vdW  Elec       q    Type
REMARK                         _______ _______ _______ _____ _____    ______ ____
ROOT
ATOM      1  C   UNL     1       0.916  -2.275  -1.016  0.00  0.00    -0.011 A 
ATOM      2  C   UNL     1       0.636  -1.135  -1.796  0.00  0.00    +0.009 A 
ATOM      3  C   UNL     1      -0.628  -0.876  -2.364  0.00  0.00    +0.011 A 
ATOM      4  C   UNL     1      -1.611  -1.875  -2.331  0.00  0.00    +0.008 A 
ATOM      5  C   UNL     1      -2.963  -1.973  -2.782  0.00  0.00    +0.008 A 
ATOM      6  C   UNL     1      -3.339  -3.314  -2.676  0.00  0.00    +0.050 A 
ATOM      7  N   UNL     1      -2.278  -3.977  -2.088  0.00  0.00    -0.340 N 
ATOM      8  C   UNL     1      -4.577  -3.780  -3.144  0.00  0.00    +0.026 A 
ATOM      9  C   UNL     1      -5.478  -2.843  -3.661  0.00  0.00    +0.002 A 
ATOM     10  C   UNL     1      -5.151  -1.492  -3.720  0.00  0.00    +0.001 A 
ATOM     11  C   UNL     1      -3.893  -1.048  -3.303  0.00  0.00    +0.010 A 
ATOM     12  C   UNL     1      -1.287  -3.085  -1.731  0.00  0.00    +0.051 A 
ATOM     13  C   UNL     1      -0.102  -3.250  -0.983  0.00  0.00    +0.035 A 
ENDROOT
BRANCH   1  15
ATOM     14  C   UNL     1       3.004  -1.408   0.239  0.00  0.00    +0.056 A 
ATOM     15  C   UNL     1       2.229  -2.461  -0.289  0.00  0.00    +0.043 A 
ATOM     16  C   UNL     1       2.814  -3.718  -0.036  0.00  0.00    +0.129 A 
ATOM     17  N   UNL     1       3.991  -3.911   0.588  0.00  0.00    -0.199 NA
ATOM     18  C   UNL     1       4.643  -2.841   0.998  0.00  0.00    +0.214 A 
ATOM     19  N   UNL     1       5.860  -3.032   1.620  0.00  0.00    -0.327 N 
ATOM     20  H   UNL     1       6.239  -3.930   1.353  0.00  0.00    +0.145 HD
ATOM     21  H   UNL     1       6.443  -2.217   1.495  0.00  0.00    +0.145 HD
ATOM     22  N   UNL     1       4.219  -1.598   0.825  0.00  0.00    -0.219 NA
BRANCH  16  23
ATOM     23  N   UNL     1       2.210  -4.935  -0.323  0.00  0.00    -0.343 N 
ATOM     24  H   UNL     1       1.871  -5.035  -1.279  0.00  0.00    +0.144 HD
ATOM     25  H   UNL     1       2.856  -5.675  -0.071  0.00  0.00    +0.144 HD
ENDBRANCH  16  23
BRANCH  14  27
ATOM     26  C   UNL     1       3.118   0.880   1.378  0.00  0.00    +0.010 C 
ATOM     27  C   UNL     1       2.582   0.045   0.219  0.00  0.00    +0.053 C 
ENDBRANCH  14  27
ENDBRANCH   1  15
BRANCH   7  28
ATOM     28  C   UNL     1      -2.162  -5.425  -1.992  0.00  0.00    +0.124 C 
BRANCH  28  29
ATOM     29  C   UNL     1      -1.583  -6.062  -3.262  0.00  0.00    +0.049 C 
BRANCH  29  30
ATOM     30  C   UNL     1      -0.080  -5.845  -3.448  0.00  0.00    +0.161 C 
BRANCH  30  31
ATOM     31  O   UNL     1       0.688  -6.192  -2.298  0.00  0.00    -0.383 OA
ATOM     32  C   UNL     1       0.688  -7.581  -1.994  0.00  0.00    +0.193 C 
ENDBRANCH  30  31
ENDBRANCH  29  30
ENDBRANCH  28  29
ENDBRANCH   7  28
TORSDOF 7
