REMARK  Name = 
REMARK  15 active torsions:
REMARK  status: ('A' for Active; 'I' for Inactive)
REMARK    1  A    between atoms: C_1  and  C_2
REMARK    2  A    between atoms: C_2  and  C_3
REMARK    3  A    between atoms: C_3  and  C_4
REMARK    4  A    between atoms: C_4  and  C_5
REMARK    5  A    between atoms: C_5  and  C_6
REMARK    6  A    between atoms: C_6  and  C_7
REMARK    7  A    between atoms: C_7  and  C_8
REMARK    8  A    between atoms: C_8  and  C_9
REMARK    9  A    between atoms: C_9  and  C_10
REMARK   10  A    between atoms: C_10  and  C_11
REMARK   11  A    between atoms: C_11  and  C_12
REMARK   12  A    between atoms: C_12  and  S_13
REMARK   13  A    between atoms: S_13  and  C_14
REMARK   14  A    between atoms: C_15  and  C_19
REMARK   15  A    between atoms: C_19  and  O_20
REMARK                            x       y       z     vdW  Elec       q    Type
REMARK                         _______ _______ _______ _____ _____    ______ ____
ROOT
ATOM      1  C   UNL     1      12.642  -4.821  -5.320  0.00  0.00    +0.076 C 
ENDROOT
BRANCH   1   2
ATOM      2  C   UNL     1      11.116  -4.763  -5.331  0.00  0.00    +0.011 C 
BRANCH   2   3
ATOM      3  C   UNL     1      10.554  -3.793  -4.293  0.00  0.00    +0.001 C 
BRANCH   3   4
ATOM      4  C   UNL     1       9.032  -3.796  -4.300  0.00  0.00    +0.000 C 
BRANCH   4   5
ATOM      5  C   UNL     1       8.509  -2.863  -3.213  0.00  0.00    +0.000 C 
BRANCH   5   6
ATOM      6  C   UNL     1       6.987  -2.857  -3.194  0.00  0.00    +0.000 C 
BRANCH   6   7
ATOM      7  C   UNL     1       6.470  -1.918  -2.111  0.00  0.00    -0.000 C 
BRANCH   7   8
ATOM      8  C   UNL     1       4.946  -1.905  -2.097  0.00  0.00    -0.000 C 
BRANCH   8   9
ATOM      9  C   UNL     1       4.420  -0.963  -1.019  0.00  0.00    -0.000 C 
BRANCH   9  10
ATOM     10  C   UNL     1       2.895  -0.951  -1.008  0.00  0.00    -0.000 C 
BRANCH  10  12
ATOM     11  C   UNL     1       0.841   0.000   0.080  0.00  0.00    +0.004 C 
ATOM     12  C   UNL     1       2.360  -0.010   0.068  0.00  0.00    -0.003 C 
ENDBRANCH  10  12
ENDBRANCH   9  10
ENDBRANCH   8   9
ENDBRANCH   7   8
ENDBRANCH   6   7
ENDBRANCH   5   6
ENDBRANCH   4   5
ENDBRANCH   3   4
ENDBRANCH   2   3
ENDBRANCH   1   2
BRANCH   1  13
ATOM     13  S   UNL     1      13.269  -5.419  -3.712  0.00  0.00    -0.104 S 
BRANCH  13  14
ATOM     14  C   UNL     1      14.963  -5.375  -3.984  0.00  0.00    +0.126 A 
ATOM     15  N   UNL     1      15.749  -4.547  -3.239  0.00  0.00    -0.251 N 
ATOM     16  H   UNL     1      15.481  -3.902  -2.505  0.00  0.00    +0.191 HD
ATOM     17  N   UNL     1      17.039  -4.648  -3.603  0.00  0.00    -0.067 NA
ATOM     18  N   UNL     1      17.113  -5.566  -4.559  0.00  0.00    -0.122 NA
ATOM     19  C   UNL     1      15.840  -6.037  -4.809  0.00  0.00    +0.202 A 
BRANCH  19  20
ATOM     20  C   UNL     1      15.590  -7.074  -5.793  0.00  0.00    +0.360 C 
ATOM     21  O   UNL     1      14.491  -7.540  -6.060  0.00  0.00    -0.243 OA
BRANCH  20  22
ATOM     22  O   UNL     1      16.718  -7.490  -6.428  0.00  0.00    -0.476 OA
ATOM     23  H   UNL     1      17.495  -7.004  -6.077  0.00  0.00    +0.295 HD
ENDBRANCH  20  22
ENDBRANCH  19  20
ENDBRANCH  13  14
ENDBRANCH   1  13
TORSDOF 14
