REMARK  Name = 
REMARK  8 active torsions:
REMARK  status: ('A' for Active; 'I' for Inactive)
REMARK    1  A    between atoms: C_2  and  S_3
REMARK    2  A    between atoms: C_2  and  N_4
REMARK    3  A    between atoms: C_2  and  C_19
REMARK    4  A    between atoms: N_4  and  C_5
REMARK    5  A    between atoms: C_7  and  C_15
REMARK    6  A    between atoms: C_9  and  C_11
REMARK    7  A    between atoms: C_19  and  C_21
REMARK    8  A    between atoms: C_19  and  C_23
REMARK                            x       y       z     vdW  Elec       q    Type
REMARK                         _______ _______ _______ _____ _____    ______ ____
ROOT
ATOM      1  C   UNL     1       2.191  -2.171  -1.374  0.00  0.00    +0.029 A 
ATOM      2  C   UNL     1       1.018  -2.625  -1.988  0.00  0.00    +0.035 A 
ATOM      3  C   UNL     1       0.753  -3.997  -2.142  0.00  0.00    +0.057 A 
ATOM      4  C   UNL     1       1.681  -4.926  -1.653  0.00  0.00    +0.024 A 
ATOM      5  C   UNL     1       2.845  -4.499  -1.000  0.00  0.00    +0.057 A 
ATOM      6  C   UNL     1       3.072  -3.122  -0.848  0.00  0.00    +0.035 A 
ENDROOT
BRANCH   3   7
ATOM      7  C   UNL     1      -0.512  -4.440  -2.837  0.00  0.00    +0.417 C 
ATOM      8  F   UNL     1      -0.586  -3.982  -4.117  0.00  0.00    -0.166 F 
ATOM      9  F   UNL     1      -1.635  -3.992  -2.211  0.00  0.00    -0.166 F 
ATOM     10  F   UNL     1      -0.641  -5.793  -2.917  0.00  0.00    -0.166 F 
ENDBRANCH   3   7
BRANCH   5  11
ATOM     11  C   UNL     1       3.845  -5.505  -0.481  0.00  0.00    +0.417 C 
ATOM     12  F   UNL     1       4.319  -6.311  -1.470  0.00  0.00    -0.166 F 
ATOM     13  F   UNL     1       3.317  -6.331   0.461  0.00  0.00    -0.166 F 
ATOM     14  F   UNL     1       4.942  -4.933   0.088  0.00  0.00    -0.166 F 
ENDBRANCH   5  11
BRANCH   1  15
ATOM     15  N   UNL     1       2.422  -0.802  -1.271  0.00  0.00    -0.331 N 
ATOM     16  H   UNL     1       1.751  -0.224  -1.773  0.00  0.00    +0.147 HD
BRANCH  15  17
ATOM     17  C   UNL     1       3.794  -0.272  -1.325  0.00  0.00    +0.151 C 
BRANCH  17  18
ATOM     18  S   UNL     1       3.631   1.545  -1.070  0.00  0.00    -0.154 S 
ATOM     19  H   UNL     1       2.879   1.811  -2.148  0.00  0.00    +0.104 HD
ENDBRANCH  17  18
BRANCH  17  20
ATOM     20  C   UNL     1       4.523  -0.673  -2.621  0.00  0.00    +0.207 C 
BRANCH  20  21
ATOM     21  C   UNL     1       5.981  -0.246  -2.622  0.00  0.00    +0.230 C 
ATOM     22  O   UNL     1       6.627  -0.084  -1.590  0.00  0.00    -0.275 OA
ATOM     23  N   UNL     1       6.626  -0.172  -3.825  0.00  0.00    -0.328 N 
ATOM     24  H   UNL     1       7.587   0.151  -3.808  0.00  0.00    +0.145 HD
ATOM     25  H   UNL     1       6.164  -0.151  -4.727  0.00  0.00    +0.145 HD
ENDBRANCH  20  21
BRANCH  20  26
ATOM     26  C   UNL     1       3.811  -0.101  -3.836  0.00  0.00    +0.078 C 
ATOM     27  N   UNL     1       3.220   0.375  -4.843  0.00  0.00    -0.196 NA
ENDBRANCH  20  26
ENDBRANCH  17  20
ENDBRANCH  15  17
ENDBRANCH   1  15
TORSDOF 8
