REMARK  Name = 
REMARK  9 active torsions:
REMARK  status: ('A' for Active; 'I' for Inactive)
REMARK    1  A    between atoms: C_2  and  C_3
REMARK    2  A    between atoms: C_2  and  N_4
REMARK    3  A    between atoms: C_2  and  C_26
REMARK    4  A    between atoms: N_4  and  C_5
REMARK    5  A    between atoms: C_11  and  C_12
REMARK    6  A    between atoms: N_14  and  C_15
REMARK    7  A    between atoms: C_19  and  C_20
REMARK    8  A    between atoms: C_20  and  C_21
REMARK    9  A    between atoms: C_21  and  C_22
REMARK                            x       y       z     vdW  Elec       q    Type
REMARK                         _______ _______ _______ _____ _____    ______ ____
ROOT
ATOM      1  C   UNL     1       2.411  -0.009   2.583  0.00  0.00    +0.121 A 
ATOM      2  N   UNL     1       1.850  -0.766   3.544  0.00  0.00    -0.240 NA
ATOM      3  C   UNL     1       1.584  -0.230   4.763  0.00  0.00    +0.124 A 
ATOM      4  C   UNL     1       1.838   1.122   5.019  0.00  0.00    +0.041 A 
ATOM      5  C   UNL     1       1.746   1.987   6.133  0.00  0.00    +0.070 A 
ATOM      6  N   UNL     1       2.155   3.227   5.842  0.00  0.00    -0.170 NA
ATOM      7  N   UNL     1       2.403   3.207   4.503  0.00  0.00    -0.232 N 
ATOM      8  C   UNL     1       1.307   1.657   7.514  0.00  0.00    +0.068 C 
ATOM      9  C   UNL     1       2.358   1.910   3.997  0.00  0.00    +0.080 A 
ATOM     10  C   UNL     1       2.735   1.331   2.778  0.00  0.00    +0.072 A 
ENDROOT
BRANCH   7  11
ATOM     11  C   UNL     1       2.637   4.426   3.795  0.00  0.00    +0.066 A 
ATOM     12  C   UNL     1       3.150   5.550   4.468  0.00  0.00    +0.031 A 
ATOM     13  C   UNL     1       3.459   6.729   3.761  0.00  0.00    -0.045 A 
ATOM     14  C   UNL     1       3.200   6.777   2.383  0.00  0.00    +0.004 A 
ATOM     15  C   UNL     1       2.627   5.690   1.728  0.00  0.00    +0.002 A 
ATOM     16  C   UNL     1       2.348   4.517   2.428  0.00  0.00    +0.028 A 
BRANCH  13  17
ATOM     17  C   UNL     1       4.146   7.895   4.442  0.00  0.00    +0.044 C 
BRANCH  17  18
ATOM     18  C   UNL     1       3.404   9.226   4.290  0.00  0.00    +0.100 C 
BRANCH  18  19
ATOM     19  C   UNL     1       4.175  10.375   4.905  0.00  0.00    +0.211 C 
ATOM     20  O   UNL     1       5.299  10.289   5.381  0.00  0.00    -0.276 OA
ATOM     21  N   UNL     1       3.521  11.572   4.861  0.00  0.00    -0.329 N 
ATOM     22  H   UNL     1       3.982  12.374   5.271  0.00  0.00    +0.145 HD
ATOM     23  H   UNL     1       2.561  11.665   4.560  0.00  0.00    +0.145 HD
ENDBRANCH  18  19
ENDBRANCH  17  18
ENDBRANCH  13  17
ENDBRANCH   7  11
BRANCH   1  24
ATOM     24  N   UNL     1       2.746  -0.572   1.337  0.00  0.00    -0.322 N 
ATOM     25  H   UNL     1       3.725  -0.846   1.394  0.00  0.00    +0.148 HD
BRANCH  24  26
ATOM     26  C   UNL     1       1.918  -1.704   0.899  0.00  0.00    +0.099 C 
ATOM     27  C   UNL     1       0.476  -1.240   0.645  0.00  0.00    +0.033 C 
BRANCH  26  28
ATOM     28  C   UNL     1       2.456  -2.288  -0.411  0.00  0.00    -0.028 A 
ATOM     29  C   UNL     1       2.204  -3.637  -0.716  0.00  0.00    +0.005 A 
ATOM     30  C   UNL     1       2.580  -4.177  -1.949  0.00  0.00    +0.000 A 
ATOM     31  C   UNL     1       3.218  -3.380  -2.896  0.00  0.00    +0.000 A 
ATOM     32  C   UNL     1       3.486  -2.043  -2.607  0.00  0.00    +0.000 A 
ATOM     33  C   UNL     1       3.102  -1.499  -1.378  0.00  0.00    +0.005 A 
ENDBRANCH  26  28
ENDBRANCH  24  26
ENDBRANCH   1  24
TORSDOF 7
