REMARK  Name = 
REMARK  10 active torsions:
REMARK  status: ('A' for Active; 'I' for Inactive)
REMARK    1  A    between atoms: C_1  and  C_2
REMARK    2  A    between atoms: C_2  and  C_3
REMARK    3  A    between atoms: C_3  and  C_5
REMARK    4  A    between atoms: C_3  and  C_12
REMARK    5  A    between atoms: C_5  and  C_7
REMARK    6  A    between atoms: C_5  and  C_8
REMARK    7  A    between atoms: C_8  and  N_9
REMARK    8  A    between atoms: N_9  and  C_10
REMARK    9  A    between atoms: N_9  and  C_11
REMARK   10  A    between atoms: C_14  and  O_15
REMARK                            x       y       z     vdW  Elec       q    Type
REMARK                         _______ _______ _______ _____ _____    ______ ____
ROOT
ATOM      1  C   UNL     1       3.049  -0.164   1.569  0.00  0.00    +0.023 C 
ENDROOT
BRANCH   1   2
ATOM      2  C   UNL     1       4.595  -0.044   1.323  0.00  0.00    -0.041 A 
ATOM      3  C   UNL     1       5.272   1.193   1.387  0.00  0.00    +0.004 A 
ATOM      4  C   UNL     1       6.653   1.303   1.178  0.00  0.00    +0.004 A 
ATOM      5  C   UNL     1       7.406   0.174   0.887  0.00  0.00    +0.045 A 
ATOM      6  C   UNL     1       6.766  -1.049   0.794  0.00  0.00    +0.117 A 
ATOM      7  C   UNL     1       5.385  -1.163   0.981  0.00  0.00    +0.049 A 
BRANCH   6   8
ATOM      8  O   UNL     1       7.538  -2.143   0.517  0.00  0.00    -0.507 OA
ATOM      9  H   UNL     1       6.980  -2.936   0.577  0.00  0.00    +0.292 HD
ENDBRANCH   6   8
ENDBRANCH   1   2
BRANCH   1  11
ATOM     10  C   UNL     1       1.021   1.216   2.569  0.00  0.00    +0.004 C 
ATOM     11  C   UNL     1       2.522   1.052   2.394  0.00  0.00    +0.005 C 
ENDBRANCH   1  11
BRANCH   1  12
ATOM     12  C   UNL     1       2.636  -1.574   2.142  0.00  0.00    +0.007 C 
ATOM     13  C   UNL     1       3.217  -1.817   3.547  0.00  0.00    +0.009 C 
BRANCH  12  14
ATOM     14  C   UNL     1       1.128  -1.933   2.180  0.00  0.00    +0.087 C 
BRANCH  14  15
ATOM     15  N   UNL     1       0.383  -1.813   0.915  0.00  0.00    -0.308 NA
ATOM     16  C   UNL     1      -1.048  -2.046   1.172  0.00  0.00    +0.104 C 
ATOM     17  C   UNL     1       0.857  -2.767  -0.089  0.00  0.00    +0.104 C 
ENDBRANCH  14  15
ENDBRANCH  12  14
ENDBRANCH   1  12
TORSDOF 6
