REMARK  Name = 
REMARK  5 active torsions:
REMARK  status: ('A' for Active; 'I' for Inactive)
REMARK    1  A    between atoms: N_1  and  C_2
REMARK    2  A    between atoms: C_5  and  S_8
REMARK    3  A    between atoms: S_8  and  N_11
REMARK    4  A    between atoms: N_11  and  C_12
REMARK    5  A    between atoms: N_16  and  C_17
REMARK                            x       y       z     vdW  Elec       q    Type
REMARK                         _______ _______ _______ _____ _____    ______ ____
ROOT
ATOM      1  N   UNL     1       7.547  -1.198  -0.598  0.00  0.00    -0.199 N 
ATOM      2  H   UNL     1       7.414  -0.833   0.333  0.00  0.00    +0.175 HD
ENDROOT
BRANCH   1   3
ATOM      3  C   UNL     1       8.820  -1.594  -0.980  0.00  0.00    +0.141 A 
ATOM      4  N   UNL     1       9.364  -2.873  -1.165  0.00  0.00    -0.217 N 
ATOM      5  N   UNL     1      10.702  -2.777  -1.420  0.00  0.00    -0.173 NA
ATOM      6  C   UNL     1      10.970  -1.475  -1.444  0.00  0.00    +0.137 A 
ATOM      7  C   UNL     1       9.844  -0.691  -1.167  0.00  0.00    +0.066 A 
BRANCH   4   8
ATOM      8  C   UNL     1       8.762  -4.164  -1.083  0.00  0.00    +0.067 A 
ATOM      9  C   UNL     1       7.395  -4.345  -0.865  0.00  0.00    +0.028 A 
ATOM     10  C   UNL     1       6.832  -5.625  -0.866  0.00  0.00    +0.002 A 
ATOM     11  C   UNL     1       7.635  -6.745  -1.041  0.00  0.00    +0.000 A 
ATOM     12  C   UNL     1       9.006  -6.588  -1.216  0.00  0.00    +0.002 A 
ATOM     13  C   UNL     1       9.568  -5.308  -1.244  0.00  0.00    +0.028 A 
ENDBRANCH   4   8
ENDBRANCH   1   3
BRANCH   1  14
ATOM     14  S   UNL     1       6.323  -1.006  -1.661  0.00  0.00    +0.073 S 
ATOM     15  O   UNL     1       6.792  -1.118  -3.027  0.00  0.00    -0.150 OA
ATOM     16  O   UNL     1       5.180  -1.777  -1.221  0.00  0.00    -0.150 OA
BRANCH  14  20
ATOM     17  C   UNL     1       4.987   3.353  -1.199  0.00  0.00    +0.025 A 
ATOM     18  C   UNL     1       4.442   2.358  -0.383  0.00  0.00    +0.024 A 
ATOM     19  C   UNL     1       4.860   1.028  -0.502  0.00  0.00    +0.030 A 
ATOM     20  C   UNL     1       5.872   0.702  -1.410  0.00  0.00    +0.109 A 
ATOM     21  C   UNL     1       6.473   1.697  -2.182  0.00  0.00    +0.030 A 
ATOM     22  C   UNL     1       6.044   3.021  -2.052  0.00  0.00    +0.024 A 
BRANCH  17  23
ATOM     23  N   UNL     1       4.631   4.691  -1.008  0.00  0.00    -0.358 N 
ATOM     24  H   UNL     1       3.689   4.827  -0.651  0.00  0.00    +0.142 HD
ATOM     25  H   UNL     1       4.814   5.290  -1.809  0.00  0.00    +0.142 HD
ENDBRANCH  17  23
ENDBRANCH  14  20
ENDBRANCH   1  14
TORSDOF 5
