REMARK  Name = 
REMARK  2 active torsions:
REMARK  status: ('A' for Active; 'I' for Inactive)
REMARK    1  A    between atoms: O_1  and  C_2
REMARK    2  A    between atoms: C_2  and  C_3
REMARK                            x       y       z     vdW  Elec       q    Type
REMARK                         _______ _______ _______ _____ _____    ______ ____
ROOT
ATOM      1  C   UNL     1       2.893   0.887   1.183  0.00  0.00    -0.022 A 
ATOM      2  C   UNL     1       3.732   0.439   2.213  0.00  0.00    +0.006 A 
ATOM      3  C   UNL     1       4.147   1.310   3.222  0.00  0.00    +0.000 A 
ATOM      4  C   UNL     1       3.728   2.638   3.212  0.00  0.00    +0.000 A 
ATOM      5  C   UNL     1       2.893   3.096   2.195  0.00  0.00    +0.000 A 
ATOM      6  C   UNL     1       2.476   2.225   1.185  0.00  0.00    +0.006 A 
ENDROOT
BRANCH   1   7
ATOM      7  C   UNL     1       2.437  -0.060   0.108  0.00  0.00    +0.191 C 
BRANCH   7   8
ATOM      8  O   UNL     1       3.567  -0.606  -0.558  0.00  0.00    -0.390 OA
ATOM      9  H   UNL     1       3.225  -1.167  -1.273  0.00  0.00    +0.210 HD
ENDBRANCH   7   8
ENDBRANCH   1   7
TORSDOF 2
