REMARK  Name = 
REMARK  9 active torsions:
REMARK  status: ('A' for Active; 'I' for Inactive)
REMARK    1  A    between atoms: C_2  and  C_3
REMARK    2  A    between atoms: C_2  and  C_8
REMARK    3  A    between atoms: C_2  and  C_16
REMARK    4  A    between atoms: C_3  and  C_4
REMARK    5  A    between atoms: N_6  and  O_7
REMARK    6  A    between atoms: C_8  and  C_9
REMARK    7  A    between atoms: C_11  and  O_12
REMARK    8  A    between atoms: N_18  and  C_19
REMARK    9  A    between atoms: C_24  and  O_26
REMARK                            x       y       z     vdW  Elec       q    Type
REMARK                         _______ _______ _______ _____ _____    ______ ____
ROOT
ATOM      1  C   UNL     1       7.608  -2.854   2.020  0.00  0.00    +0.088 C 
ENDROOT
BRANCH   1   2
ATOM      2  C   UNL     1       7.124  -1.910   3.128  0.00  0.00    +0.217 C 
ATOM      3  N   UNL     1       7.279  -2.379   4.400  0.00  0.00    -0.306 N 
ATOM      4  H   UNL     1       8.023  -3.058   4.519  0.00  0.00    +0.149 HD
ATOM      5  O   UNL     1       6.659  -0.807   2.865  0.00  0.00    -0.275 OA
BRANCH   3   6
ATOM      6  C   UNL     1       6.913  -1.665   5.619  0.00  0.00    +0.132 C 
ATOM      7  C   UNL     1       7.241  -2.548   6.865  0.00  0.00    +0.143 C 
ATOM      8  C   UNL     1       6.027  -3.486   7.047  0.00  0.00    +0.069 C 
ATOM      9  C   UNL     1       4.916  -2.630   6.524  0.00  0.00    -0.040 A 
ATOM     10  C   UNL     1       3.555  -2.807   6.697  0.00  0.00    +0.004 A 
ATOM     11  C   UNL     1       2.691  -1.837   6.186  0.00  0.00    +0.000 A 
ATOM     12  C   UNL     1       3.196  -0.711   5.518  0.00  0.00    +0.000 A 
ATOM     13  C   UNL     1       4.569  -0.569   5.302  0.00  0.00    +0.006 A 
ATOM     14  C   UNL     1       5.420  -1.551   5.785  0.00  0.00    -0.022 A 
BRANCH   7  15
ATOM     15  O   UNL     1       8.462  -3.278   6.737  0.00  0.00    -0.389 OA
ATOM     16  H   UNL     1       8.322  -4.020   6.120  0.00  0.00    +0.210 HD
ENDBRANCH   7  15
ENDBRANCH   3   6
ENDBRANCH   1   2
BRANCH   1  17
ATOM     17  C   UNL     1       9.154  -2.822   1.954  0.00  0.00    +0.111 C 
BRANCH  17  18
ATOM     18  C   UNL     1       9.870  -3.590   3.061  0.00  0.00    +0.236 C 
ATOM     19  N   UNL     1      11.226  -3.714   2.874  0.00  0.00    -0.197 N 
ATOM     20  H   UNL     1      11.759  -3.007   2.377  0.00  0.00    +0.182 HD
ATOM     21  O   UNL     1       9.317  -4.063   4.053  0.00  0.00    -0.274 OA
BRANCH  19  22
ATOM     22  O   UNL     1      11.910  -4.365   3.931  0.00  0.00    -0.295 OA
ATOM     23  H   UNL     1      11.180  -4.655   4.521  0.00  0.00    +0.241 HD
ENDBRANCH  19  22
ENDBRANCH  17  18
ENDBRANCH   1  17
BRANCH   1  24
ATOM     24  C   UNL     1       7.089  -4.310   2.063  0.00  0.00    +0.048 C 
BRANCH  24  25
ATOM     25  C   UNL     1       5.615  -4.649   2.015  0.00  0.00    -0.043 A 
ATOM     26  C   UNL     1       5.264  -5.964   1.647  0.00  0.00    +0.004 A 
ATOM     27  C   UNL     1       3.957  -6.434   1.794  0.00  0.00    +0.004 A 
ATOM     28  C   UNL     1       2.979  -5.599   2.321  0.00  0.00    +0.045 A 
ATOM     29  C   UNL     1       3.312  -4.295   2.661  0.00  0.00    +0.117 A 
ATOM     30  C   UNL     1       4.608  -3.807   2.493  0.00  0.00    +0.049 A 
BRANCH  29  31
ATOM     31  O   UNL     1       2.340  -3.511   3.213  0.00  0.00    -0.507 OA
ATOM     32  H   UNL     1       2.781  -2.739   3.612  0.00  0.00    +0.292 HD
ENDBRANCH  29  31
ENDBRANCH  24  25
ENDBRANCH   1  24
TORSDOF 9
