REMARK  Name = 
REMARK  4 active torsions:
REMARK  status: ('A' for Active; 'I' for Inactive)
REMARK    1  A    between atoms: C_1  and  C_2
REMARK    2  A    between atoms: C_2  and  O_3
REMARK    3  A    between atoms: C_18  and  C_19
REMARK    4  A    between atoms: C_23  and  C_24
REMARK                            x       y       z     vdW  Elec       q    Type
REMARK                         _______ _______ _______ _____ _____    ______ ____
ROOT
ATOM      1  C   UNL     1       1.252   0.444   0.307  0.00  0.00    +0.042 C 
ATOM      2  C   UNL     1       2.800   0.556   0.211  0.00  0.00    +0.069 C 
ATOM      3  C   UNL     1       3.413   1.715  -0.762  0.00  0.00    -0.000 C 
ATOM      4  C   UNL     1       2.217   2.471  -1.390  0.00  0.00    +0.014 C 
ATOM      5  C   UNL     1       4.264   0.828  -1.691  0.00  0.00    +0.001 C 
ATOM      6  C   UNL     1       4.690   1.573  -2.934  0.00  0.00    -0.004 C 
ATOM      7  C   UNL     1       6.070   2.400  -2.605  0.00  0.00    -0.001 C 
ATOM      8  C   UNL     1       5.401   3.488  -1.623  0.00  0.00    +0.005 C 
ATOM      9  C   UNL     1       7.065   2.670  -4.054  0.00  0.00    -0.022 C 
ATOM     10  C   UNL     1       6.680   4.069  -4.583  0.00  0.00    +0.012 C 
ATOM     11  C   UNL     1       6.641   1.388  -4.836  0.00  0.00    +0.001 C 
ATOM     12  C   UNL     1       7.358   0.394  -5.730  0.00  0.00    +0.061 C 
ATOM     13  C   UNL     1       8.797   0.530  -5.627  0.00  0.00    +0.066 A 
ATOM     14  C   UNL     1       9.434   1.589  -4.985  0.00  0.00    -0.006 A 
ATOM     15  C   UNL     1      10.726   1.455  -5.492  0.00  0.00    +0.108 A 
ATOM     16  N   UNL     1      10.776   0.270  -6.187  0.00  0.00    -0.284 N 
ATOM     17  H   UNL     1      11.557  -0.171  -6.687  0.00  0.00    +0.188 HD
ATOM     18  N   UNL     1       9.589  -0.326  -6.281  0.00  0.00    -0.179 NA
ATOM     19  C   UNL     1       5.198   1.414  -5.269  0.00  0.00    +0.005 C 
ATOM     20  C   UNL     1       8.725   2.684  -4.135  0.00  0.00    +0.045 C 
ATOM     21  C   UNL     1       4.566   0.675  -4.148  0.00  0.00    +0.004 C 
ATOM     22  C   UNL     1       3.584  -0.499  -1.842  0.00  0.00    +0.007 C 
ATOM     23  C   UNL     1       4.496   2.829  -0.362  0.00  0.00    +0.010 C 
ATOM     24  C   UNL     1       3.230  -0.813  -0.397  0.00  0.00    +0.035 C 
ENDROOT
BRANCH   2  25
ATOM     25  O   UNL     1       3.309   0.629   1.537  0.00  0.00    -0.388 OA
ATOM     26  H   UNL     1       2.965  -0.145   2.030  0.00  0.00    +0.210 HD
ENDBRANCH   2  25
TORSDOF 1
