REMARK  Name = 
REMARK  8 active torsions:
REMARK  status: ('A' for Active; 'I' for Inactive)
REMARK    1  A    between atoms: C_2  and  N_3
REMARK    2  A    between atoms: C_2  and  C_4
REMARK    3  A    between atoms: C_2  and  C_6
REMARK    4  A    between atoms: C_4  and  C_5
REMARK    5  A    between atoms: C_12  and  C_14
REMARK    6  A    between atoms: N_16  and  C_17
REMARK    7  A    between atoms: C_17  and  C_18
REMARK    8  A    between atoms: C_21  and  C_24
REMARK                            x       y       z     vdW  Elec       q    Type
REMARK                         _______ _______ _______ _____ _____    ______ ____
ROOT
ATOM      1  C   UNL     1       4.761  -3.636   1.385  0.00  0.00    +0.234 C 
ATOM      2  N   UNL     1       4.885  -5.012   1.481  0.00  0.00    -0.310 N 
ATOM      3  H   UNL     1       4.775  -5.581   0.655  0.00  0.00    +0.149 HD
ATOM      4  O   UNL     1       4.798  -2.899   2.368  0.00  0.00    -0.274 OA
ENDROOT
BRANCH   1   7
ATOM      5  C   UNL     1       2.768  -1.578  -0.055  0.00  0.00    +0.233 C 
ATOM      6  N   UNL     1       4.129  -1.764  -0.101  0.00  0.00    -0.289 N 
ATOM      7  C   UNL     1       4.695  -3.109  -0.070  0.00  0.00    +0.162 C 
ATOM      8  C   UNL     1       6.118  -2.948  -0.627  0.00  0.00    +0.033 C 
ATOM      9  C   UNL     1       6.235  -1.473  -1.016  0.00  0.00    +0.021 C 
ATOM     10  C   UNL     1       5.187  -0.778  -0.168  0.00  0.00    +0.108 C 
ATOM     11  O   UNL     1       2.001  -2.549  -0.050  0.00  0.00    -0.274 OA
BRANCH   5  12
ATOM     12  C   UNL     1       2.177  -0.147  -0.024  0.00  0.00    +0.138 C 
BRANCH  12  13
ATOM     13  N   UNL     1       2.550   0.595  -1.249  0.00  0.00    -0.320 NA
ATOM     14  H   UNL     1       2.214   0.067  -2.056  0.00  0.00    +0.119 HD
ATOM     15  H   UNL     1       2.053   1.484  -1.262  0.00  0.00    +0.119 HD
ENDBRANCH  12  13
BRANCH  12  16
ATOM     16  C   UNL     1       2.544   0.645   1.236  0.00  0.00    +0.024 C 
ATOM     17  C   UNL     1       2.088  -0.052   2.512  0.00  0.00    +0.006 C 
ENDBRANCH  12  16
ENDBRANCH   5  12
ENDBRANCH   1   7
BRANCH   2  18
ATOM     18  C   UNL     1       5.042  -5.670   2.759  0.00  0.00    +0.139 C 
BRANCH  18  19
ATOM     19  C   UNL     1       6.499  -5.820   3.128  0.00  0.00    -0.030 A 
ATOM     20  C   UNL     1       7.235  -6.947   2.735  0.00  0.00    +0.006 A 
ATOM     21  C   UNL     1       8.599  -7.047   3.038  0.00  0.00    +0.016 A 
ATOM     22  C   UNL     1       9.244  -6.016   3.730  0.00  0.00    +0.065 A 
ATOM     23  C   UNL     1       8.511  -4.901   4.147  0.00  0.00    +0.016 A 
ATOM     24  C   UNL     1       7.151  -4.803   3.842  0.00  0.00    +0.006 A 
BRANCH  22  25
ATOM     25  C   UNL     1      10.708  -6.104   4.000  0.00  0.00    +0.308 C 
ATOM     26  N   UNL     1      11.472  -5.061   4.087  0.00  0.00    -0.099 NA
ATOM     27  H   UNL     1      10.952  -4.200   3.900  0.00  0.00    +0.363 HD
ATOM     28  N   UNL     1      11.315  -7.312   4.164  0.00  0.00    -0.247 N 
ATOM     29  H   UNL     1      12.254  -7.191   4.535  0.00  0.00    +0.288 HD
ATOM     30  H   UNL     1      10.785  -8.006   4.682  0.00  0.00    +0.288 HD
ENDBRANCH  22  25
ENDBRANCH  18  19
ENDBRANCH   2  18
TORSDOF 7
