REMARK  Name = 
REMARK  12 active torsions:
REMARK  status: ('A' for Active; 'I' for Inactive)
REMARK    1  A    between atoms: C_1  and  C_2
REMARK    2  A    between atoms: C_2  and  C_3
REMARK    3  A    between atoms: C_2  and  C_4
REMARK    4  A    between atoms: C_8  and  C_9
REMARK    5  A    between atoms: C_9  and  C_10
REMARK    6  A    between atoms: C_9  and  C_11
REMARK    7  A    between atoms: C_12  and  O_13
REMARK    8  A    between atoms: O_13  and  C_14
REMARK    9  A    between atoms: C_14  and  O_15
REMARK   10  A    between atoms: O_15  and  P_16
REMARK   11  A    between atoms: P_16  and  O_17
REMARK   12  A    between atoms: P_16  and  O_18
REMARK                            x       y       z     vdW  Elec       q    Type
REMARK                         _______ _______ _______ _____ _____    ______ ____
ROOT
ATOM      1  C   UNL     1       2.910   1.245  -0.720  0.00  0.00    -0.003 A 
ATOM      2  C   UNL     1       4.028   1.113  -1.605  0.00  0.00    +0.130 A 
ATOM      3  C   UNL     1       4.393   2.185  -2.471  0.00  0.00    -0.003 A 
ATOM      4  C   UNL     1       3.742   3.430  -2.338  0.00  0.00    +0.007 A 
ATOM      5  C   UNL     1       2.735   3.599  -1.407  0.00  0.00    +0.001 A 
ATOM      6  C   UNL     1       2.321   2.529  -0.630  0.00  0.00    +0.007 A 
ENDROOT
BRANCH   1   8
ATOM      7  C   UNL     1       2.970   0.114   1.557  0.00  0.00    +0.012 C 
ATOM      8  C   UNL     1       2.298   0.162   0.184  0.00  0.00    +0.016 C 
ATOM      9  C   UNL     1       0.765   0.214   0.356  0.00  0.00    +0.012 C 
ENDBRANCH   1   8
BRANCH   3  10
ATOM     10  C   UNL     1       5.432   2.116  -3.604  0.00  0.00    +0.016 C 
ATOM     11  C   UNL     1       5.482   0.804  -4.394  0.00  0.00    +0.012 C 
ATOM     12  C   UNL     1       6.830   2.532  -3.141  0.00  0.00    +0.012 C 
ENDBRANCH   3  10
BRANCH   2  13
ATOM     13  O   UNL     1       4.928   0.076  -1.656  0.00  0.00    -0.465 OA
BRANCH  13  14
ATOM     14  C   UNL     1       4.510  -1.218  -1.297  0.00  0.00    +0.406 C 
BRANCH  14  15
ATOM     15  O   UNL     1       5.270  -2.195  -1.944  0.00  0.00    -0.249 OA
BRANCH  15  16
ATOM     16  P   UNL     1       6.959  -2.275  -1.576  0.00  0.00    +0.475 P 
ATOM     17  O   UNL     1       8.470  -2.347  -1.247  0.00  0.00    -0.227 OA
BRANCH  16  18
ATOM     18  O   UNL     1       7.090  -3.014  -3.035  0.00  0.00    -0.303 OA
ATOM     19  H   UNL     1       7.061  -2.355  -3.752  0.00  0.00    +0.222 HD
ENDBRANCH  16  18
BRANCH  16  20
ATOM     20  O   UNL     1       6.532  -3.643  -0.785  0.00  0.00    -0.303 OA
ATOM     21  H   UNL     1       6.360  -4.307  -1.478  0.00  0.00    +0.222 HD
ENDBRANCH  16  20
ENDBRANCH  15  16
ENDBRANCH  14  15
ENDBRANCH  13  14
ENDBRANCH   2  13
TORSDOF 8
