REMARK  Name = 
REMARK  8 active torsions:
REMARK  status: ('A' for Active; 'I' for Inactive)
REMARK    1  A    between atoms: O_1  and  P_2
REMARK    2  A    between atoms: P_2  and  O_3
REMARK    3  A    between atoms: P_2  and  C_5
REMARK    4  A    between atoms: C_5  and  N_6
REMARK    5  A    between atoms: C_5  and  P_13
REMARK    6  A    between atoms: N_6  and  C_7
REMARK    7  A    between atoms: P_13  and  O_14
REMARK    8  A    between atoms: P_13  and  O_15
REMARK                            x       y       z     vdW  Elec       q    Type
REMARK                         _______ _______ _______ _____ _____    ______ ____
ROOT
ATOM      1  C   UNL     1       4.104  -0.028   0.674  0.00  0.00    +0.284 C 
ENDROOT
BRANCH   1   2
ATOM      2  P   UNL     1       5.015  -1.536   1.171  0.00  0.00    +0.356 P 
ATOM      3  O   UNL     1       3.820  -2.445   0.869  0.00  0.00    -0.257 OA
BRANCH   2   4
ATOM      4  O   UNL     1       5.876  -2.961   1.640  0.00  0.00    -0.323 OA
ATOM      5  H   UNL     1       5.329  -3.710   1.311  0.00  0.00    +0.220 HD
ENDBRANCH   2   4
BRANCH   2   6
ATOM      6  O   UNL     1       5.948  -1.535  -0.185  0.00  0.00    -0.323 OA
ATOM      7  H   UNL     1       6.737  -2.096  -0.003  0.00  0.00    +0.220 HD
ENDBRANCH   2   6
ENDBRANCH   1   2
BRANCH   1   8
ATOM      8  P   UNL     1       3.271  -0.132  -0.977  0.00  0.00    +0.356 P 
ATOM      9  O   UNL     1       2.319   0.979  -1.281  0.00  0.00    -0.257 OA
BRANCH   8  10
ATOM     10  O   UNL     1       2.584  -1.578  -1.104  0.00  0.00    -0.323 OA
ATOM     11  H   UNL     1       2.835  -2.217  -0.395  0.00  0.00    +0.220 HD
ENDBRANCH   8  10
BRANCH   8  12
ATOM     12  O   UNL     1       4.498  -0.269  -2.015  0.00  0.00    -0.323 OA
ATOM     13  H   UNL     1       5.234  -0.814  -1.663  0.00  0.00    +0.220 HD
ENDBRANCH   8  12
ENDBRANCH   1   8
BRANCH   1  14
ATOM     14  N   UNL     1       5.064   1.127   0.679  0.00  0.00    -0.291 NA
ATOM     15  H   UNL     1       5.742   0.969  -0.074  0.00  0.00    +0.124 HD
BRANCH  14  16
ATOM     16  C   UNL     1       4.392   2.427   0.386  0.00  0.00    +0.055 C 
ATOM     17  C   UNL     1       5.399   3.592   0.418  0.00  0.00    +0.019 C 
ATOM     18  C   UNL     1       5.831   4.010   1.822  0.00  0.00    +0.002 C 
ATOM     19  C   UNL     1       4.647   4.213   2.768  0.00  0.00    +0.000 C 
ATOM     20  C   UNL     1       3.700   3.020   2.752  0.00  0.00    +0.002 C 
ATOM     21  C   UNL     1       3.219   2.756   1.328  0.00  0.00    +0.019 C 
ENDBRANCH  14  16
ENDBRANCH   1  14
TORSDOF 8
