REMARK  Name = 
REMARK  6 active torsions:
REMARK  status: ('A' for Active; 'I' for Inactive)
REMARK    1  A    between atoms: C_1  and  C_2
REMARK    2  A    between atoms: C_7  and  C_8
REMARK    3  A    between atoms: N_10  and  C_11
REMARK    4  A    between atoms: C_13  and  C_14
REMARK    5  A    between atoms: C_15  and  C_18
REMARK    6  A    between atoms: C_24  and  O_26
REMARK                            x       y       z     vdW  Elec       q    Type
REMARK                         _______ _______ _______ _____ _____    ______ ____
ROOT
ATOM      1  C   UNL     1       0.571  -3.976  -0.402  0.00  0.00    +0.034 A 
ATOM      2  C   UNL     1      -0.744  -3.920  -0.863  0.00  0.00    +0.024 A 
ATOM      3  C   UNL     1      -1.481  -5.094  -1.083  0.00  0.00    +0.015 A 
ATOM      4  C   UNL     1      -0.956  -6.363  -0.789  0.00  0.00    +0.040 A 
ATOM      5  C   UNL     1       0.386  -6.433  -0.357  0.00  0.00    -0.037 A 
ATOM      6  C   UNL     1       1.102  -7.741  -0.135  0.00  0.00    +0.044 C 
ATOM      7  C   UNL     1       1.123  -5.237  -0.160  0.00  0.00    +0.027 A 
ENDROOT
BRANCH   4   8
ATOM      8  C   UNL     1      -1.796  -7.614  -0.985  0.00  0.00    +0.251 C 
ATOM      9  N   UNL     1      -3.182  -7.600  -0.704  0.00  0.00    -0.267 N 
ATOM     10  C   UNL     1      -3.830  -6.588   0.048  0.00  0.00    +0.042 A 
ATOM     11  C   UNL     1      -3.369  -6.258   1.331  0.00  0.00    +0.025 A 
ATOM     12  C   UNL     1      -4.012  -5.263   2.064  0.00  0.00    +0.022 A 
ATOM     13  C   UNL     1      -5.103  -4.594   1.519  0.00  0.00    +0.041 A 
ATOM     14  C   UNL     1      -5.564  -4.919   0.244  0.00  0.00    +0.028 A 
ATOM     15 CL   UNL     1      -5.890  -3.361   2.422  0.00  0.00    -0.084 Cl
ATOM     16  C   UNL     1      -4.945  -5.934  -0.509  0.00  0.00    +0.004 A 
ATOM     17  C   UNL     1      -5.423  -6.300  -1.896  0.00  0.00    +0.146 C 
ATOM     18  C   UNL     1      -6.063  -7.688  -1.886  0.00  0.00    +0.038 C 
ATOM     19  C   UNL     1      -5.029  -8.816  -1.958  0.00  0.00    +0.022 C 
ATOM     20  C   UNL     1      -3.975  -8.838  -0.847  0.00  0.00    +0.114 C 
ATOM     21  O   UNL     1      -1.246  -8.620  -1.423  0.00  0.00    -0.270 OA
BRANCH  17  22
ATOM     22  O   UNL     1      -6.345  -5.329  -2.386  0.00  0.00    -0.387 OA
ATOM     23  H   UNL     1      -7.238  -5.601  -2.130  0.00  0.00    +0.210 HD
ENDBRANCH  17  22
ENDBRANCH   4   8
BRANCH   1  25
ATOM     24  C   UNL     1       2.575  -2.573   0.165  0.00  0.00    +0.249 C 
ATOM     25  N   UNL     1       1.273  -2.749  -0.267  0.00  0.00    -0.281 N 
ATOM     26  H   UNL     1       0.785  -1.932  -0.602  0.00  0.00    +0.155 HD
ATOM     27  O   UNL     1       3.313  -3.469   0.572  0.00  0.00    -0.270 OA
BRANCH  24  30
ATOM     28  C   UNL     1       1.090   0.121   0.852  0.00  0.00    +0.044 C 
ATOM     29  C   UNL     1       2.516   0.017   0.391  0.00  0.00    -0.038 A 
ATOM     30  C   UNL     1       3.163  -1.194   0.071  0.00  0.00    +0.040 A 
ATOM     31  C   UNL     1       4.522  -1.161  -0.310  0.00  0.00    +0.013 A 
ATOM     32  C   UNL     1       5.233   0.037  -0.381  0.00  0.00    +0.001 A 
ATOM     33  C   UNL     1       4.596   1.230  -0.072  0.00  0.00    +0.000 A 
ATOM     34  C   UNL     1       3.252   1.221   0.304  0.00  0.00    +0.004 A 
ENDBRANCH  24  30
ENDBRANCH   1  25
TORSDOF 4
