REMARK  Name = 
REMARK  4 active torsions:
REMARK  status: ('A' for Active; 'I' for Inactive)
REMARK    1  A    between atoms: O_1  and  C_2
REMARK    2  A    between atoms: C_3  and  C_9
REMARK    3  A    between atoms: N_11  and  C_12
REMARK    4  A    between atoms: C_16  and  N_19
REMARK                            x       y       z     vdW  Elec       q    Type
REMARK                         _______ _______ _______ _____ _____    ______ ____
ROOT
ATOM      1  C   UNL     1       2.375   2.560   0.047  0.00  0.00    +0.252 C 
ATOM      2  N   UNL     1       2.993   3.799  -0.029  0.00  0.00    -0.280 N 
ATOM      3  H   UNL     1       3.871   3.918   0.467  0.00  0.00    +0.155 HD
ATOM      4  O   UNL     1       1.160   2.391  -0.029  0.00  0.00    -0.270 OA
ENDROOT
BRANCH   1  11
ATOM      5  C   UNL     1       2.613   0.178   0.770  0.00  0.00    +0.129 A 
ATOM      6  C   UNL     1       3.361  -0.979   0.988  0.00  0.00    +0.047 A 
ATOM      7  C   UNL     1       4.737  -0.963   0.766  0.00  0.00    +0.023 A 
ATOM      8  C   UNL     1       5.353   0.211   0.336  0.00  0.00    +0.042 A 
ATOM      9 CL   UNL     1       7.051   0.223   0.058  0.00  0.00    -0.084 Cl
ATOM     10  C   UNL     1       4.608   1.375   0.112  0.00  0.00    +0.036 A 
ATOM     11  C   UNL     1       3.227   1.366   0.327  0.00  0.00    +0.080 A 
BRANCH   5  12
ATOM     12  O   UNL     1       1.270   0.063   1.011  0.00  0.00    -0.506 OA
ATOM     13  H   UNL     1       0.836   0.900   0.725  0.00  0.00    +0.292 HD
ENDBRANCH   5  12
ENDBRANCH   1  11
BRANCH   2  14
ATOM     14  C   UNL     1       2.274   4.990  -0.302  0.00  0.00    +0.053 A 
ATOM     15  C   UNL     1       1.225   5.004  -1.232  0.00  0.00    +0.031 A 
ATOM     16  C   UNL     1       0.500   6.174  -1.471  0.00  0.00    +0.086 A 
ATOM     17  C   UNL     1       0.823   7.342  -0.765  0.00  0.00    +0.275 A 
ATOM     18  C   UNL     1       1.885   7.352   0.146  0.00  0.00    +0.106 A 
ATOM     19  C   UNL     1       2.621   6.181   0.356  0.00  0.00    +0.069 A 
ATOM     20 CL   UNL     1       3.901   6.210   1.516  0.00  0.00    -0.081 Cl
BRANCH  17  21
ATOM     21  N   UNL     1       0.038   8.563  -0.982  0.00  0.00    +0.080 N 
ATOM     22  O   UNL     1      -0.856   8.529  -1.840  0.00  0.00    +0.041 OA
ATOM     23  O   UNL     1       0.319   9.555  -0.296  0.00  0.00    -0.576 OA
ENDBRANCH  17  21
ENDBRANCH   2  14
TORSDOF 4
