REMARK  Name = 
REMARK  3 active torsions:
REMARK  status: ('A' for Active; 'I' for Inactive)
REMARK    1  A    between atoms: N_4  and  C_5
REMARK    2  A    between atoms: C_8  and  C_9
REMARK    3  A    between atoms: C_9  and  O_10
REMARK                            x       y       z     vdW  Elec       q    Type
REMARK                         _______ _______ _______ _____ _____    ______ ____
ROOT
ATOM      1  C   UNL     1       4.701  -0.998   0.654  0.00  0.00    +0.100 A 
ATOM      2  C   UNL     1       5.443   0.049   1.207  0.00  0.00    +0.042 A 
ATOM      3  C   UNL     1       6.829  -0.048   1.378  0.00  0.00    +0.009 A 
ATOM      4  C   UNL     1       7.522  -1.189   0.959  0.00  0.00    -0.022 A 
ATOM      5  C   UNL     1       6.793  -2.227   0.367  0.00  0.00    +0.009 A 
ATOM      6  C   UNL     1       5.405  -2.125   0.205  0.00  0.00    +0.042 A 
ENDROOT
BRANCH   1  11
ATOM      7  N   UNL     1       1.141  -0.398   0.804  0.00  0.00    -0.289 N 
ATOM      8  H   UNL     1       1.055  -0.483  -0.203  0.00  0.00    +0.255 HD
ATOM      9  H   UNL     1       0.484   0.289   1.155  0.00  0.00    +0.255 HD
ATOM     10  C   UNL     1       2.416  -0.205   1.218  0.00  0.00    +0.381 C 
ATOM     11  N   UNL     1       3.299  -0.949   0.491  0.00  0.00    -0.244 N 
ATOM     12  H   UNL     1       2.910  -1.815   0.149  0.00  0.00    +0.265 HD
ATOM     13  N   UNL     1       2.672   0.592   2.193  0.00  0.00    -0.129 NA
ATOM     14  H   UNL     1       1.811   0.980   2.574  0.00  0.00    +0.306 HD
ENDBRANCH   1  11
BRANCH   4  15
ATOM     15  C   UNL     1       8.998  -1.347   1.218  0.00  0.00    +0.191 C 
BRANCH  15  16
ATOM     16  O   UNL     1       9.698  -0.114   1.111  0.00  0.00    -0.390 OA
ATOM     17  H   UNL     1       9.370   0.326   0.308  0.00  0.00    +0.210 HD
ENDBRANCH  15  16
ENDBRANCH   4  15
TORSDOF 3
