REMARK  Name = 
REMARK  5 active torsions:
REMARK  status: ('A' for Active; 'I' for Inactive)
REMARK    1  A    between atoms: O_1  and  C_2
REMARK    2  A    between atoms: C_6  and  C_7
REMARK    3  A    between atoms: N_8  and  N_9
REMARK    4  A    between atoms: C_10  and  C_12
REMARK    5  A    between atoms: C_19  and  O_20
REMARK                            x       y       z     vdW  Elec       q    Type
REMARK                         _______ _______ _______ _____ _____    ______ ____
ROOT
ATOM      1  C   UNL     1       6.800   0.015   0.103  0.00  0.00    +0.142 C 
ATOM      2  N   UNL     1       7.488  -1.076   0.185  0.00  0.00    -0.187 NA
ENDROOT
BRANCH   1   7
ATOM      3  C   UNL     1       2.519  -0.038   0.060  0.00  0.00    +0.148 A 
ATOM      4  C   UNL     1       3.212  -1.254   0.108  0.00  0.00    +0.102 A 
ATOM      5 BR   UNL     1       2.246  -2.896   0.154  0.00  0.00    -0.043 Br
ATOM      6  C   UNL     1       4.616  -1.258   0.122  0.00  0.00    +0.143 A 
ATOM      7  C   UNL     1       5.320  -0.041   0.088  0.00  0.00    +0.038 A 
ATOM      8  C   UNL     1       4.625   1.172   0.036  0.00  0.00    +0.032 A 
ATOM      9  C   UNL     1       3.229   1.167   0.024  0.00  0.00    +0.061 A 
ATOM     10 BR   UNL     1       2.314   2.828  -0.042  0.00  0.00    -0.046 Br
BRANCH   3  11
ATOM     11  O   UNL     1       1.148  -0.040   0.049  0.00  0.00    -0.504 OA
ATOM     12  H   UNL     1       0.835   0.882   0.021  0.00  0.00    +0.292 HD
ENDBRANCH   3  11
BRANCH   6  13
ATOM     13  O   UNL     1       5.264  -2.467   0.167  0.00  0.00    -0.505 OA
ATOM     14  H   UNL     1       6.239  -2.326   0.187  0.00  0.00    +0.292 HD
ENDBRANCH   6  13
ENDBRANCH   1   7
BRANCH   2  15
ATOM     15  N   UNL     1       8.845  -0.964   0.179  0.00  0.00    -0.203 N 
ATOM     16  H   UNL     1       9.274  -0.060   0.028  0.00  0.00    +0.178 HD
ATOM     17  C   UNL     1       9.594  -2.134   0.200  0.00  0.00    +0.263 C 
ATOM     18  O   UNL     1       9.113  -3.264   0.246  0.00  0.00    -0.268 OA
BRANCH  17  19
ATOM     19  C   UNL     1      11.073  -1.982   0.116  0.00  0.00    +0.038 A 
ATOM     20  C   UNL     1      11.805  -3.024  -0.475  0.00  0.00    +0.014 A 
ATOM     21  C   UNL     1      13.195  -2.942  -0.582  0.00  0.00    +0.021 A 
ATOM     22  C   UNL     1      13.858  -1.822  -0.087  0.00  0.00    +0.041 A 
ATOM     23 CL   UNL     1      15.570  -1.714  -0.222  0.00  0.00    -0.084 Cl
ATOM     24  C   UNL     1      13.144  -0.790   0.522  0.00  0.00    +0.021 A 
ATOM     25  C   UNL     1      11.750  -0.868   0.629  0.00  0.00    +0.014 A 
ENDBRANCH  17  19
ENDBRANCH   2  15
TORSDOF 5
