REMARK  Name = 
REMARK  7 active torsions:
REMARK  status: ('A' for Active; 'I' for Inactive)
REMARK    1  A    between atoms: C_2  and  C_19
REMARK    2  A    between atoms: C_7  and  C_9
REMARK    3  A    between atoms: C_9  and  N_10
REMARK    4  A    between atoms: N_10  and  C_11
REMARK    5  A    between atoms: N_21  and  C_22
REMARK    6  A    between atoms: C_22  and  C_23
REMARK    7  A    between atoms: C_26  and  C_29
REMARK                            x       y       z     vdW  Elec       q    Type
REMARK                         _______ _______ _______ _____ _____    ______ ____
ROOT
ATOM      1  C   UNL     1       2.111   0.032  -0.032  0.00  0.00    +0.162 C 
ATOM      2  N   UNL     1       2.687  -1.176   0.581  0.00  0.00    -0.289 N 
ATOM      3  C   UNL     1       2.187  -2.466   0.567  0.00  0.00    +0.230 C 
ATOM      4  O   UNL     1       2.711  -3.367   1.228  0.00  0.00    -0.274 OA
ATOM      5  C   UNL     1       3.760  -0.827   1.503  0.00  0.00    +0.108 C 
ATOM      6  C   UNL     1       3.962   0.674   1.343  0.00  0.00    +0.021 C 
ATOM      7  C   UNL     1       2.596   1.164   0.880  0.00  0.00    +0.033 C 
ENDROOT
BRANCH   1   8
ATOM      8  C   UNL     1       2.552   0.280  -1.497  0.00  0.00    +0.234 C 
ATOM      9  N   UNL     1       2.905  -0.842  -2.206  0.00  0.00    -0.310 N 
ATOM     10  H   UNL     1       2.942  -1.735  -1.740  0.00  0.00    +0.149 HD
ATOM     11  O   UNL     1       2.472   1.385  -2.028  0.00  0.00    -0.274 OA
BRANCH   9  12
ATOM     12  C   UNL     1       3.315  -0.797  -3.592  0.00  0.00    +0.139 C 
BRANCH  12  13
ATOM     13  C   UNL     1       4.206  -1.971  -3.911  0.00  0.00    -0.030 A 
ATOM     14  C   UNL     1       5.388  -2.181  -3.181  0.00  0.00    +0.006 A 
ATOM     15  C   UNL     1       6.198  -3.290  -3.436  0.00  0.00    +0.016 A 
ATOM     16  C   UNL     1       5.842  -4.198  -4.436  0.00  0.00    +0.065 A 
ATOM     17  C   UNL     1       4.686  -3.976  -5.193  0.00  0.00    +0.016 A 
ATOM     18  C   UNL     1       3.873  -2.871  -4.932  0.00  0.00    +0.006 A 
BRANCH  16  19
ATOM     19  C   UNL     1       6.695  -5.399  -4.678  0.00  0.00    +0.308 C 
ATOM     20  N   UNL     1       6.225  -6.519  -5.126  0.00  0.00    -0.099 NA
ATOM     21  H   UNL     1       5.208  -6.483  -5.233  0.00  0.00    +0.363 HD
ATOM     22  N   UNL     1       8.034  -5.360  -4.430  0.00  0.00    -0.247 N 
ATOM     23  H   UNL     1       8.494  -6.177  -4.822  0.00  0.00    +0.288 HD
ATOM     24  H   UNL     1       8.508  -4.497  -4.665  0.00  0.00    +0.288 HD
ENDBRANCH  16  19
ENDBRANCH  12  13
ENDBRANCH   9  12
ENDBRANCH   1   8
BRANCH   3  25
ATOM     25  C   UNL     1       0.993  -2.769  -0.362  0.00  0.00    +0.178 C 
BRANCH  25  26
ATOM     26  N   UNL     1       0.063  -3.764   0.194  0.00  0.00    -0.305 NA
ATOM     27  H   UNL     1       0.605  -4.622   0.335  0.00  0.00    +0.123 HD
BRANCH  26  28
ATOM     28  C   UNL     1      -0.543  -3.408   1.496  0.00  0.00    +0.054 C 
ATOM     29  C   UNL     1      -1.404  -4.623   1.893  0.00  0.00    +0.019 C 
ATOM     30  C   UNL     1      -2.013  -4.625   3.295  0.00  0.00    +0.002 C 
ATOM     31  C   UNL     1      -1.052  -4.210   4.409  0.00  0.00    +0.000 C 
ATOM     32  C   UNL     1      -1.236  -2.778   4.917  0.00  0.00    +0.000 C 
ATOM     33  C   UNL     1      -0.921  -1.638   3.944  0.00  0.00    +0.000 C 
ATOM     34  C   UNL     1      -1.880  -1.535   2.756  0.00  0.00    +0.002 C 
ATOM     35  C   UNL     1      -1.340  -2.092   1.434  0.00  0.00    +0.019 C 
ENDBRANCH  26  28
ENDBRANCH  25  26
ENDBRANCH   3  25
TORSDOF 7
