REMARK  Name = 
REMARK  4 active torsions:
REMARK  status: ('A' for Active; 'I' for Inactive)
REMARK    1  A    between atoms: O_1  and  C_2
REMARK    2  A    between atoms: C_8  and  C_11
REMARK    3  A    between atoms: C_12  and  O_13
REMARK    4  A    between atoms: C_15  and  O_16
REMARK                            x       y       z     vdW  Elec       q    Type
REMARK                         _______ _______ _______ _____ _____    ______ ____
ROOT
ATOM      1  C   UNL     1       2.347  -0.242  -0.054  0.00  0.00    +0.120 A 
ATOM      2  C   UNL     1       2.885   1.035  -0.185  0.00  0.00    +0.046 A 
ATOM      3  C   UNL     1       4.274   1.231  -0.201  0.00  0.00    +0.017 A 
ATOM      4  C   UNL     1       5.120   0.108  -0.102  0.00  0.00    +0.049 A 
ATOM      5  C   UNL     1       6.526  -0.167  -0.055  0.00  0.00    +0.125 A 
ATOM      6  N   UNL     1       6.737  -1.491   0.081  0.00  0.00    -0.077 NA
ATOM      7  O   UNL     1       5.494  -2.086   0.125  0.00  0.00    -0.354 OA
ATOM      8  C   UNL     1       4.529  -1.138   0.025  0.00  0.00    +0.171 A 
ATOM      9  C   UNL     1       3.154  -1.373   0.057  0.00  0.00    +0.095 A 
ENDROOT
BRANCH   5  10
ATOM     10  C   UNL     1       7.662   0.764  -0.073  0.00  0.00    +0.046 A 
ATOM     11  C   UNL     1       7.571   1.984  -0.758  0.00  0.00    +0.017 A 
ATOM     12  C   UNL     1       8.610   2.921  -0.699  0.00  0.00    +0.046 A 
ATOM     13  C   UNL     1       9.752   2.641   0.041  0.00  0.00    +0.120 A 
ATOM     14  C   UNL     1       9.891   1.424   0.692  0.00  0.00    +0.091 A 
ATOM     15  C   UNL     1       8.859   0.488   0.617  0.00  0.00    +0.130 A 
BRANCH  13  16
ATOM     16  O   UNL     1      10.724   3.595   0.095  0.00  0.00    -0.507 OA
ATOM     17  H   UNL     1      11.431   3.282   0.684  0.00  0.00    +0.292 HD
ENDBRANCH  13  16
BRANCH  15  18
ATOM     18  O   UNL     1       9.099  -0.703   1.254  0.00  0.00    -0.506 OA
ATOM     19  H   UNL     1       8.418  -1.342   0.956  0.00  0.00    +0.292 HD
ENDBRANCH  15  18
ENDBRANCH   5  10
BRANCH   1  20
ATOM     20  O   UNL     1       0.986  -0.346  -0.028  0.00  0.00    -0.507 OA
ATOM     21  H   UNL     1       0.740  -1.277   0.106  0.00  0.00    +0.292 HD
ENDBRANCH   1  20
TORSDOF 4
