REMARK  Name = 
REMARK  8 active torsions:
REMARK  status: ('A' for Active; 'I' for Inactive)
REMARK    1  A    between atoms: C_1  and  N_2
REMARK    2  A    between atoms: N_2  and  C_3
REMARK    3  A    between atoms: N_2  and  C_4
REMARK    4  A    between atoms: C_4  and  C_5
REMARK    5  A    between atoms: C_5  and  C_6
REMARK    6  A    between atoms: C_5  and  C_13
REMARK    7  A    between atoms: C_9  and  O_10
REMARK    8  A    between atoms: C_13  and  O_14
REMARK                            x       y       z     vdW  Elec       q    Type
REMARK                         _______ _______ _______ _____ _____    ______ ____
ROOT
ATOM      1  C   UNL     1       4.449  -1.084   0.604  0.00  0.00    +0.065 C 
ENDROOT
BRANCH   1   2
ATOM      2  C   UNL     1       5.144  -2.469   0.983  0.00  0.00    +0.074 C 
ATOM      3  C   UNL     1       6.691  -2.421   0.911  0.00  0.00    +0.035 C 
ATOM      4  C   UNL     1       7.213  -2.297  -0.523  0.00  0.00    +0.003 C 
ATOM      5  C   UNL     1       6.749  -3.471  -1.373  0.00  0.00    +0.000 C 
ATOM      6  C   UNL     1       5.234  -3.638  -1.325  0.00  0.00    +0.003 C 
ATOM      7  C   UNL     1       4.707  -3.676   0.108  0.00  0.00    +0.035 C 
BRANCH   2   8
ATOM      8  O   UNL     1       4.806  -2.815   2.340  0.00  0.00    -0.388 OA
ATOM      9  H   UNL     1       3.881  -3.106   2.376  0.00  0.00    +0.210 HD
ENDBRANCH   2   8
ENDBRANCH   1   2
BRANCH   1  10
ATOM     10  C   UNL     1       5.008   0.077   1.453  0.00  0.00    -0.040 A 
ATOM     11  C   UNL     1       6.145   0.780   1.013  0.00  0.00    +0.007 A 
ATOM     12  C   UNL     1       6.796   1.698   1.843  0.00  0.00    +0.045 A 
ATOM     13  C   UNL     1       6.291   1.961   3.106  0.00  0.00    +0.117 A 
ATOM     14  C   UNL     1       5.122   1.345   3.539  0.00  0.00    +0.045 A 
ATOM     15  C   UNL     1       4.493   0.401   2.721  0.00  0.00    +0.007 A 
BRANCH  13  16
ATOM     16  O   UNL     1       6.980   2.824   3.904  0.00  0.00    -0.507 OA
ATOM     17  H   UNL     1       6.577   2.809   4.787  0.00  0.00    +0.292 HD
ENDBRANCH  13  16
ENDBRANCH   1  10
BRANCH   1  18
ATOM     18  C   UNL     1       2.886  -1.191   0.654  0.00  0.00    +0.094 C 
BRANCH  18  20
ATOM     19  C   UNL     1       2.317   0.264  -1.214  0.00  0.00    +0.104 C 
ATOM     20  N   UNL     1       2.101  -0.016   0.198  0.00  0.00    -0.308 NA
ATOM     21  C   UNL     1       0.673  -0.248   0.459  0.00  0.00    +0.104 C 
ENDBRANCH  18  20
ENDBRANCH   1  18
TORSDOF 6
