REMARK  Name = 
REMARK  17 active torsions:
REMARK  status: ('A' for Active; 'I' for Inactive)
REMARK    1  A    between atoms: C_2  and  O_3
REMARK    2  A    between atoms: C_2  and  C_4
REMARK    3  A    between atoms: C_2  and  C_9
REMARK    4  A    between atoms: C_4  and  C_5
REMARK    5  A    between atoms: C_5  and  C_6
REMARK    6  A    between atoms: C_6  and  C_7
REMARK    7  A    between atoms: C_7  and  C_8
REMARK    8  A    between atoms: C_10  and  C_11
REMARK    9  A    between atoms: C_12  and  C_13
REMARK   10  A    between atoms: C_13  and  C_14
REMARK   11  A    between atoms: C_14  and  C_15
REMARK   12  A    between atoms: C_15  and  C_16
REMARK   13  A    between atoms: C_16  and  C_17
REMARK   14  A    between atoms: C_17  and  C_18
REMARK   15  A    between atoms: C_18  and  C_19
REMARK   16  A    between atoms: C_19  and  C_20
REMARK   17  A    between atoms: C_20  and  O_21
REMARK                            x       y       z     vdW  Elec       q    Type
REMARK                         _______ _______ _______ _____ _____    ______ ____
ROOT
ATOM      1  C   UNL     1       4.284   0.257  -3.101  0.00  0.00    -0.004 C 
ATOM      2  C   UNL     1       5.604   0.232  -3.353  0.00  0.00    -0.027 C 
ENDROOT
BRANCH   1   4
ATOM      3  C   UNL     1       2.415   0.204  -1.493  0.00  0.00    +0.004 C 
ATOM      4  C   UNL     1       3.726   0.184  -1.772  0.00  0.00    -0.002 C 
BRANCH   3   5
ATOM      5  C   UNL     1       1.903   0.054  -0.089  0.00  0.00    +0.137 C 
BRANCH   5   6
ATOM      6  O   UNL     1       1.148   1.215   0.236  0.00  0.00    -0.388 OA
ATOM      7  H   UNL     1       0.401   1.264  -0.383  0.00  0.00    +0.210 HD
ENDBRANCH   5   6
BRANCH   5   8
ATOM      8  C   UNL     1       1.022  -1.187   0.096  0.00  0.00    +0.035 C 
BRANCH   8   9
ATOM      9  C   UNL     1       1.756  -2.498  -0.199  0.00  0.00    +0.003 C 
BRANCH   9  10
ATOM     10  C   UNL     1       0.840  -3.702   0.017  0.00  0.00    -0.000 C 
BRANCH  10  11
ATOM     11  C   UNL     1       1.561  -5.011  -0.300  0.00  0.00    -0.003 C 
ATOM     12  C   UNL     1       0.647  -6.209  -0.098  0.00  0.00    +0.004 C 
ENDBRANCH  10  11
ENDBRANCH   9  10
ENDBRANCH   8   9
ENDBRANCH   5   8
ENDBRANCH   3   5
ENDBRANCH   1   4
BRANCH   2  13
ATOM     13  C   UNL     1       6.664   0.144  -2.290  0.00  0.00    +0.027 C 
BRANCH  13  14
ATOM     14  C   UNL     1       8.088   0.145  -2.840  0.00  0.00    +0.004 C 
BRANCH  14  15
ATOM     15  C   UNL     1       9.091   0.063  -1.688  0.00  0.00    +0.000 C 
BRANCH  15  16
ATOM     16  C   UNL     1      10.527   0.063  -2.202  0.00  0.00    +0.000 C 
BRANCH  16  17
ATOM     17  C   UNL     1      11.529  -0.019  -1.051  0.00  0.00    +0.001 C 
BRANCH  17  18
ATOM     18  C   UNL     1      12.961  -0.018  -1.584  0.00  0.00    +0.011 C 
BRANCH  18  19
ATOM     19  C   UNL     1      13.984  -0.099  -0.454  0.00  0.00    +0.120 C 
BRANCH  19  20
ATOM     20  C   UNL     1      15.401  -0.096  -0.985  0.00  0.00    +0.305 C 
ATOM     21  O   UNL     1      15.717  -0.041  -2.163  0.00  0.00    -0.251 OA
BRANCH  20  22
ATOM     22  O   UNL     1      16.318  -0.170   0.006  0.00  0.00    -0.481 OA
ATOM     23  H   UNL     1      15.930  -0.209   0.900  0.00  0.00    +0.295 HD
ENDBRANCH  20  22
ENDBRANCH  19  20
ENDBRANCH  18  19
ENDBRANCH  17  18
ENDBRANCH  16  17
ENDBRANCH  15  16
ENDBRANCH  14  15
ENDBRANCH  13  14
ENDBRANCH   2  13
TORSDOF 16
