REMARK  Name = 
REMARK  34 active torsions:
REMARK  status: ('A' for Active; 'I' for Inactive)
REMARK    1  A    between atoms: C_4  and  C_85
REMARK    2  A    between atoms: C_6  and  C_8
REMARK    3  A    between atoms: C_18  and  CA_20
REMARK    4  A    between atoms: CA_20  and  CB_22
REMARK    5  A    between atoms: CA_20  and  N_24
REMARK    6  A    between atoms: CB_22  and  OG_23
REMARK    7  A    between atoms: C_25  and  C_27
REMARK    8  A    between atoms: C_27  and  C_29
REMARK    9  A    between atoms: C_27  and  N_35
REMARK   10  A    between atoms: C_29  and  C_30
REMARK   11  A    between atoms: C_36  and  CA_38
REMARK   12  A    between atoms: CA_38  and  N_39
REMARK   13  A    between atoms: C_40  and  CA_42
REMARK   14  A    between atoms: CG_44  and  OD_46
REMARK   15  A    between atoms: C_49  and  CA_51
REMARK   16  A    between atoms: C_56  and  CA_58
REMARK   17  A    between atoms: CA_58  and  CB_59
REMARK   18  A    between atoms: CA_58  and  N_66
REMARK   19  A    between atoms: CB_59  and  CG_60
REMARK   20  A    between atoms: CG_60  and  CD_61
REMARK   21  A    between atoms: CD_61  and  NE_62
REMARK   22  A    between atoms: C_67  and  CA_69
REMARK   23  A    between atoms: CA_69  and  N_71
REMARK   24  A    between atoms: CA_69  and  CB_72
REMARK   25  A    between atoms: CB_72  and  CG_73
REMARK   26  A    between atoms: CG_73  and  CD_74
REMARK   27  A    between atoms: CD_74  and  NE_75
REMARK   28  A    between atoms: N_87  and  CA_88
REMARK   29  A    between atoms: CA_88  and  CB_90
REMARK   30  A    between atoms: CA_88  and  C_97
REMARK   31  A    between atoms: CB_90  and  CG_91
REMARK   32  A    between atoms: CG_91  and  CD_92
REMARK   33  A    between atoms: CD_92  and  NE_93
REMARK   34  A    between atoms: C_97  and  O_98
REMARK                            x       y       z     vdW  Elec       q    Type
REMARK                         _______ _______ _______ _____ _____    ______ ____
ROOT
ATOM      1  C   UNK A   6      -3.778  -4.190   6.989  0.00  0.00    +0.164 C 
ENDROOT
BRANCH   1   4
ATOM      2  N   SER A   7      -6.020  -3.560   6.187  0.00  0.00    -0.301 N 
ATOM      3  H   SER A   7      -6.218  -4.558   6.227  0.00  0.00    +0.150 HD
ATOM      4  C   UNK A   6      -4.814  -3.098   6.669  0.00  0.00    +0.234 C 
ATOM      5  O   UNK A   6      -4.512  -1.906   6.702  0.00  0.00    -0.274 OA
BRANCH   2   6
ATOM      6  CA  SER A   7      -7.198  -2.694   6.017  0.00  0.00    +0.185 C 
BRANCH   6   9
ATOM      7  C   UNK A   8      -7.510  -2.823   2.884  0.00  0.00    +0.167 C 
ATOM      8  N   UNK A   8      -6.651  -1.951   3.725  0.00  0.00    -0.284 N 
ATOM      9  C   SER A   7      -6.925  -1.550   5.030  0.00  0.00    +0.239 C 
ATOM     10  O   SER A   7      -6.765  -0.391   5.409  0.00  0.00    -0.273 OA
ATOM     11  C   UNK A   8      -5.730  -1.099   2.965  0.00  0.00    +0.144 C 
ATOM     12  C   UNK A   8      -6.360  -0.453   1.754  0.00  0.00    -0.027 A 
ATOM     13  C   UNK A   8      -7.616  -0.865   1.271  0.00  0.00    -0.040 A 
ATOM     14  C   UNK A   8      -8.190  -0.190   0.186  0.00  0.00    +0.004 A 
ATOM     15  C   UNK A   8      -7.504   0.844  -0.450  0.00  0.00    +0.000 A 
ATOM     16  C   UNK A   8      -6.229   1.202  -0.023  0.00  0.00    +0.000 A 
ATOM     17  C   UNK A   8      -5.659   0.559   1.075  0.00  0.00    +0.005 A 
ATOM     18  C   UNK A   8      -8.360  -2.027   1.889  0.00  0.00    +0.067 C 
BRANCH   7  26
ATOM     19  C   UNK A   9      -6.740  -7.092   1.870  0.00  0.00    +0.012 C 
ATOM     20  C   UNK A   9      -5.610  -7.063   2.904  0.00  0.00    +0.005 C 
ATOM     21  C   UNK A   9      -4.507  -6.163   2.452  0.00  0.00    +0.000 C 
ATOM     22  C   UNK A   9      -4.945  -4.770   2.033  0.00  0.00    +0.002 C 
ATOM     23  C   UNK A   9      -6.065  -4.878   1.006  0.00  0.00    +0.023 C 
ATOM     24  C   UNK A   9      -7.233  -5.683   1.570  0.00  0.00    +0.080 C 
ATOM     25  N   UNK A   9      -7.881  -5.365   2.856  0.00  0.00    -0.285 N 
ATOM     26  C   UNK A   8      -8.301  -4.119   3.304  0.00  0.00    +0.237 C 
ATOM     27  O   UNK A   8      -9.272  -4.037   4.057  0.00  0.00    -0.274 OA
ATOM     28  C   UNK A   9      -8.504  -6.625   3.404  0.00  0.00    +0.163 C 
ATOM     29  C   UNK A   9      -7.950  -7.750   2.492  0.00  0.00    +0.037 C 
BRANCH  28  30
ATOM     30  C   UNK A   9      -8.183  -7.026   4.887  0.00  0.00    +0.234 C 
ATOM     31  N   ARG A  10      -8.707  -8.273   5.262  0.00  0.00    -0.301 N 
ATOM     32  H   ARG A  10      -9.529  -8.580   4.750  0.00  0.00    +0.150 HD
ATOM     33  O   UNK A   9      -7.489  -6.343   5.638  0.00  0.00    -0.274 OA
BRANCH  31  34
ATOM     34  CA  ARG A  10      -8.545  -8.784   6.642  0.00  0.00    +0.182 C 
BRANCH  34  35
ATOM     35  C   ARG A  10      -8.232 -10.291   6.761  0.00  0.00    +0.325 C 
ATOM     36  OXT ARG A  10      -8.077 -10.883   7.818  0.00  0.00    -0.249 OA
BRANCH  35  37
ATOM     37  O   ARG A  10      -8.191 -10.942   5.573  0.00  0.00    -0.479 OA
ATOM     38  H   ARG A  10      -8.328 -10.331   4.826  0.00  0.00    +0.295 HD
ENDBRANCH  35  37
ENDBRANCH  34  35
BRANCH  34  39
ATOM     39  CB  ARG A  10      -9.752  -8.400   7.515  0.00  0.00    +0.037 C 
BRANCH  39  40
ATOM     40  CG  ARG A  10     -11.137  -8.860   7.021  0.00  0.00    +0.043 C 
BRANCH  40  41
ATOM     41  CD  ARG A  10     -11.340 -10.375   6.999  0.00  0.00    +0.243 C 
BRANCH  41  42
ATOM     42  NE  ARG A  10     -12.692 -10.666   6.527  0.00  0.00    -0.114 NA
ATOM     43  CZ  ARG A  10     -13.004 -11.903   6.380  0.00  0.00    +0.376 C 
ATOM     44  NH2 ARG A  10     -14.250 -12.227   5.976  0.00  0.00    -0.289 N 
ATOM     45 HH21 ARG A  10     -14.327 -12.995   5.327  0.00  0.00    +0.255 HD
ATOM     46 HH22 ARG A  10     -14.759 -11.406   5.666  0.00  0.00    +0.255 HD
ATOM     47  NH1 ARG A  10     -12.256 -13.004   6.604  0.00  0.00    -0.289 N 
ATOM     48 HH11 ARG A  10     -12.510 -13.866   6.147  0.00  0.00    +0.255 HD
ATOM     49 HH12 ARG A  10     -11.263 -12.890   6.757  0.00  0.00    +0.255 HD
ENDBRANCH  41  42
ENDBRANCH  40  41
ENDBRANCH  39  40
ENDBRANCH  34  39
ENDBRANCH  31  34
ENDBRANCH  28  30
ENDBRANCH   7  26
ENDBRANCH   6   9
BRANCH   6  50
ATOM     50  CB  SER A   7      -7.843  -2.210   7.316  0.00  0.00    +0.187 C 
BRANCH  50  51
ATOM     51  OG  SER A   7      -8.483  -3.306   7.994  0.00  0.00    -0.393 OA
ATOM     52  H   SER A   7      -9.120  -3.719   7.369  0.00  0.00    +0.209 HD
ENDBRANCH  50  51
ENDBRANCH   6  50
ENDBRANCH   2   6
ENDBRANCH   1   4
BRANCH   1  53
ATOM     53  N   UNK A   6      -2.742  -4.117   5.932  0.00  0.00    -0.302 N 
ATOM     54  H   UNK A   6      -2.572  -3.201   5.531  0.00  0.00    +0.150 HD
ATOM     55  C   GLY A   5      -1.835  -5.143   5.751  0.00  0.00    +0.231 C 
ATOM     56  O   GLY A   5      -1.848  -6.146   6.464  0.00  0.00    -0.274 OA
BRANCH  55  57
ATOM     57  CA  GLY A   5      -0.795  -4.958   4.626  0.00  0.00    +0.200 C 
BRANCH  57  58
ATOM     58  N   GLY A   5      -1.291  -5.045   3.264  0.00  0.00    -0.305 N 
ATOM     59  H   GLY A   5      -1.542  -4.163   2.823  0.00  0.00    +0.149 HD
ATOM     60  C   HYP A   4      -1.367  -6.246   2.517  0.00  0.00    +0.234 C 
ATOM     61  O   HYP A   4      -1.069  -7.351   2.966  0.00  0.00    -0.274 OA
BRANCH  60  62
ATOM     62  CA  HYP A   4      -1.906  -6.071   1.034  0.00  0.00    +0.164 C 
ATOM     63  N   HYP A   4      -2.293  -7.075  -0.079  0.00  0.00    -0.286 N 
ATOM     64  C   PRO A   3      -3.292  -8.076  -0.333  0.00  0.00    +0.237 C 
ATOM     65  O   PRO A   3      -3.654  -8.140  -1.530  0.00  0.00    -0.274 OA
ATOM     66  CD  HYP A   4      -1.984  -6.359  -1.348  0.00  0.00    +0.140 C 
ATOM     67  CG  HYP A   4      -1.518  -4.946  -1.029  0.00  0.00    +0.134 C 
ATOM     68  CB  HYP A   4      -0.936  -5.081   0.350  0.00  0.00    +0.065 C 
BRANCH  64  69
ATOM     69  CA  PRO A   3      -3.879  -9.361   0.490  0.00  0.00    +0.162 C 
ATOM     70  N   PRO A   3      -5.374  -9.845   0.480  0.00  0.00    -0.288 N 
ATOM     71  C   ARG A   2      -6.301  -9.751  -0.584  0.00  0.00    +0.237 C 
ATOM     72  O   ARG A   2      -6.045  -9.078  -1.579  0.00  0.00    -0.274 OA
ATOM     73  CD  PRO A   3      -5.577 -10.837   1.522  0.00  0.00    +0.109 C 
ATOM     74  CG  PRO A   3      -4.249 -10.969   2.257  0.00  0.00    +0.021 C 
ATOM     75  CB  PRO A   3      -3.414  -9.724   1.899  0.00  0.00    +0.033 C 
BRANCH  71  76
ATOM     76  CA  ARG A   2      -7.740 -10.517  -0.515  0.00  0.00    +0.159 C 
BRANCH  76  77
ATOM     77  N   ARG A   2      -7.694 -11.924  -1.002  0.00  0.00    -0.303 N 
ATOM     78  H   ARG A   2      -7.267 -12.081  -1.905  0.00  0.00    +0.149 HD
ATOM     79  C   ARG A   1      -8.376 -12.986  -0.394  0.00  0.00    +0.230 C 
ATOM     80  O   ARG A   1      -8.931 -12.860   0.698  0.00  0.00    -0.274 OA
BRANCH  79  81
ATOM     81  CA  ARG A   1      -8.319 -14.359  -1.179  0.00  0.00    +0.138 C 
BRANCH  81  82
ATOM     82  N   ARG A   1      -8.937 -14.172  -2.505  0.00  0.00    -0.320 NA
ATOM     83  H1  ARG A   1      -8.483 -13.427  -3.021  0.00  0.00    +0.119 HD
ATOM     84  H2  ARG A   1      -8.826 -15.019  -3.062  0.00  0.00    +0.119 HD
ENDBRANCH  81  82
BRANCH  81  85
ATOM     85  CB  ARG A   1      -9.007 -15.554  -0.450  0.00  0.00    +0.031 C 
BRANCH  85  86
ATOM     86  CG  ARG A   1      -8.847 -16.912  -1.181  0.00  0.00    +0.043 C 
BRANCH  86  87
ATOM     87  CD  ARG A   1      -9.505 -18.099  -0.456  0.00  0.00    +0.243 C 
BRANCH  87  88
ATOM     88  NE  ARG A   1      -9.311 -19.301  -1.275  0.00  0.00    -0.114 NA
ATOM     89  CZ  ARG A   1      -9.817 -20.416  -0.891  0.00  0.00    +0.376 C 
ATOM     90  NH2 ARG A   1      -9.712 -21.504  -1.679  0.00  0.00    -0.289 N 
ATOM     91 HH21 ARG A   1      -9.569 -22.395  -1.226  0.00  0.00    +0.255 HD
ATOM     92 HH22 ARG A   1      -9.073 -21.357  -2.452  0.00  0.00    +0.255 HD
ATOM     93  NH1 ARG A   1     -10.502 -20.684   0.238  0.00  0.00    -0.289 N 
ATOM     94 HH11 ARG A   1     -10.468 -21.631   0.582  0.00  0.00    +0.255 HD
ATOM     95 HH12 ARG A   1     -10.462 -19.991   0.967  0.00  0.00    +0.255 HD
ENDBRANCH  87  88
ENDBRANCH  86  87
ENDBRANCH  85  86
ENDBRANCH  81  85
ENDBRANCH  79  81
ENDBRANCH  76  77
BRANCH  76  96
ATOM     96  CB  ARG A   2      -8.937  -9.716  -1.217  0.00  0.00    +0.035 C 
BRANCH  96  97
ATOM     97  CG  ARG A   2      -8.827  -9.472  -2.744  0.00  0.00    +0.043 C 
BRANCH  97  98
ATOM     98  CD  ARG A   2      -9.783  -8.478  -3.458  0.00  0.00    +0.243 C 
BRANCH  98  99
ATOM     99  NE  ARG A   2     -11.186  -8.895  -3.612  0.00  0.00    -0.114 NA
ATOM    100  CZ  ARG A   2     -11.931  -8.123  -4.327  0.00  0.00    +0.376 C 
ATOM    101  NH2 ARG A   2     -13.234  -8.406  -4.582  0.00  0.00    -0.289 N 
ATOM    102 HH21 ARG A   2     -13.847  -7.599  -4.564  0.00  0.00    +0.255 HD
ATOM    103 HH22 ARG A   2     -13.582  -9.154  -3.994  0.00  0.00    +0.255 HD
ATOM    104  NH1 ARG A   2     -11.631  -6.955  -4.957  0.00  0.00    -0.289 N 
ATOM    105 HH11 ARG A   2     -12.162  -6.805  -5.807  0.00  0.00    +0.255 HD
ATOM    106 HH12 ARG A   2     -10.646  -6.797  -5.114  0.00  0.00    +0.255 HD
ENDBRANCH  98  99
ENDBRANCH  97  98
ENDBRANCH  96  97
ENDBRANCH  76  96
ENDBRANCH  71  76
ENDBRANCH  64  69
BRANCH  67 107
ATOM    107  OD  HYP A   4      -0.559  -4.437  -1.935  0.00  0.00    -0.390 OA
ATOM    108  HD  HYP A   4       0.202  -5.045  -1.949  0.00  0.00    +0.210 HD
ENDBRANCH  67 107
ENDBRANCH  60  62
ENDBRANCH  57  58
ENDBRANCH  55  57
ENDBRANCH   1  53
BRANCH   1 109
ATOM    109  C   UNK A   6      -3.205  -3.971   8.408  0.00  0.00    +0.074 C 
BRANCH 109 110
ATOM    110  C   UNK A   6      -4.264  -4.071   9.479  0.00  0.00    -0.008 A 
ATOM    111  S   UNK A   6      -4.990  -2.651  10.113  0.00  0.00    -0.102 S 
ATOM    112  C   UNK A   6      -6.081  -3.554  11.067  0.00  0.00    +0.045 A 
ATOM    113  C   UNK A   6      -5.833  -4.905  10.990  0.00  0.00    +0.008 A 
ATOM    114  C   UNK A   6      -4.776  -5.205  10.080  0.00  0.00    +0.011 A 
ENDBRANCH 109 110
ENDBRANCH   1 109
TORSDOF 34
