REMARK  Name = 
REMARK  6 active torsions:
REMARK  status: ('A' for Active; 'I' for Inactive)
REMARK    1  A    between atoms: C_1  and  O_2
REMARK    2  A    between atoms: O_2  and  C_3
REMARK    3  A    between atoms: C_8  and  N_9
REMARK    4  A    between atoms: C_20  and  C_21
REMARK    5  A    between atoms: C_21  and  S_22
REMARK    6  A    between atoms: S_22  and  C_23
REMARK                            x       y       z     vdW  Elec       q    Type
REMARK                         _______ _______ _______ _____ _____    ______ ____
ROOT
ATOM      1  N   UNL     1       3.959  -0.923  -2.210  0.00  0.00    -0.260 N 
ATOM      2  C   UNL     1       4.187  -1.846  -1.186  0.00  0.00    +0.128 A 
ATOM      3  N   UNL     1       4.290  -3.123  -1.409  0.00  0.00    -0.232 NA
ATOM      4  C   UNL     1       4.104  -3.645  -2.680  0.00  0.00    +0.080 A 
ATOM      5  C   UNL     1       4.004  -2.842  -3.805  0.00  0.00    +0.083 A 
ATOM      6  C   UNL     1       3.892  -3.449  -5.069  0.00  0.00    +0.055 A 
ATOM      7  C   UNL     1       3.829  -4.849  -5.176  0.00  0.00    +0.021 A 
ATOM      8  C   UNL     1       3.884  -5.645  -4.040  0.00  0.00    +0.004 A 
ATOM      9 CL   UNL     1       3.822  -2.594  -6.571  0.00  0.00    -0.083 Cl
ATOM     10  C   UNL     1       4.034  -5.041  -2.797  0.00  0.00    +0.028 A 
ATOM     11  C   UNL     1       4.009  -1.379  -3.556  0.00  0.00    +0.268 A 
ATOM     12  O   UNL     1       4.096  -0.631  -4.527  0.00  0.00    -0.267 OA
ENDROOT
BRANCH   1  14
ATOM     13  C   UNL     1       4.245   1.378  -1.062  0.00  0.00    +0.144 A 
ATOM     14  C   UNL     1       3.677   0.515  -2.028  0.00  0.00    +0.093 A 
ATOM     15  C   UNL     1       2.735   1.111  -2.908  0.00  0.00    +0.030 A 
ATOM     16  C   UNL     1       2.380   2.464  -2.846  0.00  0.00    +0.002 A 
ATOM     17  C   UNL     1       2.906   3.266  -1.852  0.00  0.00    +0.004 A 
ATOM     18  C   UNL     1       3.827   2.725  -0.962  0.00  0.00    +0.048 A 
BRANCH  13  20
ATOM     19  C   UNL     1       5.488   1.564   0.965  0.00  0.00    +0.277 C 
ATOM     20  O   UNL     1       5.323   0.953  -0.322  0.00  0.00    -0.493 OA
ENDBRANCH  13  20
ENDBRANCH   1  14
BRANCH   2  21
ATOM     21  C   UNL     1       4.354  -1.417   0.269  0.00  0.00    +0.150 C 
BRANCH  21  22
ATOM     22  S   UNL     1       3.943  -2.669   1.518  0.00  0.00    -0.096 S 
BRANCH  22  23
ATOM     23  C   UNL     1       2.223  -2.815   1.190  0.00  0.00    +0.128 A 
ATOM     24  N   UNL     1       1.560  -1.834   0.524  0.00  0.00    -0.227 NA
ATOM     25  C   UNL     1       0.260  -2.034   0.239  0.00  0.00    +0.224 A 
ATOM     26  N   UNL     1      -0.496  -3.109   0.532  0.00  0.00    -0.216 NA
ATOM     27  C   UNL     1       0.214  -4.026   1.206  0.00  0.00    +0.162 A 
ATOM     28  N   UNL     1      -0.227  -5.239   1.651  0.00  0.00    -0.329 N 
ATOM     29  H   UNL     1      -1.152  -5.610   1.504  0.00  0.00    +0.168 HD
ATOM     30  C   UNL     1       0.813  -5.846   2.299  0.00  0.00    +0.198 A 
ATOM     31  N   UNL     1       1.899  -5.106   2.278  0.00  0.00    -0.232 NA
ATOM     32  C   UNL     1       1.544  -3.965   1.586  0.00  0.00    +0.139 A 
ENDBRANCH  22  23
ENDBRANCH  21  22
ENDBRANCH   2  21
TORSDOF 5
