REMARK  Name = 
REMARK  3 active torsions:
REMARK  status: ('A' for Active; 'I' for Inactive)
REMARK    1  A    between atoms: C_1  and  C_2
REMARK    2  A    between atoms: C_7  and  C_8
REMARK    3  A    between atoms: C_14  and  C_17
REMARK                            x       y       z     vdW  Elec       q    Type
REMARK                         _______ _______ _______ _____ _____    ______ ____
ROOT
ATOM      1  C   UNL     1       2.472  -2.599  -0.163  0.00  0.00    +0.048 A 
ATOM      2  N   UNL     1       1.411  -2.853  -1.006  0.00  0.00    -0.354 N 
ATOM      3  H   UNL     1       0.952  -2.161  -1.577  0.00  0.00    +0.166 HD
ATOM      4  C   UNL     1       1.144  -4.200  -1.084  0.00  0.00    +0.048 A 
ATOM      5  C   UNL     1       0.212  -4.889  -1.869  0.00  0.00    +0.042 A 
ATOM      6  C   UNL     1       0.217  -6.291  -1.803  0.00  0.00    +0.067 A 
ATOM      7  C   UNL     1       1.106  -6.962  -0.958  0.00  0.00    +0.016 A 
ATOM      8  C   UNL     1       2.005  -6.247  -0.152  0.00  0.00    +0.011 A 
ATOM      9  C   UNL     1       2.030  -4.841  -0.225  0.00  0.00    +0.000 A 
ATOM     10  C   UNL     1       2.825  -3.827   0.377  0.00  0.00    +0.036 A 
ENDROOT
BRANCH   1  13
ATOM     11  C   UNL     1       0.957   0.093  -0.174  0.00  0.00    +0.044 C 
ATOM     12  C   UNL     1       2.454  -0.042  -0.104  0.00  0.00    -0.041 A 
ATOM     13  C   UNL     1       3.128  -1.283  -0.055  0.00  0.00    +0.001 A 
ATOM     14  C   UNL     1       4.533  -1.277   0.053  0.00  0.00    +0.010 A 
ATOM     15  C   UNL     1       5.263  -0.088   0.077  0.00  0.00    +0.001 A 
ATOM     16  C   UNL     1       4.599   1.127  -0.011  0.00  0.00    +0.000 A 
ATOM     17  C   UNL     1       3.209   1.150  -0.099  0.00  0.00    +0.004 A 
ENDBRANCH   1  13
BRANCH   6  18
ATOM     18  C   UNL     1      -0.714  -7.050  -2.688  0.00  0.00    +0.308 C 
ATOM     19  N   UNL     1      -1.176  -8.224  -2.393  0.00  0.00    -0.099 NA
ATOM     20  H   UNL     1      -0.864  -8.526  -1.467  0.00  0.00    +0.363 HD
ATOM     21  N   UNL     1      -1.114  -6.524  -3.880  0.00  0.00    -0.247 N 
ATOM     22  H   UNL     1      -1.569  -7.233  -4.447  0.00  0.00    +0.288 HD
ATOM     23  H   UNL     1      -0.404  -6.018  -4.395  0.00  0.00    +0.288 HD
ENDBRANCH   6  18
TORSDOF 2
