REMARK  Name = 
REMARK  7 active torsions:
REMARK  status: ('A' for Active; 'I' for Inactive)
REMARK    1  A    between atoms: C_2  and  N_3
REMARK    2  A    between atoms: C_2  and  C_4
REMARK    3  A    between atoms: C_2  and  C_21
REMARK    4  A    between atoms: C_4  and  O_5
REMARK    5  A    between atoms: O_5  and  C_6
REMARK    6  A    between atoms: C_8  and  C_12
REMARK    7  A    between atoms: C_21  and  C_22
REMARK                            x       y       z     vdW  Elec       q    Type
REMARK                         _______ _______ _______ _____ _____    ______ ____
ROOT
ATOM      1  O   UNL     1       1.253  -0.266  -2.438  0.00  0.00    -0.489 OA
ENDROOT
BRANCH   1   2
ATOM      2  C   UNL     1       1.408   0.440  -3.608  0.00  0.00    +0.139 A 
ATOM      3  C   UNL     1       0.916  -0.127  -4.776  0.00  0.00    +0.156 A 
ATOM      4  N   UNL     1       1.006   0.452  -5.998  0.00  0.00    -0.259 NA
ATOM      5  C   UNL     1       1.623   1.660  -6.058  0.00  0.00    +0.119 A 
ATOM      6  C   UNL     1       2.155   2.345  -4.964  0.00  0.00    +0.004 A 
ATOM      7  C   UNL     1       2.023   1.692  -3.726  0.00  0.00    +0.057 A 
BRANCH   6   8
ATOM      8  C   UNL     1       2.819   3.668  -5.081  0.00  0.00    -0.016 A 
ATOM      9  C   UNL     1       2.403   4.617  -6.038  0.00  0.00    +0.010 A 
ATOM     10  C   UNL     1       3.012   5.874  -6.180  0.00  0.00    +0.028 A 
ATOM     11  C   UNL     1       4.061   6.172  -5.310  0.00  0.00    +0.066 A 
ATOM     12  N   UNL     1       4.855   7.282  -5.180  0.00  0.00    -0.277 N 
ATOM     13  H   UNL     1       4.820   8.132  -5.723  0.00  0.00    +0.189 HD
ATOM     14  N   UNL     1       5.761   7.196  -4.186  0.00  0.00    -0.181 NA
ATOM     15  C   UNL     1       5.550   5.978  -3.683  0.00  0.00    +0.142 A 
ATOM     16  C   UNL     1       4.504   5.288  -4.337  0.00  0.00    +0.020 A 
ATOM     17  C   UNL     1       3.889   4.026  -4.227  0.00  0.00    +0.020 A 
ENDBRANCH   6   8
ENDBRANCH   1   2
BRANCH   1  18
ATOM     18  C   UNL     1       1.860   0.342  -1.284  0.00  0.00    +0.247 C 
BRANCH  18  19
ATOM     19  C   UNL     1       1.658  -0.486   0.004  0.00  0.00    +0.093 C 
BRANCH  19  20
ATOM     20  N   UNL     1       2.331  -1.796  -0.122  0.00  0.00    -0.324 NA
ATOM     21  H   UNL     1       2.065  -2.388   0.671  0.00  0.00    +0.119 HD
ATOM     22  H   UNL     1       1.957  -2.277  -0.942  0.00  0.00    +0.119 HD
ENDBRANCH  19  20
BRANCH  19  23
ATOM     23  C   UNL     1       2.201   0.332   1.220  0.00  0.00    +0.058 C 
BRANCH  23  24
ATOM     24  C   UNL     1       2.148  -0.441   2.488  0.00  0.00    -0.023 C 
ATOM     25  C   UNL     1       3.198  -1.399   2.847  0.00  0.00    +0.110 C 
ATOM     26  N   UNL     1       2.873  -2.416   3.583  0.00  0.00    -0.279 NA
ATOM     27  C   UNL     1       1.462  -2.146   3.925  0.00  0.00    +0.158 C 
ATOM     28  C   UNL     1       0.537  -3.168   3.298  0.00  0.00    +0.004 C 
ATOM     29  C   UNL     1      -0.702  -2.794   2.920  0.00  0.00    -0.002 C 
ATOM     30  C   UNL     1      -1.145  -1.423   3.147  0.00  0.00    +0.000 C 
ATOM     31  C   UNL     1      -0.241  -0.433   3.275  0.00  0.00    +0.006 C 
ATOM     32  C   UNL     1       1.154  -0.802   3.301  0.00  0.00    -0.015 C 
ENDBRANCH  23  24
ENDBRANCH  19  23
ENDBRANCH  18  19
ENDBRANCH   1  18
TORSDOF 7
