REMARK  Name = 
REMARK  9 active torsions:
REMARK  status: ('A' for Active; 'I' for Inactive)
REMARK    1  A    between atoms: O_1  and  C_2
REMARK    2  A    between atoms: C_2  and  C_4
REMARK    3  A    between atoms: C_4  and  O_5
REMARK    4  A    between atoms: O_5  and  C_6
REMARK    5  A    between atoms: C_7  and  C_25
REMARK    6  A    between atoms: C_9  and  C_12
REMARK    7  A    between atoms: C_16  and  N_17
REMARK    8  A    between atoms: N_17  and  C_18
REMARK    9  A    between atoms: C_25  and  O_26
REMARK                            x       y       z     vdW  Elec       q    Type
REMARK                         _______ _______ _______ _____ _____    ______ ____
ROOT
ATOM      1  C   UNL     1       5.200  -0.785  -3.129  0.00  0.00    +0.157 A 
ATOM      2  C   UNL     1       5.143  -2.071  -3.776  0.00  0.00    +0.075 A 
ATOM      3 BR   UNL     1       3.827  -2.541  -5.077  0.00  0.00    -0.045 Br
ATOM      4  C   UNL     1       6.075  -2.971  -3.291  0.00  0.00    +0.038 A 
ATOM      5  S   UNL     1       6.987  -2.242  -2.029  0.00  0.00    -0.077 S 
ATOM      6  C   UNL     1       6.072  -0.793  -2.054  0.00  0.00    +0.139 A 
ENDROOT
BRANCH   4   7
ATOM      7  C   UNL     1       6.358  -4.376  -3.653  0.00  0.00    -0.008 A 
ATOM      8  C   UNL     1       6.619  -5.332  -2.654  0.00  0.00    +0.032 A 
ATOM      9  C   UNL     1       6.916  -6.665  -2.951  0.00  0.00    +0.028 A 
ATOM     10  C   UNL     1       6.863  -7.060  -4.292  0.00  0.00    +0.023 A 
ATOM     11  C   UNL     1       6.590  -6.142  -5.305  0.00  0.00    +0.002 A 
ATOM     12  C   UNL     1       6.376  -4.800  -4.989  0.00  0.00    +0.009 A 
BRANCH   9  13
ATOM     13  N   UNL     1       7.267  -7.590  -1.983  0.00  0.00    -0.341 N 
ATOM     14  H   UNL     1       7.572  -8.490  -2.332  0.00  0.00    +0.146 HD
BRANCH  13  15
ATOM     15  C   UNL     1       6.843  -7.536  -0.582  0.00  0.00    +0.070 C 
ATOM     16  C   UNL     1       7.613  -8.594   0.225  0.00  0.00    +0.022 C 
ATOM     17  C   UNL     1       7.251 -10.024  -0.182  0.00  0.00    +0.002 C 
ATOM     18  C   UNL     1       5.746 -10.270  -0.126  0.00  0.00    +0.000 C 
ATOM     19  C   UNL     1       4.943  -9.202  -0.866  0.00  0.00    +0.002 C 
ATOM     20  C   UNL     1       5.336  -7.788  -0.440  0.00  0.00    +0.022 C 
ENDBRANCH  13  15
ENDBRANCH   9  13
ENDBRANCH   4   7
BRANCH   6  21
ATOM     21  C   UNL     1       6.342   0.182  -1.002  0.00  0.00    +0.347 C 
ATOM     22  O   UNL     1       7.117   0.039  -0.068  0.00  0.00    -0.244 OA
BRANCH  21  23
ATOM     23  O   UNL     1       5.611   1.321  -1.124  0.00  0.00    -0.477 OA
ATOM     24  H   UNL     1       5.023   1.340  -1.907  0.00  0.00    +0.295 HD
ENDBRANCH  21  23
ENDBRANCH   6  21
BRANCH   1  25
ATOM     25  O   UNL     1       4.465   0.338  -3.369  0.00  0.00    -0.478 OA
BRANCH  25  26
ATOM     26  C   UNL     1       4.259   0.625  -4.750  0.00  0.00    +0.349 C 
BRANCH  26  27
ATOM     27  C   UNL     1       4.124   2.113  -5.009  0.00  0.00    +0.343 C 
ATOM     28  O   UNL     1       4.216   2.976  -4.152  0.00  0.00    -0.247 OA
BRANCH  27  29
ATOM     29  O   UNL     1       3.888   2.401  -6.312  0.00  0.00    -0.478 OA
ATOM     30  H   UNL     1       3.834   1.631  -6.906  0.00  0.00    +0.295 HD
ENDBRANCH  27  29
ENDBRANCH  26  27
ENDBRANCH  25  26
ENDBRANCH   1  25
TORSDOF 9
