REMARK  Name = 
REMARK  5 active torsions:
REMARK  status: ('A' for Active; 'I' for Inactive)
REMARK    1  A    between atoms: C_2  and  C_4
REMARK    2  A    between atoms: C_4  and  S_5
REMARK    3  A    between atoms: S_5  and  C_7
REMARK    4  A    between atoms: C_7  and  C_8
REMARK    5  A    between atoms: C_7  and  C_14
REMARK                            x       y       z     vdW  Elec       q    Type
REMARK                         _______ _______ _______ _____ _____    ______ ____
ROOT
ATOM      1  C   UNL     1       5.894   1.676   1.539  0.00  0.00    +0.139 C 
ENDROOT
BRANCH   1   2
ATOM      2  C   UNL     1       7.413   1.586   1.356  0.00  0.00    -0.028 A 
ATOM      3  C   UNL     1       8.097   0.358   1.436  0.00  0.00    +0.005 A 
ATOM      4  C   UNL     1       9.472   0.280   1.215  0.00  0.00    +0.000 A 
ATOM      5  C   UNL     1      10.187   1.429   0.901  0.00  0.00    +0.000 A 
ATOM      6  C   UNL     1       9.534   2.657   0.822  0.00  0.00    +0.000 A 
ATOM      7  C   UNL     1       8.157   2.738   1.057  0.00  0.00    +0.005 A 
ENDBRANCH   1   2
BRANCH   1   8
ATOM      8  C   UNL     1       5.439   1.475   2.982  0.00  0.00    -0.028 A 
ATOM      9  C   UNL     1       4.923   2.566   3.708  0.00  0.00    +0.005 A 
ATOM     10  C   UNL     1       4.542   2.426   5.046  0.00  0.00    +0.000 A 
ATOM     11  C   UNL     1       4.681   1.199   5.689  0.00  0.00    +0.000 A 
ATOM     12  C   UNL     1       5.187   0.109   4.989  0.00  0.00    +0.000 A 
ATOM     13  C   UNL     1       5.551   0.242   3.646  0.00  0.00    +0.005 A 
ENDBRANCH   1   8
BRANCH   1  14
ATOM     14  S   UNL     1       5.059   0.560   0.317  0.00  0.00    +0.043 S 
ATOM     15  O   UNL     1       5.428   1.037  -1.063  0.00  0.00    -0.256 OA
BRANCH  14  16
ATOM     16  C   UNL     1       3.349   1.089   0.605  0.00  0.00    +0.200 C 
BRANCH  16  20
ATOM     17  N   UNL     1       2.635   0.864  -1.721  0.00  0.00    -0.329 N 
ATOM     18  H   UNL     1       3.569   1.179  -1.987  0.00  0.00    +0.145 HD
ATOM     19  H   UNL     1       2.135   0.339  -2.429  0.00  0.00    +0.145 HD
ATOM     20  C   UNL     1       2.446   0.450  -0.430  0.00  0.00    +0.223 C 
ATOM     21  O   UNL     1       1.569  -0.360  -0.150  0.00  0.00    -0.275 OA
ENDBRANCH  16  20
ENDBRANCH  14  16
ENDBRANCH   1  14
TORSDOF 5
