REMARK  Name = 
REMARK  5 active torsions:
REMARK  status: ('A' for Active; 'I' for Inactive)
REMARK    1  A    between atoms: C_1  and  C_2
REMARK    2  A    between atoms: C_2  and  O_3
REMARK    3  A    between atoms: O_3  and  C_4
REMARK    4  A    between atoms: C_4  and  C_6
REMARK    5  A    between atoms: C_7  and  O_8
REMARK                            x       y       z     vdW  Elec       q    Type
REMARK                         _______ _______ _______ _____ _____    ______ ____
ROOT
ATOM      1  C   UNL     1       4.879  -1.607   2.609  0.00  0.00    +0.138 A 
ATOM      2  C   UNL     1       4.657  -2.958   2.724  0.00  0.00    +0.134 A 
ATOM      3  N   UNL     1       5.031  -3.687   3.799  0.00  0.00    -0.222 NA
ATOM      4  C   UNL     1       5.659  -3.028   4.779  0.00  0.00    +0.216 A 
ATOM      5  N   UNL     1       6.053  -3.750   5.883  0.00  0.00    -0.327 N 
ATOM      6  H   UNL     1       5.491  -4.582   5.983  0.00  0.00    +0.145 HD
ATOM      7  H   UNL     1       6.132  -3.138   6.684  0.00  0.00    +0.145 HD
ATOM      8  N   UNL     1       5.899  -1.717   4.779  0.00  0.00    -0.179 NA
ATOM      9  C   UNL     1       5.515  -1.031   3.688  0.00  0.00    +0.231 A 
ENDROOT
BRANCH   1  10
ATOM     10  C   UNL     1       4.475  -0.811   1.448  0.00  0.00    +0.346 C 
ATOM     11  O   UNL     1       4.775   0.370   1.344  0.00  0.00    -0.245 OA
BRANCH  10  12
ATOM     12  O   UNL     1       3.722  -1.533   0.586  0.00  0.00    -0.461 OA
BRANCH  12  14
ATOM     13  C   UNL     1       1.940  -0.066  -0.141  0.00  0.00    +0.048 C 
ATOM     14  C   UNL     1       3.203  -0.807  -0.540  0.00  0.00    +0.229 C 
ENDBRANCH  12  14
ENDBRANCH  10  12
ENDBRANCH   1  10
BRANCH   9  15
ATOM     15  O   UNL     1       5.809   0.305   3.756  0.00  0.00    -0.492 OA
ATOM     16  H   UNL     1       5.563   0.725   2.907  0.00  0.00    +0.294 HD
ENDBRANCH   9  15
TORSDOF 4
