REMARK  Name = 
REMARK  7 active torsions:
REMARK  status: ('A' for Active; 'I' for Inactive)
REMARK    1  A    between atoms: C_1  and  C_2
REMARK    2  A    between atoms: C_2  and  N_3
REMARK    3  A    between atoms: C_10  and  C_11
REMARK    4  A    between atoms: N_13  and  C_14
REMARK    5  A    between atoms: C_14  and  C_15
REMARK    6  A    between atoms: C_21  and  N_22
REMARK    7  A    between atoms: N_22  and  C_23
REMARK                            x       y       z     vdW  Elec       q    Type
REMARK                         _______ _______ _______ _____ _____    ______ ____
ROOT
ATOM      1  N   UNL     1       3.145   1.535   0.310  0.00  0.00    -0.247 N 
ATOM      2  C   UNL     1       4.173   1.817   1.173  0.00  0.00    +0.160 A 
ATOM      3  N   UNL     1       4.948   0.919   1.802  0.00  0.00    -0.235 NA
ATOM      4  C   UNL     1       5.805   1.509   2.668  0.00  0.00    +0.128 A 
ATOM      5  C   UNL     1       5.981   2.887   2.885  0.00  0.00    +0.076 A 
ATOM      6  C   UNL     1       5.192   3.813   2.144  0.00  0.00    +0.053 A 
ATOM      7  C   UNL     1       4.228   3.199   1.288  0.00  0.00    +0.060 A 
ATOM      8  C   UNL     1       3.189   3.634   0.422  0.00  0.00    +0.146 A 
ATOM      9  N   UNL     1       2.535   2.637  -0.180  0.00  0.00    -0.177 NA
ENDROOT
BRANCH   5  10
ATOM     10  C   UNL     1       6.868   3.238   4.038  0.00  0.00    +0.248 C 
ATOM     11  N   UNL     1       7.976   2.429   4.250  0.00  0.00    -0.307 N 
ATOM     12  H   UNL     1       8.248   1.729   3.574  0.00  0.00    +0.149 HD
ATOM     13  O   UNL     1       6.582   4.163   4.791  0.00  0.00    -0.270 OA
BRANCH  11  14
ATOM     14  C   UNL     1       8.883   2.633   5.365  0.00  0.00    +0.139 C 
BRANCH  14  15
ATOM     15  C   UNL     1       8.971   1.440   6.293  0.00  0.00    -0.030 A 
ATOM     16  C   UNL     1       7.860   1.027   7.044  0.00  0.00    +0.005 A 
ATOM     17  C   UNL     1       7.972  -0.012   7.975  0.00  0.00    +0.000 A 
ATOM     18  C   UNL     1       9.194  -0.654   8.166  0.00  0.00    +0.000 A 
ATOM     19  C   UNL     1      10.305  -0.260   7.424  0.00  0.00    +0.000 A 
ATOM     20  C   UNL     1      10.194   0.778   6.493  0.00  0.00    +0.005 A 
ENDBRANCH  14  15
ENDBRANCH  11  14
ENDBRANCH   5  10
BRANCH   1  22
ATOM     21  C   UNL     1       3.322  -0.358  -1.262  0.00  0.00    +0.029 C 
ATOM     22  C   UNL     1       2.647   0.218  -0.032  0.00  0.00    +0.142 C 
ENDBRANCH   1  22
BRANCH   6  23
ATOM     23  N   UNL     1       5.222   5.202   2.186  0.00  0.00    -0.340 N 
ATOM     24  H   UNL     1       4.510   5.622   1.597  0.00  0.00    +0.146 HD
BRANCH  23  25
ATOM     25  C   UNL     1       6.426   6.047   2.284  0.00  0.00    +0.075 C 
ATOM     26  C   UNL     1       6.025   7.529   2.112  0.00  0.00    +0.050 C 
ATOM     27  C   UNL     1       5.723   7.899   0.660  0.00  0.00    +0.161 C 
ATOM     28  O   UNL     1       6.762   7.484  -0.224  0.00  0.00    -0.380 OA
ATOM     29  C   UNL     1       7.006   6.080  -0.158  0.00  0.00    +0.161 C 
ATOM     30  C   UNL     1       7.485   5.705   1.235  0.00  0.00    +0.050 C 
ENDBRANCH  23  25
ENDBRANCH   6  23
TORSDOF 6
