REMARK  Name = 
REMARK  13 active torsions:
REMARK  status: ('A' for Active; 'I' for Inactive)
REMARK    1  A    between atoms: C_1  and  O_2
REMARK    2  A    between atoms: O_2  and  C_3
REMARK    3  A    between atoms: C_4  and  O_5
REMARK    4  A    between atoms: C_8  and  C_9
REMARK    5  A    between atoms: C_9  and  N_10
REMARK    6  A    between atoms: C_11  and  C_13
REMARK    7  A    between atoms: C_13  and  C_14
REMARK    8  A    between atoms: C_14  and  C_15
REMARK    9  A    between atoms: C_15  and  C_16
REMARK   10  A    between atoms: C_16  and  C_17
REMARK   11  A    between atoms: C_18  and  C_19
REMARK   12  A    between atoms: C_19  and  C_20
REMARK   13  A    between atoms: C_19  and  C_21
REMARK                            x       y       z     vdW  Elec       q    Type
REMARK                         _______ _______ _______ _____ _____    ______ ____
ROOT
ATOM      1  N   UNL     1       6.579   0.558  -3.305  0.00  0.00    -0.311 N 
ATOM      2  H   UNL     1       6.677  -0.119  -2.560  0.00  0.00    +0.149 HD
ATOM      3  C   UNL     1       6.773   0.176  -4.611  0.00  0.00    +0.213 C 
ATOM      4  O   UNL     1       6.654   0.942  -5.561  0.00  0.00    -0.276 OA
ENDROOT
BRANCH   1   5
ATOM      5  C   UNL     1       6.270   1.923  -2.950  0.00  0.00    +0.139 C 
BRANCH   5   8
ATOM      6  C   UNL     1       7.878   3.575   0.082  0.00  0.00    +0.162 A 
ATOM      7  C   UNL     1       6.933   3.002  -0.769  0.00  0.00    +0.054 A 
ATOM      8  C   UNL     1       7.311   2.509  -2.031  0.00  0.00    -0.027 A 
ATOM      9  C   UNL     1       8.652   2.624  -2.434  0.00  0.00    +0.009 A 
ATOM     10  C   UNL     1       9.597   3.217  -1.595  0.00  0.00    +0.049 A 
ATOM     11  C   UNL     1       9.201   3.690  -0.351  0.00  0.00    +0.158 A 
BRANCH   6  13
ATOM     12  C   UNL     1       6.444   3.548   1.957  0.00  0.00    +0.277 C 
ATOM     13  O   UNL     1       7.615   4.070   1.334  0.00  0.00    -0.491 OA
ENDBRANCH   6  13
BRANCH  11  14
ATOM     14  O   UNL     1      10.145   4.266   0.454  0.00  0.00    -0.503 OA
ATOM     15  H   UNL     1       9.662   4.531   1.262  0.00  0.00    +0.292 HD
ENDBRANCH  11  14
ENDBRANCH   5   8
ENDBRANCH   1   5
BRANCH   3  16
ATOM     16  C   UNL     1       7.113  -1.292  -4.777  0.00  0.00    +0.096 C 
BRANCH  16  17
ATOM     17  C   UNL     1       7.998  -1.546  -5.995  0.00  0.00    +0.009 C 
BRANCH  17  18
ATOM     18  C   UNL     1       9.376  -0.893  -5.848  0.00  0.00    +0.004 C 
BRANCH  18  19
ATOM     19  C   UNL     1      10.252  -1.157  -7.072  0.00  0.00    +0.027 C 
BRANCH  19  20
ATOM     20  C   UNL     1      11.592  -0.496  -6.921  0.00  0.00    -0.031 C 
ATOM     21  C   UNL     1      12.758  -1.161  -6.919  0.00  0.00    -0.028 C 
BRANCH  21  22
ATOM     22  C   UNL     1      14.104  -0.502  -6.765  0.00  0.00    +0.005 C 
ATOM     23  C   UNL     1      14.945  -0.718  -8.022  0.00  0.00    +0.011 C 
ATOM     24  C   UNL     1      14.821  -1.056  -5.534  0.00  0.00    +0.011 C 
ENDBRANCH  21  22
ENDBRANCH  19  20
ENDBRANCH  18  19
ENDBRANCH  17  18
ENDBRANCH  16  17
ENDBRANCH   3  16
TORSDOF 10
