REMARK  Name = 
REMARK  24 active torsions:
REMARK  status: ('A' for Active; 'I' for Inactive)
REMARK    1  A    between atoms: N_2  and  C_4
REMARK    2  A    between atoms: C_4  and  C_5
REMARK    3  A    between atoms: C_5  and  C_6
REMARK    4  A    between atoms: C_6  and  C_7
REMARK    5  A    between atoms: C_7  and  C_8
REMARK    6  A    between atoms: C_13  and  C_14
REMARK    7  A    between atoms: C_14  and  C_15
REMARK    8  A    between atoms: C_29  and  C_30
REMARK    9  A    between atoms: C_30  and  C_31
REMARK   10  A    between atoms: C_34  and  O_35
REMARK   11  A    between atoms: C_42  and  N_73
REMARK   12  A    between atoms: C_47  and  C_60
REMARK   13  A    between atoms: C_52  and  C_57
REMARK   14  A    between atoms: C_57  and  C_58
REMARK   15  A    between atoms: C_57  and  C_59
REMARK   16  A    between atoms: N_62  and  C_64
REMARK   17  A    between atoms: C_64  and  C_65
REMARK   18  A    between atoms: C_64  and  C_68
REMARK   19  A    between atoms: C_65  and  C_66
REMARK   20  A    between atoms: C_65  and  O_67
REMARK   21  A    between atoms: C_75  and  C_77
REMARK   22  A    between atoms: C_77  and  C_78
REMARK   23  A    between atoms: C_77  and  N_89
REMARK   24  A    between atoms: C_78  and  C_79
REMARK                            x       y       z     vdW  Elec       q    Type
REMARK                         _______ _______ _______ _____ _____    ______ ____
ROOT
ATOM      1  C   UNL     1      10.980  -0.809  -3.389  0.00  0.00    +0.159 C 
ATOM      2  C   UNL     1      13.016  -0.760  -3.664  0.00  0.00    +0.234 C 
ATOM      3  O   UNL     1      13.439   0.415  -3.680  0.00  0.00    -0.274 OA
ATOM      4  N   UNL     1      14.374  -1.856  -4.070  0.00  0.00    -0.302 N 
ATOM      5  H   UNL     1      14.148  -2.528  -3.326  0.00  0.00    +0.150 HD
ATOM      6  C   UNL     1      16.212  -2.310  -4.421  0.00  0.00    +0.161 C 
ATOM      7  C   UNL     1      16.770  -3.844  -4.853  0.00  0.00    +0.234 C 
ATOM      8  O   UNL     1      17.129  -4.272  -5.954  0.00  0.00    -0.274 OA
ATOM      9  N   UNL     1      17.018  -4.811  -3.958  0.00  0.00    -0.302 N 
ATOM     10  H   UNL     1      17.612  -4.502  -3.182  0.00  0.00    +0.150 HD
ATOM     11  C   UNL     1      15.775  -5.387  -3.612  0.00  0.00    +0.169 C 
ATOM     12  C   UNL     1      14.587  -4.964  -4.635  0.00  0.00    +0.112 C 
ATOM     13  S   UNL     1      14.601  -4.703  -6.740  0.00  0.00    -0.091 S 
ATOM     14  S   UNL     1      15.353  -2.741  -7.354  0.00  0.00    -0.091 S 
ATOM     15  C   UNL     1      16.469  -2.703  -8.959  0.00  0.00    +0.112 C 
ATOM     16  C   UNL     1      16.397  -1.368  -9.781  0.00  0.00    +0.169 C 
ATOM     17  C   UNL     1      14.931  -1.098 -10.067  0.00  0.00    +0.235 C 
ATOM     18  O   UNL     1      14.455  -1.273 -11.198  0.00  0.00    -0.274 OA
ATOM     19  N   UNL     1      14.140  -0.677  -8.998  0.00  0.00    -0.302 N 
ATOM     20  H   UNL     1      14.559  -0.661  -8.062  0.00  0.00    +0.150 HD
ATOM     21  C   UNL     1      12.705  -0.891  -9.065  0.00  0.00    +0.163 C 
ATOM     22  C   UNL     1      12.281  -1.133  -7.598  0.00  0.00    +0.234 C 
ATOM     23  O   UNL     1      13.066  -0.763  -6.707  0.00  0.00    -0.274 OA
ATOM     24  N   UNL     1      11.119  -1.819  -7.385  0.00  0.00    -0.302 N 
ATOM     25  H   UNL     1      10.332  -1.476  -7.988  0.00  0.00    +0.150 HD
ATOM     26  C   UNL     1      10.744  -2.003  -5.983  0.00  0.00    +0.163 C 
ATOM     27  C   UNL     1       9.735  -0.923  -5.587  0.00  0.00    +0.234 C 
ATOM     28  O   UNL     1       8.714  -0.637  -6.246  0.00  0.00    -0.274 OA
ATOM     29  N   UNL     1      10.259  -0.137  -4.535  0.00  0.00    -0.302 N 
ATOM     30  H   UNL     1       9.625   0.617  -4.320  0.00  0.00    +0.150 HD
ENDROOT
BRANCH  11  31
ATOM     31  C   UNL     1      15.829  -4.821  -2.146  0.00  0.00    +0.235 C 
ATOM     32  N   UNL     1      14.951  -5.288  -1.237  0.00  0.00    -0.300 N 
ATOM     33  H   UNL     1      14.454  -6.154  -1.406  0.00  0.00    +0.150 HD
ATOM     34  O   UNL     1      16.704  -4.028  -1.767  0.00  0.00    -0.274 OA
BRANCH  32  35
ATOM     35  C   UNL     1      14.990  -4.770   0.142  0.00  0.00    +0.187 C 
BRANCH  35  36
ATOM     36  C   UNL     1      14.182  -5.791   0.939  0.00  0.00    +0.233 C 
ATOM     37  N   UNL     1      14.394  -5.850   2.281  0.00  0.00    -0.328 N 
ATOM     38  H   UNL     1      13.877  -6.554   2.795  0.00  0.00    +0.145 HD
ATOM     39  H   UNL     1      15.162  -5.390   2.753  0.00  0.00    +0.145 HD
ATOM     40  O   UNL     1      13.363  -6.539   0.403  0.00  0.00    -0.274 OA
ENDBRANCH  35  36
BRANCH  35  41
ATOM     41  C   UNL     1      14.371  -3.352   0.169  0.00  0.00    +0.141 C 
ATOM     42  C   UNL     1      14.199  -2.764   1.555  0.00  0.00    +0.040 C 
BRANCH  41  43
ATOM     43  O   UNL     1      15.128  -2.389  -0.580  0.00  0.00    -0.390 OA
ATOM     44  H   UNL     1      16.067  -2.674  -0.615  0.00  0.00    +0.210 HD
ENDBRANCH  41  43
ENDBRANCH  35  41
ENDBRANCH  32  35
ENDBRANCH  11  31
BRANCH  16  45
ATOM     45  N   UNL     1      17.021  -1.468 -11.124  0.00  0.00    -0.302 N 
ATOM     46  C   UNL     1      18.361  -1.322 -11.378  0.00  0.00    +0.231 C 
ATOM     47  O   UNL     1      19.170  -1.177 -10.460  0.00  0.00    -0.274 OA
ATOM     48  H   UNL     1      16.364  -1.399 -11.896  0.00  0.00    +0.150 HD
BRANCH  46  49
ATOM     49  C   UNL     1      18.818  -1.532 -12.864  0.00  0.00    +0.142 C 
BRANCH  49  50
ATOM     50  N   UNL     1      20.195  -1.017 -13.059  0.00  0.00    -0.320 NA
ATOM     51  H   UNL     1      20.574  -1.336 -13.947  0.00  0.00    +0.119 HD
ATOM     52  H   UNL     1      20.792  -1.372 -12.310  0.00  0.00    +0.119 HD
ENDBRANCH  49  50
BRANCH  49  53
ATOM     53  C   UNL     1      17.858  -1.000 -13.954  0.00  0.00    +0.063 C 
BRANCH  53  54
ATOM     54  C   UNL     1      17.578   0.485 -13.920  0.00  0.00    -0.045 A 
ATOM     55  C   UNL     1      16.288   0.975 -13.696  0.00  0.00    +0.004 A 
ATOM     56  C   UNL     1      16.058   2.353 -13.631  0.00  0.00    +0.009 A 
ATOM     57  C   UNL     1      17.115   3.268 -13.776  0.00  0.00    -0.018 A 
ATOM     58  C   UNL     1      18.411   2.780 -14.039  0.00  0.00    -0.018 A 
ATOM     59  C   UNL     1      19.482   3.673 -14.186  0.00  0.00    +0.008 A 
ATOM     60  C   UNL     1      19.286   5.043 -14.025  0.00  0.00    +0.001 A 
ATOM     61  C   UNL     1      18.013   5.530 -13.746  0.00  0.00    +0.001 A 
ATOM     62  C   UNL     1      16.929   4.653 -13.647  0.00  0.00    +0.008 A 
ATOM     63  C   UNL     1      18.619   1.401 -14.124  0.00  0.00    +0.012 A 
ENDBRANCH  53  54
ENDBRANCH  49  53
ENDBRANCH  46  49
ENDBRANCH  16  45
BRANCH   6  64
ATOM     64  C   UNL     1      17.963  -1.939  -5.160  0.00  0.00    +0.012 C 
ATOM     65  C   UNL     1      18.675  -2.347  -6.660  0.00  0.00    +0.009 C 
ATOM     66  C   UNL     1      19.205  -2.868  -4.394  0.00  0.00    +0.009 C 
ENDBRANCH   6  64
BRANCH   1  67
ATOM     67  C   UNL     1       9.259  -1.058  -2.466  0.00  0.00    +0.032 C 
BRANCH  67  68
ATOM     68  C   UNL     1       7.609  -0.123  -2.115  0.00  0.00    +0.003 C 
BRANCH  68  69
ATOM     69  C   UNL     1       5.906  -0.759  -1.741  0.00  0.00    +0.015 C 
BRANCH  69  70
ATOM     70  C   UNL     1       4.437   0.002  -1.147  0.00  0.00    +0.077 C 
BRANCH  70  72
ATOM     71  H   UNL     1       3.254   0.897   0.308  0.00  0.00    +0.118 HD
ATOM     72  N   UNL     1       4.200   0.477   0.243  0.00  0.00    -0.330 NA
ATOM     73  H   UNL     1       4.103  -0.311   0.889  0.00  0.00    +0.118 HD
ENDBRANCH  70  72
ENDBRANCH  69  70
ENDBRANCH  68  69
ENDBRANCH  67  68
ENDBRANCH   1  67
BRANCH  21  74
ATOM     74  C   UNL     1      11.985   0.269  -9.761  0.00  0.00    +0.067 C 
BRANCH  74  75
ATOM     75  C   UNL     1      12.339   1.646  -9.244  0.00  0.00    -0.045 A 
ATOM     76  C   UNL     1      11.553   2.259  -8.261  0.00  0.00    +0.007 A 
ATOM     77  C   UNL     1      11.873   3.537  -7.801  0.00  0.00    +0.045 A 
ATOM     78  C   UNL     1      12.993   4.192  -8.300  0.00  0.00    +0.117 A 
ATOM     79  C   UNL     1      13.799   3.594  -9.261  0.00  0.00    +0.045 A 
ATOM     80  C   UNL     1      13.468   2.323  -9.735  0.00  0.00    +0.007 A 
BRANCH  78  81
ATOM     81  O   UNL     1      13.273   5.435  -7.813  0.00  0.00    -0.507 OA
ATOM     82  H   UNL     1      14.159   5.687  -8.121  0.00  0.00    +0.292 HD
ENDBRANCH  78  81
ENDBRANCH  74  75
ENDBRANCH  21  74
BRANCH  26  83
ATOM     83  C   UNL     1      10.911  -3.399  -5.280  0.00  0.00    +0.069 C 
BRANCH  83  84
ATOM     84  C   UNL     1       9.708  -4.206  -4.834  0.00  0.00    -0.020 A 
ATOM     85  C   UNL     1       9.492  -5.101  -3.677  0.00  0.00    +0.003 A 
ATOM     86  C   UNL     1       8.241  -5.665  -3.837  0.00  0.00    +0.047 A 
ATOM     87  C   UNL     1       7.656  -6.621  -2.970  0.00  0.00    +0.026 A 
ATOM     88  C   UNL     1       8.349  -6.952  -1.813  0.00  0.00    +0.002 A 
ATOM     89  C   UNL     1       9.597  -6.394  -1.572  0.00  0.00    +0.001 A 
ATOM     90  N   UNL     1       7.680  -5.144  -5.008  0.00  0.00    -0.360 N 
ATOM     91  H   UNL     1       6.777  -5.388  -5.350  0.00  0.00    +0.165 HD
ATOM     92  C   UNL     1      10.194  -5.499  -2.499  0.00  0.00    +0.010 A 
ATOM     93  C   UNL     1       8.556  -4.240  -5.523  0.00  0.00    +0.087 A 
ENDBRANCH  83  84
ENDBRANCH  26  83
TORSDOF 21
