REMARK  Name = 
REMARK  5 active torsions:
REMARK  status: ('A' for Active; 'I' for Inactive)
REMARK    1  A    between atoms: C_1  and  N_2
REMARK    2  A    between atoms: N_2  and  C_3
REMARK    3  A    between atoms: C_4  and  C_6
REMARK    4  A    between atoms: C_8  and  C_11
REMARK    5  A    between atoms: C_15  and  C_16
REMARK                            x       y       z     vdW  Elec       q    Type
REMARK                         _______ _______ _______ _____ _____    ______ ____
ROOT
ATOM      1  C   UNL     1       8.169   0.622  -0.228  0.00  0.00    +0.102 A 
ATOM      2  C   UNL     1       9.469   1.064   0.165  0.00  0.00    +0.027 A 
ATOM      3  C   UNL     1      10.261   0.751  -0.925  0.00  0.00    +0.114 A 
ATOM      4  N   UNL     1       9.442   0.186  -1.855  0.00  0.00    -0.284 N 
ATOM      5  H   UNL     1       9.687  -0.172  -2.771  0.00  0.00    +0.188 HD
ATOM      6  N   UNL     1       8.162   0.119  -1.472  0.00  0.00    -0.173 NA
ENDROOT
BRANCH   1  11
ATOM      7  C   UNL     1       4.704   0.580   1.023  0.00  0.00    +0.103 A 
ATOM      8  N   UNL     1       5.435   0.561   2.196  0.00  0.00    -0.356 N 
ATOM      9  H   UNL     1       5.006   0.516   3.113  0.00  0.00    +0.165 HD
ATOM     10  C   UNL     1       6.775   0.512   1.930  0.00  0.00    +0.093 A 
ATOM     11  C   UNL     1       6.938   0.635   0.568  0.00  0.00    +0.021 A 
ATOM     12  C   UNL     1       5.637   0.723   0.004  0.00  0.00    +0.042 A 
BRANCH   7  15
ATOM     13  C   UNL     1       1.117  -0.136   0.100  0.00  0.00    +0.132 C 
ATOM     14  N   UNL     1       2.559  -0.033  -0.030  0.00  0.00    -0.302 N 
ATOM     15  C   UNL     1       3.256   0.495   1.061  0.00  0.00    +0.262 C 
ATOM     16  O   UNL     1       2.653   0.837   2.081  0.00  0.00    -0.268 OA
ATOM     17  C   UNL     1       3.173  -0.659  -1.190  0.00  0.00    +0.132 C 
ENDBRANCH   7  15
ENDBRANCH   1  11
BRANCH   2  18
ATOM     18  C   UNL     1       9.990   1.720   1.359  0.00  0.00    -0.014 A 
ATOM     19  C   UNL     1      11.281   1.432   1.828  0.00  0.00    +0.008 A 
ATOM     20  C   UNL     1      11.780   2.050   2.978  0.00  0.00    +0.001 A 
ATOM     21  C   UNL     1      10.990   2.955   3.683  0.00  0.00    +0.000 A 
ATOM     22  C   UNL     1       9.711   3.259   3.224  0.00  0.00    +0.001 A 
ATOM     23  C   UNL     1       9.223   2.660   2.059  0.00  0.00    +0.008 A 
ENDBRANCH   2  18
TORSDOF 3
