REMARK  Name = 
REMARK  3 active torsions:
REMARK  status: ('A' for Active; 'I' for Inactive)
REMARK    1  A    between atoms: C_9  and  N_11
REMARK    2  A    between atoms: N_11  and  C_12
REMARK    3  A    between atoms: C_13  and  C_14
REMARK                            x       y       z     vdW  Elec       q    Type
REMARK                         _______ _______ _______ _____ _____    ______ ____
ROOT
ATOM      1  C   UNL     1       3.193   1.518   3.445  0.00  0.00    +0.053 A 
ATOM      2  C   UNL     1       3.397   2.760   4.258  0.00  0.00    +0.021 A 
ATOM      3  C   UNL     1       2.722   3.965   3.985  0.00  0.00    +0.031 A 
ATOM      4  C   UNL     1       2.946   5.108   4.751  0.00  0.00    +0.042 A 
ATOM      5  C   UNL     1       3.862   5.087   5.802  0.00  0.00    +0.022 A 
ATOM      6  C   UNL     1       4.548   3.912   6.090  0.00  0.00    +0.028 A 
ATOM      7 CL   UNL     1       2.097   6.556   4.399  0.00  0.00    -0.084 Cl
ATOM      8  C   UNL     1       4.303   2.767   5.331  0.00  0.00    +0.051 A 
ATOM      9  N   UNL     1       4.970   1.601   5.664  0.00  0.00    -0.321 N 
ATOM     10  H   UNL     1       5.629   1.582   6.432  0.00  0.00    +0.169 HD
ATOM     11  C   UNL     1       4.779   0.424   5.021  0.00  0.00    +0.262 A 
ATOM     12  O   UNL     1       5.387  -0.565   5.438  0.00  0.00    -0.267 OA
ATOM     13  C   UNL     1       3.850   0.376   3.813  0.00  0.00    +0.103 A 
ENDROOT
BRANCH  13  14
ATOM     14  C   UNL     1       3.787  -0.881   3.091  0.00  0.00    +0.146 A 
ATOM     15  N   UNL     1       4.436  -1.974   3.649  0.00  0.00    -0.338 N 
ATOM     16  H   UNL     1       4.923  -1.957   4.538  0.00  0.00    +0.167 HD
ATOM     17  C   UNL     1       4.550  -2.971   2.727  0.00  0.00    +0.066 A 
ATOM     18  C   UNL     1       3.765  -2.533   1.675  0.00  0.00    +0.089 A 
ATOM     19  C   UNL     1       3.655  -3.366   0.549  0.00  0.00    +0.030 A 
ATOM     20  C   UNL     1       4.418  -4.549   0.500  0.00  0.00    +0.002 A 
ATOM     21  C   UNL     1       5.230  -4.931   1.570  0.00  0.00    +0.002 A 
ATOM     22  C   UNL     1       5.284  -4.159   2.730  0.00  0.00    +0.028 A 
ATOM     23  N   UNL     1       3.264  -1.260   1.930  0.00  0.00    -0.227 NA
ENDBRANCH  13  14
BRANCH   1  24
ATOM     24  N   UNL     1       2.396   1.753   2.302  0.00  0.00    -0.338 N 
ATOM     25  H   UNL     1       2.895   1.299   1.524  0.00  0.00    +0.146 HD
BRANCH  24  27
ATOM     26  C   UNL     1       0.031   1.505   3.347  0.00  0.00    +0.013 C 
ATOM     27  C   UNL     1       1.026   1.226   2.187  0.00  0.00    +0.088 C 
ATOM     28  C   UNL     1       0.298   1.630   0.887  0.00  0.00    +0.106 C 
ATOM     29  N   UNL     1      -1.170   1.352   1.020  0.00  0.00    -0.301 NA
ATOM     30  C   UNL     1      -1.756   2.459   1.802  0.00  0.00    +0.085 C 
ATOM     31  C   UNL     1      -1.357   0.098   1.815  0.00  0.00    +0.085 C 
ATOM     32  C   UNL     1      -0.934   2.700   3.085  0.00  0.00    +0.021 C 
ATOM     33  C   UNL     1      -0.886   0.264   3.288  0.00  0.00    +0.021 C 
ENDBRANCH  24  27
ENDBRANCH   1  24
TORSDOF 3
