REMARK  Name = 
REMARK  9 active torsions:
REMARK  status: ('A' for Active; 'I' for Inactive)
REMARK    1  A    between atoms: C_2  and  C_3
REMARK    2  A    between atoms: C_2  and  C_4
REMARK    3  A    between atoms: C_2  and  N_6
REMARK    4  A    between atoms: C_4  and  C_5
REMARK    5  A    between atoms: C_10  and  C_12
REMARK    6  A    between atoms: N_14  and  C_15
REMARK    7  A    between atoms: C_16  and  C_17
REMARK    8  A    between atoms: C_20  and  C_22
REMARK    9  A    between atoms: N_24  and  C_25
REMARK                            x       y       z     vdW  Elec       q    Type
REMARK                         _______ _______ _______ _____ _____    ______ ____
ROOT
ATOM      1  C   UNL     1       7.174  -1.941  -2.135  0.00  0.00    +0.256 C 
ATOM      2  N   UNL     1       8.467  -1.522  -2.426  0.00  0.00    -0.281 N 
ATOM      3  H   UNL     1       8.555  -0.573  -2.756  0.00  0.00    +0.155 HD
ATOM      4  O   UNL     1       6.857  -3.115  -1.976  0.00  0.00    -0.269 OA
ENDROOT
BRANCH   1   9
ATOM      5  N   UNL     1       4.626   2.515  -1.931  0.00  0.00    -0.321 N 
ATOM      6  H   UNL     1       4.988   3.118  -2.661  0.00  0.00    +0.148 HD
ATOM      7  C   UNL     1       4.962   1.213  -1.978  0.00  0.00    +0.159 A 
ATOM      8  S   UNL     1       6.607   0.783  -2.232  0.00  0.00    -0.048 S 
ATOM      9  C   UNL     1       6.198  -0.873  -2.088  0.00  0.00    +0.095 A 
ATOM     10  C   UNL     1       4.830  -0.988  -1.938  0.00  0.00    +0.133 A 
ATOM     11  N   UNL     1       4.139   0.202  -1.832  0.00  0.00    -0.233 NA
BRANCH   5  12
ATOM     12  C   UNL     1       3.384   2.933  -1.305  0.00  0.00    +0.069 C 
ATOM     13  C   UNL     1       2.284   3.030  -2.357  0.00  0.00    +0.028 C 
BRANCH  12  14
ATOM     14  C   UNL     1       3.608   4.300  -0.630  0.00  0.00    +0.018 C 
ATOM     15  C   UNL     1       4.700   4.273   0.435  0.00  0.00    +0.005 C 
ENDBRANCH  12  14
ENDBRANCH   5  12
ENDBRANCH   1   9
BRANCH   2  16
ATOM     16  C   UNL     1       9.555  -2.396  -2.617  0.00  0.00    +0.037 A 
ATOM     17  C   UNL     1       9.703  -3.500  -1.769  0.00  0.00    +0.036 A 
ATOM     18  C   UNL     1      10.731  -4.423  -1.976  0.00  0.00    +0.038 A 
ATOM     19  C   UNL     1      11.654  -4.200  -2.999  0.00  0.00    +0.013 A 
ATOM     20  C   UNL     1      11.533  -3.078  -3.819  0.00  0.00    +0.006 A 
ATOM     21  C   UNL     1      10.481  -2.158  -3.638  0.00  0.00    -0.029 A 
ATOM     22  C   UNL     1      10.373  -1.031  -4.630  0.00  0.00    +0.045 C 
BRANCH  18  23
ATOM     23  C   UNL     1      10.868  -5.646  -1.133  0.00  0.00    +0.244 C 
ATOM     24  N   UNL     1       9.704  -6.126  -0.571  0.00  0.00    -0.314 N 
ATOM     25  H   UNL     1       8.818  -5.688  -0.794  0.00  0.00    +0.149 HD
ATOM     26  C   UNL     1       9.665  -7.322   0.228  0.00  0.00    +0.128 C 
ATOM     27  O   UNL     1      11.960  -6.179  -1.005  0.00  0.00    -0.270 OA
ENDBRANCH  18  23
ENDBRANCH   2  16
TORSDOF 5
