REMARK  Name = 
REMARK  15 active torsions:
REMARK  status: ('A' for Active; 'I' for Inactive)
REMARK    1  A    between atoms: C_2  and  C_11
REMARK    2  A    between atoms: C_4  and  O_6
REMARK    3  A    between atoms: CA_20  and  C_22
REMARK    4  A    between atoms: C_22  and  O_23
REMARK    5  A    between atoms: CA_27  and  CB_29
REMARK    6  A    between atoms: CB_29  and  O_30
REMARK    7  A    between atoms: CA_34  and  N_40
REMARK    8  A    between atoms: C_41  and  C_43
REMARK    9  A    between atoms: C_43  and  C_44
REMARK   10  A    between atoms: C_44  and  N_46
REMARK   11  A    between atoms: C_44  and  C_47
REMARK   12  A    between atoms: C_47  and  C_48
REMARK   13  A    between atoms: C_48  and  C_49
REMARK   14  A    between atoms: C_49  and  N_50
REMARK   15  A    between atoms: C_51  and  N_52
REMARK                            x       y       z     vdW  Elec       q    Type
REMARK                         _______ _______ _______ _____ _____    ______ ____
ROOT
ATOM      1  C   UNK A   3       0.446   0.119   0.053  0.00  0.00    +0.194 C 
ATOM      2  C   UNK A   3       0.023  -0.558  -1.300  0.00  0.00    +0.237 C 
ATOM      3  O   UNK A   3       0.302  -0.031  -2.379  0.00  0.00    -0.274 OA
ATOM      4  N   UNK A   3      -0.868  -1.611  -1.221  0.00  0.00    -0.311 N 
ATOM      5  H   UNK A   3      -0.771  -2.270  -0.464  0.00  0.00    +0.149 HD
ATOM      6  C   UNK A   3      -1.595  -2.163  -2.370  0.00  0.00    +0.136 C 
ATOM      7  C   UNK A   3      -2.881  -2.895  -1.894  0.00  0.00    +0.176 C 
ATOM      8  C   UNK A   1      -4.156  -2.070  -2.193  0.00  0.00    +0.236 C 
ATOM      9  O   UNK A   1      -4.566  -1.897  -3.342  0.00  0.00    -0.274 OA
ATOM     10  N   SER A   2      -4.890  -1.647  -1.100  0.00  0.00    -0.301 N 
ATOM     11  H   SER A   2      -4.666  -2.001  -0.185  0.00  0.00    +0.150 HD
ATOM     12  CA  SER A   2      -6.129  -0.808  -1.217  0.00  0.00    +0.184 C 
ATOM     13  C   SER A   2      -6.326  -0.013   0.111  0.00  0.00    +0.236 C 
ATOM     14  O   SER A   2      -6.513  -0.595   1.183  0.00  0.00    -0.274 OA
ATOM     15  N   UNK A   3      -5.921   1.329   0.091  0.00  0.00    -0.300 N 
ATOM     16  H   UNK A   3      -5.947   1.822  -0.794  0.00  0.00    +0.150 HD
ATOM     17  C   UNK A   3      -4.792   1.675   0.986  0.00  0.00    +0.185 C 
ATOM     18  C   UNK A   3      -4.148   3.088   0.786  0.00  0.00    +0.240 C 
ATOM     19  O   UNK A   3      -4.611   3.920   0.010  0.00  0.00    -0.273 OA
ATOM     20  N   UNK A   3      -2.933   3.257   1.471  0.00  0.00    -0.279 N 
ATOM     21  H   UNK A   3      -2.822   2.631   2.269  0.00  0.00    +0.155 HD
ATOM     22  C   UNK A   3      -1.724   3.305   0.743  0.00  0.00    +0.110 C 
ATOM     23  C   UNK A   3      -1.329   4.308  -0.042  0.00  0.00    +0.104 C 
ATOM     24  C   UNK A   3      -0.724   2.227   1.078  0.00  0.00    +0.260 C 
ATOM     25  O   UNK A   3      -0.416   2.094   2.253  0.00  0.00    -0.269 OA
ATOM     26  N   UNK A   3      -0.411   1.372   0.046  0.00  0.00    -0.296 N 
ATOM     27  H   UNK A   3      -0.710   1.645  -0.888  0.00  0.00    +0.150 HD
ENDROOT
BRANCH   1  28
ATOM     28  C   UNK A   3       0.338  -0.855   1.276  0.00  0.00    +0.170 C 
ATOM     29  N   UNK A   3       0.736  -0.212   2.540  0.00  0.00    -0.233 N 
ATOM     30  H   UNK A   3       0.388  -0.777   3.312  0.00  0.00    +0.245 HD
ATOM     31  C   UNK A   3       2.061  -0.009   2.736  0.00  0.00    +0.364 C 
ATOM     32  N   UNK A   3       2.618   1.143   2.728  0.00  0.00    -0.133 NA
ATOM     33  H   UNK A   3       1.841   1.815   2.631  0.00  0.00    +0.306 HD
ATOM     34  N   UNK A   3       2.761  -1.163   2.712  0.00  0.00    -0.213 N 
ATOM     35  H   UNK A   3       3.735  -0.988   2.936  0.00  0.00    +0.247 HD
ATOM     36  C   UNK A   3       2.673  -1.832   1.443  0.00  0.00    +0.269 C 
ATOM     37  C   UNK A   3       1.203  -2.145   1.165  0.00  0.00    +0.109 C 
BRANCH  36  38
ATOM     38  O   UNK A   3       3.438  -3.014   1.495  0.00  0.00    -0.362 OA
ATOM     39  H   UNK A   3       3.684  -3.227   0.579  0.00  0.00    +0.213 HD
ENDBRANCH  36  38
ENDBRANCH   1  28
BRANCH  23  40
ATOM     40  N   UNK A   3      -2.038   5.477  -0.191  0.00  0.00    -0.274 N 
ATOM     41  H   UNK A   3      -2.952   5.546   0.244  0.00  0.00    +0.156 HD
ATOM     42  C   UNK A   3      -1.559   6.564  -0.869  0.00  0.00    +0.301 C 
ATOM     43  O   UNK A   3      -0.527   6.600  -1.527  0.00  0.00    -0.253 OA
ATOM     44  N   UNK A   3      -2.345   7.665  -0.741  0.00  0.00    -0.313 N 
ATOM     45  H   UNK A   3      -1.927   8.500  -1.135  0.00  0.00    +0.146 HD
ATOM     46  H   UNK A   3      -2.824   7.804   0.136  0.00  0.00    +0.146 HD
ENDBRANCH  23  40
BRANCH   7  47
ATOM     47  N   UNK A   3      -3.020  -4.227  -2.500  0.00  0.00    -0.303 N 
ATOM     48  H   UNK A   1      -3.682  -4.344  -3.263  0.00  0.00    +0.149 HD
ATOM     49  C   UNK A   0      -2.248  -5.291  -2.082  0.00  0.00    +0.215 C 
ATOM     50  O   UNK A   0      -1.395  -5.164  -1.206  0.00  0.00    -0.276 OA
BRANCH  49  51
ATOM     51  C   UNK A   0      -2.543  -6.601  -2.808  0.00  0.00    +0.114 C 
BRANCH  51  52
ATOM     52  C   UNK A   0      -1.761  -7.817  -2.269  0.00  0.00    +0.059 C 
BRANCH  52  53
ATOM     53  N   UNK A   0      -2.136  -8.090  -0.872  0.00  0.00    -0.327 NA
ATOM     54  H   UNK A   0      -1.548  -8.840  -0.504  0.00  0.00    +0.118 HD
ATOM     55  H   UNK A   0      -1.897  -7.268  -0.309  0.00  0.00    +0.118 HD
ENDBRANCH  52  53
BRANCH  52  56
ATOM     56  C   UNK A   0      -2.026  -9.112  -3.073  0.00  0.00    +0.020 C 
BRANCH  56  57
ATOM     57  C   UNK A   0      -1.587  -9.025  -4.538  0.00  0.00    +0.016 C 
BRANCH  57  58
ATOM     58  C   UNK A   0      -1.855 -10.327  -5.295  0.00  0.00    +0.078 C 
BRANCH  58  59
ATOM     59  N   UNK A   0      -1.445 -10.176  -6.687  0.00  0.00    -0.330 NA
ATOM     60  H   UNK A   0      -1.676 -11.023  -7.204  0.00  0.00    +0.118 HD
ATOM     61  H   UNK A   0      -1.978  -9.425  -7.125  0.00  0.00    +0.118 HD
ENDBRANCH  58  59
ENDBRANCH  57  58
ENDBRANCH  56  57
ENDBRANCH  52  56
ENDBRANCH  51  52
ENDBRANCH  49  51
ENDBRANCH   7  47
BRANCH  12  62
ATOM     62  CB  SER A   2      -7.353  -1.697  -1.462  0.00  0.00    +0.187 C 
BRANCH  62  63
ATOM     63  OG  SER A   2      -7.241  -2.487  -2.647  0.00  0.00    -0.393 OA
ATOM     64  H   SER A   2      -6.349  -2.356  -3.030  0.00  0.00    +0.209 HD
ENDBRANCH  62  63
ENDBRANCH  12  62
BRANCH  17  65
ATOM     65  C   UNK A   3      -3.670   0.663   0.686  0.00  0.00    +0.187 C 
BRANCH  65  66
ATOM     66  O   UNK A   3      -3.271   0.725  -0.693  0.00  0.00    -0.393 OA
ATOM     67  H   UNK A   3      -3.586   1.553  -1.105  0.00  0.00    +0.209 HD
ENDBRANCH  65  66
ENDBRANCH  17  65
TORSDOF 15
