REMARK  Name = 
REMARK  9 active torsions:
REMARK  status: ('A' for Active; 'I' for Inactive)
REMARK    1  A    between atoms: C_2  and  C_3
REMARK    2  A    between atoms: C_3  and  C_4
REMARK    3  A    between atoms: C_6  and  O_7
REMARK    4  A    between atoms: O_7  and  C_8
REMARK    5  A    between atoms: C_8  and  C_9
REMARK    6  A    between atoms: C_9  and  C_10
REMARK    7  A    between atoms: C_10  and  C_11
REMARK    8  A    between atoms: C_12  and  O_13
REMARK    9  A    between atoms: O_13  and  C_14
REMARK                            x       y       z     vdW  Elec       q    Type
REMARK                         _______ _______ _______ _____ _____    ______ ____
ROOT
ATOM      1  C   UNL     1       3.913   0.083  -1.535  0.00  0.00    -0.042 A 
ATOM      2  C   UNL     1       4.648  -1.102  -1.627  0.00  0.00    +0.007 A 
ATOM      3  C   UNL     1       6.025  -1.067  -1.862  0.00  0.00    +0.049 A 
ATOM      4  C   UNL     1       6.690   0.156  -2.011  0.00  0.00    +0.162 A 
ATOM      5  C   UNL     1       5.957   1.355  -1.912  0.00  0.00    +0.162 A 
ATOM      6  C   UNL     1       4.575   1.308  -1.692  0.00  0.00    +0.053 A 
ENDROOT
BRANCH   4   7
ATOM      7  O   UNL     1       8.038   0.282  -2.242  0.00  0.00    -0.491 OA
ATOM      8  C   UNL     1       8.806  -0.912  -2.309  0.00  0.00    +0.277 C 
ENDBRANCH   4   7
BRANCH   1   9
ATOM      9  C   UNL     1       2.427   0.042  -1.266  0.00  0.00    +0.059 C 
BRANCH   9  10
ATOM     10  C   UNL     1       1.562   0.026  -2.540  0.00  0.00    +0.096 C 
ATOM     11  N   UNL     1       1.715  -1.207  -3.284  0.00  0.00    -0.295 N 
ATOM     12  H   UNL     1       2.557  -1.517  -3.749  0.00  0.00    +0.151 HD
ATOM     13  C   UNL     1       0.717  -2.106  -2.957  0.00  0.00    +0.300 C 
ATOM     14  O   UNL     1       0.671  -3.277  -3.278  0.00  0.00    -0.253 OA
ATOM     15  N   UNL     1      -0.217  -1.433  -2.189  0.00  0.00    -0.298 N 
ATOM     16  H   UNL     1      -1.098  -1.874  -1.963  0.00  0.00    +0.150 HD
ATOM     17  C   UNL     1       0.074  -0.024  -2.163  0.00  0.00    +0.128 C 
ENDBRANCH   9  10
ENDBRANCH   1   9
BRANCH   5  18
ATOM     18  O   UNL     1       6.653   2.527  -2.095  0.00  0.00    -0.488 OA
BRANCH  18  19
ATOM     19  C   UNL     1       6.161   3.665  -1.385  0.00  0.00    +0.229 C 
BRANCH  19  20
ATOM     20  C   UNL     1       7.113   4.836  -1.624  0.00  0.00    +0.041 C 
BRANCH  20  21
ATOM     21  C   UNL     1       6.629   6.096  -0.910  0.00  0.00    -0.000 C 
ATOM     22  C   UNL     1       7.538   7.284  -1.179  0.00  0.00    +0.004 C 
ENDBRANCH  20  21
ENDBRANCH  19  20
ENDBRANCH  18  19
ENDBRANCH   5  18
TORSDOF 7
