REMARK  Name = 
REMARK  15 active torsions:
REMARK  status: ('A' for Active; 'I' for Inactive)
REMARK    1  A    between atoms: C_1  and  C_2
REMARK    2  A    between atoms: C_2  and  C_3
REMARK    3  A    between atoms: C_3  and  O_4
REMARK    4  A    between atoms: O_4  and  C_5
REMARK    5  A    between atoms: C_6  and  C_23
REMARK    6  A    between atoms: C_8  and  S_11
REMARK    7  A    between atoms: S_11  and  N_14
REMARK    8  A    between atoms: N_14  and  C_15
REMARK    9  A    between atoms: C_15  and  C_16
REMARK   10  A    between atoms: C_16  and  C_17
REMARK   11  A    between atoms: N_21  and  C_22
REMARK   12  A    between atoms: C_30  and  C_31
REMARK   13  A    between atoms: C_31  and  C_32
REMARK   14  A    between atoms: C_32  and  C_33
REMARK   15  A    between atoms: N_35  and  C_36
REMARK                            x       y       z     vdW  Elec       q    Type
REMARK                         _______ _______ _______ _____ _____    ______ ____
ROOT
ATOM      1  C   UNL     1       5.106  -1.670   2.164  0.00  0.00    +0.131 A 
ATOM      2  C   UNL     1       4.854  -3.039   2.252  0.00  0.00    +0.048 A 
ATOM      3  C   UNL     1       5.577  -3.833   3.137  0.00  0.00    +0.032 A 
ATOM      4  C   UNL     1       6.545  -3.266   3.964  0.00  0.00    +0.106 A 
ATOM      5  C   UNL     1       6.859  -1.910   3.850  0.00  0.00    +0.043 A 
ATOM      6  C   UNL     1       6.152  -1.112   2.934  0.00  0.00    +0.061 A 
ENDROOT
BRANCH   6   7
ATOM      7  C   UNL     1       6.533   0.338   2.801  0.00  0.00    +0.146 A 
ATOM      8  N   UNL     1       5.513   1.225   2.507  0.00  0.00    -0.336 N 
ATOM      9  H   UNL     1       4.606   0.856   2.247  0.00  0.00    +0.167 HD
ATOM     10  C   UNL     1       5.859   2.502   2.347  0.00  0.00    +0.095 A 
ATOM     11  C   UNL     1       5.125   3.658   2.046  0.00  0.00    +0.087 A 
ATOM     12  N   UNL     1       5.944   4.723   1.978  0.00  0.00    -0.174 NA
ATOM     13  N   UNL     1       7.176   4.215   2.243  0.00  0.00    -0.260 N 
ATOM     14  C   UNL     1       8.325   5.086   2.226  0.00  0.00    +0.173 C 
ATOM     15  C   UNL     1       7.159   2.877   2.493  0.00  0.00    +0.151 A 
ATOM     16  C   UNL     1       8.213   1.971   2.825  0.00  0.00    +0.299 A 
ATOM     17  O   UNL     1       9.381   2.316   2.952  0.00  0.00    -0.263 OA
ATOM     18  N   UNL     1       7.789   0.656   2.979  0.00  0.00    -0.189 NA
BRANCH  11  19
ATOM     19  C   UNL     1       3.654   3.801   1.838  0.00  0.00    +0.059 C 
BRANCH  19  20
ATOM     20  C   UNL     1       2.808   3.326   3.025  0.00  0.00    +0.003 C 
ATOM     21  C   UNL     1       3.072   4.105   4.306  0.00  0.00    +0.004 C 
ENDBRANCH  19  20
ENDBRANCH  11  19
ENDBRANCH   6   7
BRANCH   4  22
ATOM     22  S   UNL     1       7.423  -4.304   5.116  0.00  0.00    +0.058 S 
ATOM     23  O   UNL     1       8.214  -3.435   5.957  0.00  0.00    -0.153 OA
ATOM     24  O   UNL     1       7.999  -5.387   4.352  0.00  0.00    -0.153 OA
BRANCH  22  25
ATOM     25  N   UNL     1       6.175  -4.923   6.101  0.00  0.00    -0.190 NA
ATOM     26  H   UNL     1       5.513  -4.197   6.375  0.00  0.00    +0.148 HD
BRANCH  25  27
ATOM     27  C   UNL     1       5.581  -6.198   5.662  0.00  0.00    +0.107 C 
BRANCH  27  28
ATOM     28  C   UNL     1       4.523  -6.713   6.633  0.00  0.00    +0.035 C 
BRANCH  28  29
ATOM     29  C   UNL     1       3.885  -8.000   6.074  0.00  0.00    +0.058 C 
ATOM     30  N   UNL     1       2.895  -8.577   6.999  0.00  0.00    -0.302 NA
ATOM     31  C   UNL     1       1.537  -8.120   6.717  0.00  0.00    +0.105 C 
ATOM     32  C   UNL     1       2.994 -10.045   6.926  0.00  0.00    +0.084 C 
ATOM     33  C   UNL     1       4.051 -10.362   5.883  0.00  0.00    +0.017 C 
ATOM     34  C   UNL     1       4.905  -9.117   5.865  0.00  0.00    +0.020 C 
ENDBRANCH  28  29
ENDBRANCH  27  28
ENDBRANCH  25  27
ENDBRANCH  22  25
ENDBRANCH   4  22
BRANCH   1  35
ATOM     35  O   UNL     1       4.452  -0.870   1.264  0.00  0.00    -0.491 OA
BRANCH  35  36
ATOM     36  C   UNL     1       3.060  -1.117   1.040  0.00  0.00    +0.229 C 
BRANCH  36  38
ATOM     37  C   UNL     1       1.286  -1.012  -0.735  0.00  0.00    +0.007 C 
ATOM     38  C   UNL     1       2.741  -0.737  -0.402  0.00  0.00    +0.038 C 
ENDBRANCH  36  38
ENDBRANCH  35  36
ENDBRANCH   1  35
TORSDOF 11
