REMARK  Name = 
REMARK  8 active torsions:
REMARK  status: ('A' for Active; 'I' for Inactive)
REMARK    1  A    between atoms: C_2  and  C_14
REMARK    2  A    between atoms: C_7  and  C_9
REMARK    3  A    between atoms: C_9  and  C_10
REMARK    4  A    between atoms: C_10  and  C_11
REMARK    5  A    between atoms: C_11  and  C_12
REMARK    6  A    between atoms: C_11  and  C_13
REMARK    7  A    between atoms: N_16  and  C_17
REMARK    8  A    between atoms: C_17  and  C_18
REMARK                            x       y       z     vdW  Elec       q    Type
REMARK                         _______ _______ _______ _____ _____    ______ ____
ROOT
ATOM      1  C   UNL     1       2.181  -0.001   0.020  0.00  0.00    +0.162 C 
ATOM      2  N   UNL     1       2.770  -1.203   0.623  0.00  0.00    -0.290 N 
ATOM      3  C   UNL     1       2.263  -2.484   0.617  0.00  0.00    +0.216 C 
ATOM      4  O   UNL     1       2.778  -3.374   1.293  0.00  0.00    -0.276 OA
ATOM      5  C   UNL     1       3.838  -0.854   1.550  0.00  0.00    +0.108 C 
ATOM      6  C   UNL     1       4.055   0.642   1.371  0.00  0.00    +0.021 C 
ATOM      7  C   UNL     1       2.694   1.140   0.901  0.00  0.00    +0.033 C 
ENDROOT
BRANCH   1   8
ATOM      8  C   UNL     1       2.590   0.227  -1.451  0.00  0.00    +0.234 C 
ATOM      9  N   UNL     1       3.429  -0.718  -1.994  0.00  0.00    -0.310 N 
ATOM     10  H   UNL     1       3.723  -1.501  -1.422  0.00  0.00    +0.149 HD
ATOM     11  O   UNL     1       2.196   1.200  -2.087  0.00  0.00    -0.274 OA
BRANCH   9  12
ATOM     12  C   UNL     1       3.921  -0.588  -3.344  0.00  0.00    +0.139 C 
BRANCH  12  13
ATOM     13  C   UNL     1       4.869  -1.702  -3.692  0.00  0.00    -0.029 A 
ATOM     14  C   UNL     1       6.236  -1.592  -3.395  0.00  0.00    +0.005 A 
ATOM     15  C   UNL     1       7.115  -2.633  -3.703  0.00  0.00    +0.002 A 
ATOM     16  C   UNL     1       6.636  -3.797  -4.303  0.00  0.00    +0.020 A 
ATOM     17  C   UNL     1       5.279  -3.916  -4.592  0.00  0.00    +0.041 A 
ATOM     18 CL   UNL     1       4.686  -5.353  -5.331  0.00  0.00    -0.084 Cl
ATOM     19  C   UNL     1       4.395  -2.880  -4.288  0.00  0.00    +0.025 A 
ENDBRANCH  12  13
ENDBRANCH   9  12
ENDBRANCH   1   8
BRANCH   3  20
ATOM     20  C   UNL     1       1.102  -2.786  -0.320  0.00  0.00    +0.096 C 
BRANCH  20  21
ATOM     21  C   UNL     1       0.163  -3.864   0.230  0.00  0.00    +0.012 C 
BRANCH  21  22
ATOM     22  C   UNL     1      -0.540  -3.493   1.553  0.00  0.00    -0.017 C 
ATOM     23  C   UNL     1      -1.426  -4.655   2.011  0.00  0.00    +0.007 C 
ATOM     24  C   UNL     1      -1.378  -2.219   1.442  0.00  0.00    +0.007 C 
ENDBRANCH  21  22
ENDBRANCH  20  21
ENDBRANCH   3  20
TORSDOF 6
