REMARK  Name = 
REMARK  6 active torsions:
REMARK  status: ('A' for Active; 'I' for Inactive)
REMARK    1  A    between atoms: C_1  and  C_2
REMARK    2  A    between atoms: N_4  and  CA_5
REMARK    3  A    between atoms: CA_5  and  CB_7
REMARK    4  A    between atoms: CA_5  and  C_9
REMARK    5  A    between atoms: CB_7  and  SG_8
REMARK    6  A    between atoms: C_9  and  O_10
REMARK                            x       y       z     vdW  Elec       q    Type
REMARK                         _______ _______ _______ _____ _____    ______ ____
ROOT
ATOM      1  CA  CYS A   1       4.641  -0.148   1.297  0.00  0.00    +0.191 C 
ENDROOT
BRANCH   1   4
ATOM      2  C   UNK A   0       0.942  -1.034   1.055  0.00  0.00    +0.109 C 
ATOM      3  C   UNK A   0       2.428  -1.252   1.104  0.00  0.00    +0.211 C 
ATOM      4  N   CYS A   1       3.162  -0.107   1.347  0.00  0.00    -0.302 N 
ATOM      5  H   CYS A   1       2.727   0.776   1.092  0.00  0.00    +0.150 HD
ATOM      6  O   UNK A   0       2.940  -2.362   1.041  0.00  0.00    -0.276 OA
ENDBRANCH   1   4
BRANCH   1   7
ATOM      7  C   CYS A   1       5.242  -0.465   2.672  0.00  0.00    +0.326 C 
ATOM      8  OXT CYS A   1       6.440  -0.496   2.903  0.00  0.00    -0.249 OA
BRANCH   7   9
ATOM      9  O   CYS A   1       4.318  -0.663   3.644  0.00  0.00    -0.479 OA
ATOM     10  H   CYS A   1       3.423  -0.652   3.252  0.00  0.00    +0.295 HD
ENDBRANCH   7   9
ENDBRANCH   1   7
BRANCH   1  11
ATOM     11  CB  CYS A   1       5.240   1.186   0.831  0.00  0.00    +0.099 C 
BRANCH  11  12
ATOM     12  SG  CYS A   1       4.598   1.678  -0.806  0.00  0.00    -0.176 S 
ATOM     13  HG  CYS A   1       4.926   0.545  -1.450  0.00  0.00    +0.102 HD
ENDBRANCH  11  12
ENDBRANCH   1  11
TORSDOF 5
