REMARK  Name = 
REMARK  11 active torsions:
REMARK  status: ('A' for Active; 'I' for Inactive)
REMARK    1  A    between atoms: C_2  and  C_3
REMARK    2  A    between atoms: C_2  and  O_27
REMARK    3  A    between atoms: C_2  and  C_30
REMARK    4  A    between atoms: C_3  and  C_4
REMARK    5  A    between atoms: N_10  and  C_11
REMARK    6  A    between atoms: C_11  and  C_12
REMARK    7  A    between atoms: C_13  and  C_14
REMARK    8  A    between atoms: C_16  and  C_18
REMARK    9  A    between atoms: O_27  and  C_28
REMARK   10  A    between atoms: C_28  and  C_29
REMARK   11  A    between atoms: C_30  and  O_31
REMARK                            x       y       z     vdW  Elec       q    Type
REMARK                         _______ _______ _______ _____ _____    ______ ____
ROOT
ATOM      1  C   UNL     1       1.661  -1.172   1.941  0.00  0.00    -0.044 A 
ATOM      2  C   UNL     1       1.094  -2.422   2.222  0.00  0.00    +0.006 A 
ATOM      3  C   UNL     1       0.597  -2.737   3.495  0.00  0.00    +0.026 A 
ATOM      4  C   UNL     1       0.667  -1.748   4.487  0.00  0.00    +0.049 A 
ATOM      5  N   UNL     1       0.468  -1.777   5.852  0.00  0.00    -0.341 N 
ATOM      6  C   UNL     1       0.446  -0.495   6.355  0.00  0.00    +0.087 A 
ATOM      7  C   UNL     1       0.874   0.343   5.357  0.00  0.00    +0.027 A 
ATOM      8  C   UNL     1       1.082  -0.451   4.201  0.00  0.00    +0.000 A 
ATOM      9  C   UNL     1       1.616  -0.183   2.934  0.00  0.00    +0.013 A 
ENDROOT
BRANCH   1  10
ATOM     10  C   UNL     1       2.374  -0.966   0.617  0.00  0.00    +0.078 C 
BRANCH  10  11
ATOM     11  C   UNL     1       2.594   0.481   0.135  0.00  0.00    +0.230 C 
BRANCH  11  12
ATOM     12  C   UNL     1       1.224   1.116  -0.136  0.00  0.00    +0.334 C 
ATOM     13  O   UNL     1       0.406   0.692  -0.938  0.00  0.00    -0.248 OA
BRANCH  12  14
ATOM     14  O   UNL     1       1.009   2.222   0.623  0.00  0.00    -0.479 OA
ATOM     15  H   UNL     1       1.812   2.366   1.176  0.00  0.00    +0.295 HD
ENDBRANCH  12  14
ENDBRANCH  11  12
BRANCH  11  16
ATOM     16  O   UNL     1       3.311   1.342   1.047  0.00  0.00    -0.365 OA
BRANCH  16  17
ATOM     17  C   UNL     1       4.616   0.888   1.404  0.00  0.00    +0.157 C 
ATOM     18  C   UNL     1       5.157   1.824   2.470  0.00  0.00    +0.034 C 
ENDBRANCH  16  17
ENDBRANCH  11  16
ENDBRANCH  10  11
ENDBRANCH   1  10
BRANCH   5  19
ATOM     19  C   UNL     1       0.392  -2.973   6.668  0.00  0.00    +0.180 C 
BRANCH  19  20
ATOM     20  C   UNL     1       1.692  -3.369   7.298  0.00  0.00    +0.102 A 
ATOM     21  N   UNL     1       1.639  -4.400   8.226  0.00  0.00    -0.212 NA
ATOM     22  C   UNL     1       2.878  -4.546   8.649  0.00  0.00    +0.229 A 
ATOM     23  O   UNL     1       3.765  -3.721   8.030  0.00  0.00    -0.440 OA
ATOM     24  C   UNL     1       3.010  -2.954   7.181  0.00  0.00    +0.127 A 
ATOM     25  C   UNL     1       3.802  -1.960   6.430  0.00  0.00    +0.088 C 
BRANCH  22  26
ATOM     26  C   UNL     1       3.399  -5.518   9.603  0.00  0.00    +0.055 A 
ATOM     27  C   UNL     1       2.679  -6.727   9.738  0.00  0.00    +0.014 A 
ATOM     28  C   UNL     1       3.078  -7.715  10.638  0.00  0.00    +0.001 A 
ATOM     29  C   UNL     1       4.203  -7.522  11.427  0.00  0.00    +0.001 A 
ATOM     30  C   UNL     1       4.927  -6.334  11.316  0.00  0.00    +0.021 A 
ATOM     31  C   UNL     1       4.529  -5.337  10.413  0.00  0.00    +0.053 A 
ATOM     32 CL   UNL     1       5.475  -3.884  10.418  0.00  0.00    -0.083 Cl
ENDBRANCH  22  26
ENDBRANCH  19  20
ENDBRANCH   5  19
TORSDOF 9
