REMARK  Name = 
REMARK  7 active torsions:
REMARK  status: ('A' for Active; 'I' for Inactive)
REMARK    1  A    between atoms: O_1  and  C_2
REMARK    2  A    between atoms: C_2  and  C_4
REMARK    3  A    between atoms: C_4  and  C_5
REMARK    4  A    between atoms: C_5  and  O_6
REMARK    5  A    between atoms: O_6  and  N_7
REMARK    6  A    between atoms: C_8  and  C_9
REMARK    7  A    between atoms: C_10  and  C_15
REMARK                            x       y       z     vdW  Elec       q    Type
REMARK                         _______ _______ _______ _____ _____    ______ ____
ROOT
ATOM      1  C   UNL     1       8.915   0.535   3.355  0.00  0.00    +0.008 A 
ATOM      2  C   UNL     1       9.604   0.861   2.175  0.00  0.00    +0.010 A 
ATOM      3  C   UNL     1      10.998   0.910   2.161  0.00  0.00    +0.001 A 
ATOM      4  C   UNL     1      11.712   0.625   3.319  0.00  0.00    +0.001 A 
ATOM      5  C   UNL     1      11.032   0.284   4.488  0.00  0.00    +0.013 A 
ATOM      6  C   UNL     1       9.622   0.229   4.528  0.00  0.00    +0.063 A 
ENDROOT
BRANCH   6   7
ATOM      7  C   UNL     1       8.984  -0.208   5.822  0.00  0.00    +0.418 C 
ATOM      8  F   UNL     1       9.252   0.658   6.838  0.00  0.00    -0.166 F 
ATOM      9  F   UNL     1       9.449  -1.420   6.238  0.00  0.00    -0.166 F 
ATOM     10  F   UNL     1       7.631  -0.333   5.798  0.00  0.00    -0.166 F 
ENDBRANCH   6   7
BRANCH   1  12
ATOM     11  N   UNL     1       6.811   0.107   2.252  0.00  0.00    -0.093 NA
ATOM     12  C   UNL     1       7.440   0.525   3.303  0.00  0.00    +0.161 C 
BRANCH  11  13
ATOM     13  O   UNL     1       5.433   0.142   2.488  0.00  0.00    -0.393 OA
BRANCH  13  14
ATOM     14  C   UNL     1       4.792  -0.685   1.508  0.00  0.00    +0.274 C 
BRANCH  14  15
ATOM     15  C   UNL     1       3.428  -0.104   1.203  0.00  0.00    +0.164 C 
BRANCH  15  16
ATOM     16  C   UNL     1       3.549   1.201   0.463  0.00  0.00    +0.308 C 
ATOM     17  O   UNL     1       3.082   1.392  -0.650  0.00  0.00    -0.251 OA
BRANCH  16  18
ATOM     18  O   UNL     1       4.172   2.175   1.162  0.00  0.00    -0.481 OA
ATOM     19  H   UNL     1       4.581   1.844   1.991  0.00  0.00    +0.295 HD
ENDBRANCH  16  18
ENDBRANCH  15  16
ENDBRANCH  14  15
ENDBRANCH  13  14
ENDBRANCH  11  13
ENDBRANCH   1  12
TORSDOF 7
