REMARK  Name = 
REMARK  4 active torsions:
REMARK  status: ('A' for Active; 'I' for Inactive)
REMARK    1  A    between atoms: C_1  and  O_2
REMARK    2  A    between atoms: C_1  and  C_19
REMARK    3  A    between atoms: O_2  and  C_3
REMARK    4  A    between atoms: N_11  and  C_12
REMARK                            x       y       z     vdW  Elec       q    Type
REMARK                         _______ _______ _______ _____ _____    ______ ____
ROOT
ATOM      1  C   UNL     1      -0.784   1.578   0.476  0.00  0.00    +0.246 A 
ATOM      2  N   UNL     1      -1.597   0.513   0.520  0.00  0.00    -0.177 NA
ATOM      3  C   UNL     1      -2.933   0.682   0.587  0.00  0.00    +0.225 A 
ATOM      4  N   UNL     1      -3.757  -0.448   0.579  0.00  0.00    -0.283 N 
ATOM      5  H   UNL     1      -4.722  -0.174   0.701  0.00  0.00    +0.155 HD
ATOM      6  N   UNL     1      -3.554   1.867   0.661  0.00  0.00    -0.193 NA
ATOM      7  C   UNL     1      -2.726   2.926   0.605  0.00  0.00    +0.186 A 
ATOM      8  N   UNL     1      -3.100   4.245   0.595  0.00  0.00    -0.216 NA
ATOM      9  C   UNL     1      -1.974   4.921   0.501  0.00  0.00    +0.199 A 
ATOM     10  N   UNL     1      -0.885   4.094   0.472  0.00  0.00    -0.339 N 
ATOM     11  H   UNL     1       0.085   4.371   0.398  0.00  0.00    +0.167 HD
ATOM     12  C   UNL     1      -1.355   2.816   0.518  0.00  0.00    +0.147 A 
ENDROOT
BRANCH   4  13
ATOM     13  C   UNL     1      -3.529  -1.742   0.083  0.00  0.00    +0.034 A 
ATOM     14  C   UNL     1      -4.460  -2.756   0.351  0.00  0.00    +0.023 A 
ATOM     15  C   UNL     1      -4.241  -4.073  -0.076  0.00  0.00    +0.002 A 
ATOM     16  C   UNL     1      -3.076  -4.403  -0.764  0.00  0.00    +0.000 A 
ATOM     17  C   UNL     1      -2.134  -3.418  -1.028  0.00  0.00    +0.002 A 
ATOM     18  C   UNL     1      -2.363  -2.106  -0.607  0.00  0.00    +0.023 A 
ENDBRANCH   4  13
BRANCH   1  19
ATOM     19  O   UNL     1       0.581   1.425   0.387  0.00  0.00    -0.475 OA
BRANCH  19  20
ATOM     20  C   UNL     1       0.942   0.148  -0.153  0.00  0.00    +0.234 C 
BRANCH  20  21
ATOM     21  C   UNL     1       2.474   0.024  -0.149  0.00  0.00    +0.027 C 
ATOM     22  C   UNL     1       2.937  -1.230  -0.904  0.00  0.00    +0.007 C 
ATOM     23  C   UNL     1       2.631  -2.525  -0.152  0.00  0.00    +0.000 C 
ATOM     24  C   UNL     1       3.189  -2.498   1.268  0.00  0.00    +0.000 C 
ATOM     25  C   UNL     1       2.741  -1.262   2.043  0.00  0.00    +0.000 C 
ATOM     26  C   UNL     1       3.046   0.027   1.280  0.00  0.00    +0.007 C 
ENDBRANCH  20  21
ENDBRANCH  19  20
ENDBRANCH   1  19
TORSDOF 4
