REMARK  Name = 
REMARK  9 active torsions:
REMARK  status: ('A' for Active; 'I' for Inactive)
REMARK    1  A    between atoms: C_2  and  C_14
REMARK    2  A    between atoms: C_7  and  C_9
REMARK    3  A    between atoms: C_9  and  C_10
REMARK    4  A    between atoms: C_10  and  C_11
REMARK    5  A    between atoms: C_11  and  C_12
REMARK    6  A    between atoms: C_11  and  C_13
REMARK    7  A    between atoms: N_16  and  C_17
REMARK    8  A    between atoms: C_17  and  C_18
REMARK    9  A    between atoms: C_21  and  C_24
REMARK                            x       y       z     vdW  Elec       q    Type
REMARK                         _______ _______ _______ _____ _____    ______ ____
ROOT
ATOM      1  C   UNL     1       2.543   0.082  -1.533  0.00  0.00    +0.234 C 
ATOM      2  N   UNL     1       3.775  -0.386  -1.933  0.00  0.00    -0.310 N 
ATOM      3  H   UNL     1       4.306  -0.952  -1.283  0.00  0.00    +0.149 HD
ATOM      4  O   UNL     1       1.812   0.747  -2.265  0.00  0.00    -0.274 OA
ENDROOT
BRANCH   1   5
ATOM      5  C   UNL     1       2.200  -0.132  -0.043  0.00  0.00    +0.162 C 
ATOM      6  N   UNL     1       2.837  -1.317   0.548  0.00  0.00    -0.290 N 
ATOM      7  C   UNL     1       2.331  -2.604   0.547  0.00  0.00    +0.216 C 
ATOM      8  O   UNL     1       2.829  -3.484   1.249  0.00  0.00    -0.276 OA
ATOM      9  C   UNL     1       3.886  -0.949   1.485  0.00  0.00    +0.108 C 
ATOM     10  C   UNL     1       4.083   0.546   1.299  0.00  0.00    +0.021 C 
ATOM     11  C   UNL     1       2.722   1.027   0.809  0.00  0.00    +0.033 C 
BRANCH   7  12
ATOM     12  C   UNL     1       1.160  -2.881  -0.386  0.00  0.00    +0.096 C 
BRANCH  12  13
ATOM     13  C   UNL     1       0.673  -4.332  -0.297  0.00  0.00    +0.012 C 
BRANCH  13  14
ATOM     14  C   UNL     1      -0.503  -4.652  -1.240  0.00  0.00    -0.017 C 
ATOM     15  C   UNL     1      -0.977  -6.090  -1.012  0.00  0.00    +0.007 C 
ATOM     16  C   UNL     1      -0.139  -4.462  -2.713  0.00  0.00    +0.007 C 
ENDBRANCH  13  14
ENDBRANCH  12  13
ENDBRANCH   7  12
ENDBRANCH   1   5
BRANCH   2  17
ATOM     17  C   UNL     1       4.307  -0.143  -3.256  0.00  0.00    +0.139 C 
BRANCH  17  18
ATOM     18  C   UNL     1       5.057   1.167  -3.331  0.00  0.00    -0.030 A 
ATOM     19  C   UNL     1       4.376   2.360  -3.617  0.00  0.00    +0.006 A 
ATOM     20  C   UNL     1       5.050   3.586  -3.640  0.00  0.00    +0.016 A 
ATOM     21  C   UNL     1       6.421   3.636  -3.370  0.00  0.00    +0.065 A 
ATOM     22  C   UNL     1       7.116   2.448  -3.113  0.00  0.00    +0.016 A 
ATOM     23  C   UNL     1       6.437   1.224  -3.086  0.00  0.00    +0.006 A 
BRANCH  21  24
ATOM     24  C   UNL     1       7.124   4.951  -3.340  0.00  0.00    +0.308 C 
ATOM     25  N   UNL     1       8.157   5.179  -2.592  0.00  0.00    -0.099 NA
ATOM     26  H   UNL     1       8.380   4.371  -2.005  0.00  0.00    +0.363 HD
ATOM     27  N   UNL     1       6.695   5.991  -4.108  0.00  0.00    -0.247 N 
ATOM     28  H   UNL     1       7.386   6.738  -4.127  0.00  0.00    +0.288 HD
ATOM     29  H   UNL     1       6.353   5.754  -5.029  0.00  0.00    +0.288 HD
ENDBRANCH  21  24
ENDBRANCH  17  18
ENDBRANCH   2  17
TORSDOF 7
