REMARK  Name = 
REMARK  3 active torsions:
REMARK  status: ('A' for Active; 'I' for Inactive)
REMARK    1  A    between atoms: C_6  and  C_7
REMARK    2  A    between atoms: C_7  and  O_8
REMARK    3  A    between atoms: C_7  and  C_9
REMARK                            x       y       z     vdW  Elec       q    Type
REMARK                         _______ _______ _______ _____ _____    ______ ____
ROOT
ATOM      1  N   UNL     1       0.671  -1.970   0.728  0.00  0.00    +0.210 N 
ATOM      2  H   UNL     1       0.155  -1.613  -0.076  0.00  0.00    +0.198 HD
ATOM      3  H   UNL     1       0.852  -1.224   1.404  0.00  0.00    +0.198 HD
ATOM      4  H   UNL     1       0.319  -2.832   1.122  0.00  0.00    +0.198 HD
ATOM      5  H   UNL     1       1.618  -2.135   0.295  0.00  0.00    +0.198 HD
ENDROOT
TORSDOF 0
REMARK  Name = 
REMARK  3 active torsions:
REMARK  status: ('A' for Active; 'I' for Inactive)
REMARK    1  A    between atoms: C_6  and  C_7
REMARK    2  A    between atoms: C_7  and  O_8
REMARK    3  A    between atoms: C_7  and  C_9
REMARK                            x       y       z     vdW  Elec       q    Type
REMARK                         _______ _______ _______ _____ _____    ______ ____
ROOT
ATOM      1  C   UNL     1       1.352   1.053  -0.812  0.00  0.00    +0.044 C 
ATOM      2  C   UNL     1       2.705   0.928  -0.139  0.00  0.00    +0.157 C 
ENDROOT
BRANCH   2   3
ATOM      3  C   UNL     1       3.264  -0.519  -0.007  0.00  0.00    +0.070 C 
ATOM      4  O   UNL     1       4.202  -0.621   0.825  0.00  0.00    -0.547 OA
ATOM      5  O   UNL     1       2.569  -1.448  -0.523  0.00  0.00    -0.547 OA
ENDBRANCH   2   3
BRANCH   2   6
ATOM      6  O   UNL     1       2.575   1.457   1.200  0.00  0.00    -0.386 OA
ATOM      7  H   UNL     1       3.382   1.109   1.652  0.00  0.00    +0.210 HD
ENDBRANCH   2   6
TORSDOF 2
