REMARK  Name = 
REMARK  12 active torsions:
REMARK  status: ('A' for Active; 'I' for Inactive)
REMARK    1  A    between atoms: C_2  and  C_3
REMARK    2  A    between atoms: C_3  and  C_4
REMARK    3  A    between atoms: C_4  and  C_5
REMARK    4  A    between atoms: C_5  and  C_6
REMARK    5  A    between atoms: C_7  and  C_8
REMARK    6  A    between atoms: C_7  and  C_18
REMARK    7  A    between atoms: C_8  and  C_9
REMARK    8  A    between atoms: C_9  and  C_10
REMARK    9  A    between atoms: C_11  and  C_12
REMARK   10  A    between atoms: C_11  and  C_16
REMARK   11  A    between atoms: C_12  and  C_13
REMARK   12  A    between atoms: C_13  and  C_14
REMARK                            x       y       z     vdW  Elec       q    Type
REMARK                         _______ _______ _______ _____ _____    ______ ____
ROOT
ATOM      1  C   UNL     1       7.069  -3.351  -3.119  0.00  0.00    +0.042 C 
ENDROOT
BRANCH   1   3
ATOM      2  C   UNL     1       6.970  -1.791  -1.026  0.00  0.00    -0.020 C 
ATOM      3  C   UNL     1       7.542  -2.285  -2.145  0.00  0.00    -0.012 C 
BRANCH   3   4
ATOM      4  C   UNL     1       8.865  -1.666  -2.475  0.00  0.00    +0.254 C 
ATOM      5  O   UNL     1       9.514  -1.965  -3.467  0.00  0.00    -0.296 OA
ENDBRANCH   3   4
BRANCH   2   6
ATOM      6  C   UNL     1       5.652  -2.182  -0.415  0.00  0.00    +0.028 C 
BRANCH   6   7
ATOM      7  C   UNL     1       5.261  -1.382   0.840  0.00  0.00    +0.011 C 
BRANCH   7   8
ATOM      8  C   UNL     1       5.189   0.137   0.677  0.00  0.00    +0.071 C 
BRANCH   8  10
ATOM      9  O   UNL     1       3.401  -0.086  -0.952  0.00  0.00    -0.301 OA
ATOM     10  C   UNL     1       4.166   0.631  -0.317  0.00  0.00    +0.223 C 
ENDBRANCH   8  10
ENDBRANCH   7   8
ENDBRANCH   6   7
ENDBRANCH   2   6
ENDBRANCH   1   3
BRANCH   1  11
ATOM     11  C   UNL     1       5.554  -3.541  -3.261  0.00  0.00    +0.032 C 
BRANCH  11  12
ATOM     12  C   UNL     1       5.144  -4.521  -4.328  0.00  0.00    -0.020 C 
ATOM     13  C   UNL     1       4.355  -4.273  -5.392  0.00  0.00    -0.012 C 
BRANCH  13  14
ATOM     14  C   UNL     1       3.940  -5.444  -6.229  0.00  0.00    +0.254 C 
ATOM     15  O   UNL     1       3.968  -6.602  -5.827  0.00  0.00    -0.296 OA
ENDBRANCH  13  14
BRANCH  13  16
ATOM     16  C   UNL     1       3.791  -2.938  -5.810  0.00  0.00    +0.045 C 
BRANCH  16  17
ATOM     17  C   UNL     1       4.845  -1.936  -6.282  0.00  0.00    +0.075 C 
BRANCH  17  18
ATOM     18  C   UNL     1       5.649  -2.435  -7.454  0.00  0.00    +0.223 C 
ATOM     19  O   UNL     1       5.233  -3.254  -8.270  0.00  0.00    -0.301 OA
ENDBRANCH  17  18
ENDBRANCH  16  17
ENDBRANCH  13  16
ENDBRANCH  11  12
ENDBRANCH   1  11
TORSDOF 12
