REMARK  Name = 
REMARK  9 active torsions:
REMARK  status: ('A' for Active; 'I' for Inactive)
REMARK    1  A    between atoms: C_2  and  N_3
REMARK    2  A    between atoms: C_2  and  C_4
REMARK    3  A    between atoms: C_2  and  C_13
REMARK    4  A    between atoms: C_13  and  C_15
REMARK    5  A    between atoms: C_13  and  C_19
REMARK    6  A    between atoms: C_15  and  C_16
REMARK    7  A    between atoms: C_22  and  C_26
REMARK    8  A    between atoms: C_29  and  S_33
REMARK    9  A    between atoms: S_33  and  C_34
REMARK                            x       y       z     vdW  Elec       q    Type
REMARK                         _______ _______ _______ _____ _____    ______ ____
ROOT
ATOM      1  C   UNL     1       4.180  -0.768  -0.900  0.00  0.00    +0.216 C 
ATOM      2  O   UNL     1       4.014  -2.086  -0.381  0.00  0.00    -0.279 OA
ATOM      3  N   UNL     1       5.280  -2.479   0.238  0.00  0.00    -0.178 NA
ATOM      4  H   UNL     1       4.969  -2.667   1.194  0.00  0.00    +0.156 HD
ATOM      5  C   UNL     1       6.106  -1.281   0.202  0.00  0.00    +0.183 C 
ATOM      6  N   UNL     1       5.206  -0.161  -0.055  0.00  0.00    -0.269 NA
ATOM      7  H   UNL     1       4.745   0.045   0.825  0.00  0.00    +0.126 HD
ENDROOT
BRANCH   5   8
ATOM      8  C   UNL     1       6.918  -1.085   1.460  0.00  0.00    +0.021 A 
ATOM      9  C   UNL     1       8.311  -0.967   1.373  0.00  0.00    +0.131 A 
ATOM     10  F   UNL     1       8.920  -1.056   0.184  0.00  0.00    -0.205 F 
ATOM     11  C   UNL     1       9.097  -0.738   2.498  0.00  0.00    +0.065 A 
ATOM     12  C   UNL     1       8.480  -0.626   3.743  0.00  0.00    +0.091 A 
ATOM     13  C   UNL     1       7.093  -0.746   3.867  0.00  0.00    +0.027 A 
ATOM     14  C   UNL     1       6.318  -0.980   2.729  0.00  0.00    +0.011 A 
BRANCH  12  15
ATOM     15  S   UNL     1       9.455  -0.217   5.171  0.00  0.00    -0.006 S 
ATOM     16  O   UNL     1       8.569   0.419   6.122  0.00  0.00    -0.170 OA
ATOM     17  O   UNL     1      10.650   0.449   4.699  0.00  0.00    -0.170 OA
ATOM     18  C   UNL     1       9.921  -1.798   5.823  0.00  0.00    +0.200 C 
ENDBRANCH  12  15
ENDBRANCH   5   8
BRANCH   1  19
ATOM     19  C   UNL     1       4.522  -0.779  -2.414  0.00  0.00    +0.061 C 
BRANCH  19  20
ATOM     20  C   UNL     1       4.925   0.655  -2.893  0.00  0.00    +0.145 C 
BRANCH  20  21
ATOM     21  C   UNL     1       5.644   0.555  -4.267  0.00  0.00    +0.233 C 
ATOM     22  N   UNL     1       6.947   0.097  -4.229  0.00  0.00    -0.297 N 
ATOM     23  C   UNL     1       7.924   0.356  -3.181  0.00  0.00    +0.144 C 
ATOM     24  C   UNL     1       9.138  -0.491  -3.551  0.00  0.00    +0.185 C 
ATOM     25  F   UNL     1       9.384  -1.400  -2.572  0.00  0.00    -0.244 F 
ATOM     26  C   UNL     1       8.744  -1.230  -4.826  0.00  0.00    +0.057 C 
ATOM     27  C   UNL     1       7.622  -0.391  -5.410  0.00  0.00    +0.111 C 
ATOM     28  O   UNL     1       5.077   0.781  -5.335  0.00  0.00    -0.274 OA
ENDBRANCH  20  21
BRANCH  20  29
ATOM     29  N   UNL     1       3.790   1.601  -2.947  0.00  0.00    -0.320 NA
ATOM     30  H   UNL     1       3.498   1.838  -2.001  0.00  0.00    +0.119 HD
ATOM     31  H   UNL     1       4.116   2.472  -3.369  0.00  0.00    +0.119 HD
ENDBRANCH  20  29
ENDBRANCH  19  20
BRANCH  19  32
ATOM     32  C   UNL     1       3.366  -1.367  -3.287  0.00  0.00    +0.013 C 
BRANCH  32  33
ATOM     33  C   UNL     1       2.996  -2.799  -2.979  0.00  0.00    -0.010 C 
ATOM     34  C   UNL     1       3.461  -3.928  -3.858  0.00  0.00    +0.004 C 
ATOM     35  C   UNL     1       2.006  -3.549  -3.830  0.00  0.00    +0.004 C 
ENDBRANCH  32  33
ENDBRANCH  19  32
ENDBRANCH   1  19
TORSDOF 8
