REMARK  Name = 
REMARK  5 active torsions:
REMARK  status: ('A' for Active; 'I' for Inactive)
REMARK    1  A    between atoms: C_1  and  C_2
REMARK    2  A    between atoms: C_2  and  C_3
REMARK    3  A    between atoms: C_2  and  C_4
REMARK    4  A    between atoms: C_2  and  C_10
REMARK    5  A    between atoms: C_13  and  O_14
REMARK                            x       y       z     vdW  Elec       q    Type
REMARK                         _______ _______ _______ _____ _____    ______ ____
ROOT
ATOM      1  C   UNL     1       0.995  -0.035  -0.046  0.00  0.00    +0.021 C 
ATOM      2  C   UNL     1       2.543  -0.059  -0.146  0.00  0.00    +0.015 C 
ATOM      3  C   UNL     1       3.079   0.003   1.313  0.00  0.00    +0.021 C 
ENDROOT
BRANCH   2   4
ATOM      4  C   UNL     1       2.921   1.200  -0.966  0.00  0.00    -0.037 A 
ATOM      5  C   UNL     1       2.935   1.179  -2.373  0.00  0.00    +0.008 A 
ATOM      6  C   UNL     1       3.145   2.349  -3.112  0.00  0.00    +0.046 A 
ATOM      7  C   UNL     1       3.329   3.560  -2.459  0.00  0.00    +0.117 A 
ATOM      8  C   UNL     1       3.331   3.617  -1.073  0.00  0.00    +0.046 A 
ATOM      9  C   UNL     1       3.128   2.446  -0.336  0.00  0.00    +0.008 A 
BRANCH   7  10
ATOM     10  O   UNL     1       3.488   4.685  -3.212  0.00  0.00    -0.507 OA
ATOM     11  H   UNL     1       3.518   5.454  -2.617  0.00  0.00    +0.292 HD
ENDBRANCH   7  10
ENDBRANCH   2   4
BRANCH   2  12
ATOM     12  C   UNL     1       3.085  -1.396  -0.719  0.00  0.00    -0.037 A 
ATOM     13  C   UNL     1       4.475  -1.613  -0.819  0.00  0.00    +0.004 A 
ATOM     14  C   UNL     1       4.994  -2.874  -1.136  0.00  0.00    +0.000 A 
ATOM     15  C   UNL     1       4.137  -3.943  -1.381  0.00  0.00    +0.000 A 
ATOM     16  C   UNL     1       2.762  -3.742  -1.346  0.00  0.00    +0.000 A 
ATOM     17  C   UNL     1       2.243  -2.482  -1.028  0.00  0.00    +0.004 A 
ENDBRANCH   2  12
TORSDOF 3
