REMARK  Name = 
REMARK  4 active torsions:
REMARK  status: ('A' for Active; 'I' for Inactive)
REMARK    1  A    between atoms: C_1  and  N_2
REMARK    2  A    between atoms: C_4  and  O_5
REMARK    3  A    between atoms: C_4  and  N_6
REMARK    4  A    between atoms: N_6  and  C_7
REMARK                            x       y       z     vdW  Elec       q    Type
REMARK                         _______ _______ _______ _____ _____    ______ ____
ROOT
ATOM      1  C   UNL     1       0.726  -0.275   0.009  0.00  0.00    +0.158 C 
ATOM      2  N   UNL     1       2.178  -0.023   0.066  0.00  0.00    -0.197 N 
ATOM      3  S   UNL     1       3.039  -1.479   0.085  0.00  0.00    +0.076 S 
ATOM      4  O   UNL     1       2.804  -2.179  -1.156  0.00  0.00    -0.150 OA
ATOM      5  O   UNL     1       2.845  -2.104   1.378  0.00  0.00    -0.150 OA
ATOM      6  C   UNL     1       4.713  -1.175   0.048  0.00  0.00    +0.128 A 
ATOM      7  C   UNL     1       5.727  -2.173   0.033  0.00  0.00    +0.057 A 
ATOM      8  C   UNL     1       6.964  -1.585   0.020  0.00  0.00    +0.081 A 
ATOM      9  S   UNL     1       6.906   0.109   0.016  0.00  0.00    -0.071 S 
ATOM     10 CL   UNL     1       8.478  -2.391   0.015  0.00  0.00    -0.076 Cl
ATOM     11  C   UNL     1       5.191   0.105   0.041  0.00  0.00    +0.089 A 
ATOM     12  C   UNL     1       4.427   1.331   0.062  0.00  0.00    +0.222 C 
ATOM     13  O   UNL     1       4.972   2.434   0.061  0.00  0.00    -0.284 OA
ATOM     14  C   UNL     1       2.893   1.253   0.103  0.00  0.00    +0.156 C 
ATOM     15  C   UNL     1       2.219   2.441   0.149  0.00  0.00    +0.210 C 
ENDROOT
BRANCH  15  16
ATOM     16  N   UNL     1       0.863   2.661   0.200  0.00  0.00    -0.269 N 
ATOM     17  H   UNL     1       0.602   3.517  -0.293  0.00  0.00    +0.156 HD
BRANCH  16  18
ATOM     18  C   UNL     1       0.102   2.722   1.385  0.00  0.00    +0.125 A 
ATOM     19  N   UNL     1      -1.020   3.467   1.316  0.00  0.00    -0.240 NA
ATOM     20  C   UNL     1      -1.864   3.440   2.371  0.00  0.00    +0.113 A 
ATOM     21  C   UNL     1      -1.644   2.692   3.513  0.00  0.00    +0.020 A 
ATOM     22  C   UNL     1      -0.482   1.941   3.583  0.00  0.00    +0.005 A 
ATOM     23  C   UNL     1       0.403   1.957   2.508  0.00  0.00    +0.044 A 
ENDBRANCH  16  18
ENDBRANCH  15  16
BRANCH  15  24
ATOM     24  O   UNL     1       2.858   3.672   0.075  0.00  0.00    -0.494 OA
ATOM     25  H   UNL     1       3.833   3.553   0.075  0.00  0.00    +0.294 HD
ENDBRANCH  15  24
TORSDOF 3
