REMARK  Name = 
REMARK  6 active torsions:
REMARK  status: ('A' for Active; 'I' for Inactive)
REMARK    1  A    between atoms: C_1  and  O_2
REMARK    2  A    between atoms: O_2  and  C_3
REMARK    3  A    between atoms: C_5  and  C_9
REMARK    4  A    between atoms: C_11  and  C_15
REMARK    5  A    between atoms: C_15  and  C_16
REMARK    6  A    between atoms: N_20  and  C_21
REMARK                            x       y       z     vdW  Elec       q    Type
REMARK                         _______ _______ _______ _____ _____    ______ ____
ROOT
ATOM      1  C   UNL     1       3.026   4.617  -1.477  0.00  0.00    -0.017 A 
ATOM      2  C   UNL     1       3.954   5.647  -1.284  0.00  0.00    +0.008 A 
ATOM      3  C   UNL     1       3.553   6.987  -1.307  0.00  0.00    +0.001 A 
ATOM      4  C   UNL     1       2.216   7.327  -1.532  0.00  0.00    +0.007 A 
ATOM      5  C   UNL     1       1.253   6.330  -1.736  0.00  0.00    -0.004 A 
ATOM      6  C   UNL     1       1.684   4.992  -1.682  0.00  0.00    +0.016 A 
ENDROOT
BRANCH   5   7
ATOM      7  C   UNL     1      -0.226   6.655  -2.043  0.00  0.00    +0.157 C 
ATOM      8  N   UNL     1      -0.954   5.421  -2.341  0.00  0.00    -0.105 NA
ATOM      9  C   UNL     1      -2.071   5.100  -1.810  0.00  0.00    +0.372 C 
ATOM     10  N   UNL     1      -2.584   3.899  -2.192  0.00  0.00    -0.251 N 
ATOM     11  H   UNL     1      -2.109   3.552  -3.021  0.00  0.00    +0.241 HD
ATOM     12  H   UNL     1      -3.589   3.835  -2.272  0.00  0.00    +0.241 HD
ATOM     13  N   UNL     1      -2.742   5.891  -0.915  0.00  0.00    -0.165 N 
ATOM     14  C   UNL     1      -4.025   5.472  -0.370  0.00  0.00    +0.238 C 
ATOM     15  C   UNL     1      -2.256   7.127  -0.546  0.00  0.00    +0.281 C 
ATOM     16  O   UNL     1      -2.913   7.940   0.106  0.00  0.00    -0.257 OA
ATOM     17  C   UNL     1      -0.823   7.434  -0.876  0.00  0.00    +0.166 C 
ATOM     18  C   UNL     1      -0.269   7.483  -3.345  0.00  0.00    +0.061 C 
ENDBRANCH   5   7
BRANCH   1  23
ATOM     19  C   UNL     1       2.762   0.835  -1.327  0.00  0.00    +0.121 A 
ATOM     20  C   UNL     1       3.956   0.444  -1.925  0.00  0.00    +0.045 A 
ATOM     21  C   UNL     1       4.878   1.407  -2.333  0.00  0.00    +0.004 A 
ATOM     22  C   UNL     1       4.598   2.766  -2.160  0.00  0.00    +0.009 A 
ATOM     23  C   UNL     1       3.406   3.188  -1.550  0.00  0.00    -0.014 A 
ATOM     24  C   UNL     1       2.522   2.190  -1.095  0.00  0.00    +0.054 A 
BRANCH  19  26
ATOM     25  C   UNL     1       0.511   0.199  -1.078  0.00  0.00    +0.277 C 
ATOM     26  O   UNL     1       1.888  -0.167  -0.996  0.00  0.00    -0.495 OA
ENDBRANCH  19  26
ENDBRANCH   1  23
TORSDOF 3
