REMARK  Name = 
REMARK  18 active torsions:
REMARK  status: ('A' for Active; 'I' for Inactive)
REMARK    1  A    between atoms: C_2  and  O_3
REMARK    2  A    between atoms: C_5  and  O_7
REMARK    3  A    between atoms: O_7  and  C_8
REMARK    4  A    between atoms: C_11  and  C_13
REMARK    5  A    between atoms: C_14  and  O_16
REMARK    6  A    between atoms: C_17  and  O_19
REMARK    7  A    between atoms: C_20  and  O_22
REMARK    8  A    between atoms: C_23  and  O_25
REMARK    9  A    between atoms: O_25  and  C_26
REMARK   10  A    between atoms: C_26  and  C_27
REMARK   11  A    between atoms: C_27  and  C_28
REMARK   12  A    between atoms: C_28  and  C_29
REMARK   13  A    between atoms: C_29  and  C_30
REMARK   14  A    between atoms: C_30  and  C_31
REMARK   15  A    between atoms: C_31  and  C_32
REMARK   16  A    between atoms: C_32  and  C_33
REMARK   17  A    between atoms: C_35  and  C_37
REMARK   18  A    between atoms: C_37  and  O_38
REMARK                            x       y       z     vdW  Elec       q    Type
REMARK                         _______ _______ _______ _____ _____    ______ ____
ROOT
ATOM      1  C   UNL     1      -1.564   0.434  -1.578  0.00  0.00    +0.148 C 
ATOM      2  C   UNL     1      -2.658   0.206  -2.640  0.00  0.00    +0.175 C 
ATOM      3  O   UNL     1      -2.154   0.043  -3.979  0.00  0.00    -0.341 OA
ATOM      4  C   UNL     1      -1.122   0.955  -4.393  0.00  0.00    +0.279 C 
ATOM      5  C   UNL     1       0.064   0.996  -3.388  0.00  0.00    +0.180 C 
ATOM      6  C   UNL     1      -0.473   1.399  -2.020  0.00  0.00    +0.070 C 
ENDROOT
BRANCH   1   7
ATOM      7  O   UNL     1      -2.124   0.882  -0.346  0.00  0.00    -0.389 OA
ATOM      8  H   UNL     1      -1.439   0.772   0.337  0.00  0.00    +0.210 HD
ENDBRANCH   1   7
BRANCH   5   9
ATOM      9  O   UNL     1       0.694  -0.288  -3.404  0.00  0.00    -0.340 OA
BRANCH   9  10
ATOM     10  C   UNL     1       2.016  -0.453  -2.881  0.00  0.00    +0.282 C 
ATOM     11  C   UNL     1       3.103   0.482  -3.484  0.00  0.00    +0.201 C 
ATOM     12  C   UNL     1       4.485   0.056  -2.970  0.00  0.00    +0.179 C 
ATOM     13  C   UNL     1       4.472   0.006  -1.433  0.00  0.00    +0.174 C 
ATOM     14  C   UNL     1       3.314  -0.868  -0.900  0.00  0.00    +0.149 C 
ATOM     15  C   UNL     1       3.528  -2.383  -1.018  0.00  0.00    +0.041 C 
ATOM     16  O   UNL     1       2.040  -0.468  -1.452  0.00  0.00    -0.343 OA
BRANCH  13  17
ATOM     17  O   UNL     1       5.742  -0.439  -0.945  0.00  0.00    -0.387 OA
ATOM     18  H   UNL     1       6.090  -1.064  -1.611  0.00  0.00    +0.210 HD
ENDBRANCH  13  17
BRANCH  12  19
ATOM     19  O   UNL     1       4.890  -1.230  -3.475  0.00  0.00    -0.386 OA
ATOM     20  H   UNL     1       4.800  -1.224  -4.443  0.00  0.00    +0.210 HD
ENDBRANCH  12  19
BRANCH  11  21
ATOM     21  O   UNL     1       2.904   1.854  -3.106  0.00  0.00    -0.384 OA
ATOM     22  H   UNL     1       3.073   2.411  -3.886  0.00  0.00    +0.210 HD
ENDBRANCH  11  21
ENDBRANCH   9  10
ENDBRANCH   5   9
BRANCH   4  23
ATOM     23  O   UNL     1      -1.667   2.250  -4.671  0.00  0.00    -0.349 OA
BRANCH  23  24
ATOM     24  C   UNL     1      -0.785   3.062  -5.449  0.00  0.00    +0.163 C 
BRANCH  24  25
ATOM     25  C   UNL     1      -1.472   4.345  -5.892  0.00  0.00    +0.028 C 
BRANCH  25  26
ATOM     26  C   UNL     1      -2.022   5.159  -4.720  0.00  0.00    +0.002 C 
BRANCH  26  27
ATOM     27  C   UNL     1      -2.581   6.495  -5.208  0.00  0.00    +0.000 C 
BRANCH  27  28
ATOM     28  C   UNL     1      -3.169   7.314  -4.060  0.00  0.00    -0.000 C 
BRANCH  28  29
ATOM     29  C   UNL     1      -3.729   8.638  -4.579  0.00  0.00    -0.000 C 
BRANCH  29  30
ATOM     30  C   UNL     1      -4.326   9.479  -3.454  0.00  0.00    -0.003 C 
ATOM     31  C   UNL     1      -4.883  10.788  -3.992  0.00  0.00    +0.004 C 
ENDBRANCH  29  30
ENDBRANCH  28  29
ENDBRANCH  27  28
ENDBRANCH  26  27
ENDBRANCH  25  26
ENDBRANCH  24  25
ENDBRANCH  23  24
ENDBRANCH   4  23
BRANCH   2  32
ATOM     32  C   UNL     1      -3.838   1.191  -2.623  0.00  0.00    +0.190 C 
BRANCH  32  33
ATOM     33  O   UNL     1      -4.910   0.662  -3.421  0.00  0.00    -0.392 OA
ATOM     34  H   UNL     1      -4.486   0.302  -4.223  0.00  0.00    +0.210 HD
ENDBRANCH  32  33
ENDBRANCH   2  32
TORSDOF 16
