REMARK  Name = 
REMARK  3 active torsions:
REMARK  status: ('A' for Active; 'I' for Inactive)
REMARK    1  A    between atoms: C_2  and  O_3
REMARK    2  A    between atoms: C_19  and  O_21
REMARK    3  A    between atoms: C_22  and  O_24
REMARK                            x       y       z     vdW  Elec       q    Type
REMARK                         _______ _______ _______ _____ _____    ______ ____
ROOT
ATOM      1  C   UNL     1       1.981  -0.100   0.099  0.00  0.00    +0.150 C 
ATOM      2  C   UNL     1       2.531  -1.210   0.985  0.00  0.00    +0.176 C 
ATOM      3  C   UNL     1       4.064  -1.269   0.864  0.00  0.00    +0.176 C 
ATOM      4  C   UNL     1       4.745   0.090   0.855  0.00  0.00    -0.013 A 
ATOM      5  C   UNL     1       6.139   0.112   0.856  0.00  0.00    +0.007 A 
ATOM      6  C   UNL     1       6.823   1.313   0.745  0.00  0.00    +0.009 A 
ATOM      7  C   UNL     1       6.140   2.532   0.683  0.00  0.00    -0.017 A 
ATOM      8  C   UNL     1       6.912   3.682   0.509  0.00  0.00    +0.009 A 
ATOM      9  C   UNL     1       6.323   4.934   0.415  0.00  0.00    +0.009 A 
ATOM     10  C   UNL     1       4.951   5.083   0.581  0.00  0.00    -0.017 A 
ATOM     11  C   UNL     1       4.410   6.381   0.527  0.00  0.00    +0.008 A 
ATOM     12  C   UNL     1       3.063   6.612   0.771  0.00  0.00    +0.001 A 
ATOM     13  C   UNL     1       2.250   5.547   1.109  0.00  0.00    +0.001 A 
ATOM     14  C   UNL     1       2.782   4.254   1.143  0.00  0.00    +0.009 A 
ATOM     15  C   UNL     1       4.133   3.946   0.823  0.00  0.00    -0.010 A 
ATOM     16  C   UNL     1       4.721   2.600   0.770  0.00  0.00    -0.007 A 
ATOM     17  C   UNL     1       4.033   1.316   0.761  0.00  0.00    -0.031 A 
ATOM     18  C   UNL     1       2.525   1.245   0.578  0.00  0.00    +0.070 C 
ENDROOT
BRANCH   2  19
ATOM     19  O   UNL     1       1.935  -2.454   0.583  0.00  0.00    -0.386 OA
ATOM     20  H   UNL     1       2.084  -2.515  -0.381  0.00  0.00    +0.210 HD
ENDBRANCH   2  19
BRANCH   3  21
ATOM     21  O   UNL     1       4.587  -2.051   1.947  0.00  0.00    -0.385 OA
ATOM     22  H   UNL     1       4.540  -1.499   2.746  0.00  0.00    +0.210 HD
ENDBRANCH   3  21
BRANCH   1  23
ATOM     23  O   UNL     1       2.323  -0.363  -1.270  0.00  0.00    -0.389 OA
ATOM     24  H   UNL     1       2.103   0.431  -1.791  0.00  0.00    +0.210 HD
ENDBRANCH   1  23
TORSDOF 3
