REMARK  Name = 
REMARK  6 active torsions:
REMARK  status: ('A' for Active; 'I' for Inactive)
REMARK    1  A    between atoms: C_2  and  C_3
REMARK    2  A    between atoms: C_9  and  O_11
REMARK    3  A    between atoms: C_12  and  O_14
REMARK    4  A    between atoms: C_20  and  O_21
REMARK    5  A    between atoms: O_21  and  C_22
REMARK    6  A    between atoms: C_24  and  O_25
REMARK                            x       y       z     vdW  Elec       q    Type
REMARK                         _______ _______ _______ _____ _____    ______ ____
ROOT
ATOM      1  C   UNL     1       6.936  -2.017  -0.687  0.00  0.00    +0.177 C 
ATOM      2  O   UNL     1       8.350  -2.393  -0.058  0.00  0.00    -0.458 OA
ATOM      3  C   UNL     1       9.406  -3.164  -0.697  0.00  0.00    +0.344 C 
ATOM      4  O   UNL     1       9.169  -3.709  -1.773  0.00  0.00    -0.245 OA
ATOM      5  C   UNL     1      10.973  -3.223  -0.087  0.00  0.00    +0.108 A 
ATOM      6  C   UNL     1      11.280  -3.025   1.272  0.00  0.00    -0.004 A 
ATOM      7  C   UNL     1      12.514  -2.445   1.668  0.00  0.00    +0.054 A 
ATOM      8  C   UNL     1      13.705  -2.741   0.954  0.00  0.00    +0.124 A 
ATOM      9  C   UNL     1      13.514  -3.450  -0.220  0.00  0.00    +0.091 A 
ATOM     10  C   UNL     1      11.230  -4.409   1.967  0.00  0.00    +0.005 C 
ATOM     11  C   UNL     1      10.686  -4.481   3.187  0.00  0.00    -0.024 C 
ATOM     12  C   UNL     1       9.271  -4.961   3.108  0.00  0.00    +0.061 C 
ATOM     13  C   UNL     1       8.467  -3.685   2.802  0.00  0.00    +0.154 C 
ATOM     14  C   UNL     1       7.015  -4.024   2.544  0.00  0.00    +0.213 C 
ATOM     15  C   UNL     1       6.184  -2.722   2.636  0.00  0.00    +0.187 C 
ATOM     16  O   UNL     1       6.613  -1.605   2.937  0.00  0.00    -0.290 OA
ATOM     17  C   UNL     1       4.748  -2.885   2.222  0.00  0.00    +0.045 C 
ATOM     18  C   UNL     1       4.757  -2.188   1.080  0.00  0.00    -0.020 C 
ATOM     19  C   UNL     1      12.165  -3.748  -0.707  0.00  0.00    +0.135 A 
ATOM     20  C   UNL     1       5.483  -2.624  -0.213  0.00  0.00    +0.071 C 
ATOM     21  C   UNL     1       6.710  -0.480  -0.686  0.00  0.00    +0.052 C 
ENDROOT
BRANCH   8  22
ATOM     22  O   UNL     1      14.818  -2.428   1.643  0.00  0.00    -0.495 OA
ATOM     23  C   UNL     1      16.128  -2.650   1.191  0.00  0.00    +0.277 C 
ENDBRANCH   8  22
BRANCH  13  24
ATOM     24  O   UNL     1       8.650  -2.729   3.852  0.00  0.00    -0.388 OA
ATOM     25  H   UNL     1       8.362  -1.876   3.466  0.00  0.00    +0.210 HD
ENDBRANCH  13  24
BRANCH  14  26
ATOM     26  O   UNL     1       6.962  -4.710   1.292  0.00  0.00    -0.381 OA
ATOM     27  H   UNL     1       6.054  -5.005   1.116  0.00  0.00    +0.210 HD
ENDBRANCH  14  26
BRANCH  19  28
ATOM     28  O   UNL     1      12.101  -4.929  -1.440  0.00  0.00    -0.506 OA
ATOM     29  H   UNL     1      12.787  -5.520  -1.052  0.00  0.00    +0.292 HD
ENDBRANCH  19  28
TORSDOF 4
