REMARK  Name = 
REMARK  6 active torsions:
REMARK  status: ('A' for Active; 'I' for Inactive)
REMARK    1  A    between atoms: C_2  and  N_3
REMARK    2  A    between atoms: C_2  and  C_4
REMARK    3  A    between atoms: C_2  and  C_12
REMARK    4  A    between atoms: C_4  and  C_5
REMARK    5  A    between atoms: C_5  and  C_6
REMARK    6  A    between atoms: C_12  and  C_13
REMARK                            x       y       z     vdW  Elec       q    Type
REMARK                         _______ _______ _______ _____ _____    ______ ____
ROOT
ATOM      1  C   UNL     1       2.485  -0.508   1.354  0.00  0.00    +0.031 C 
ENDROOT
BRANCH   1   2
ATOM      2  C   UNL     1       2.013   0.107   0.031  0.00  0.00    +0.118 C 
BRANCH   2   3
ATOM      3  N   UNL     1       0.540   0.225   0.010  0.00  0.00    -0.321 NA
ATOM      4  H   UNL     1       0.262   0.527  -0.928  0.00  0.00    +0.119 HD
ATOM      5  H   UNL     1       0.148  -0.719   0.069  0.00  0.00    +0.119 HD
ENDBRANCH   2   3
BRANCH   2   6
ATOM      6  C   UNL     1       2.462  -0.760  -1.163  0.00  0.00    +0.147 C 
ATOM      7  O   UNL     1       1.650  -1.308  -1.914  0.00  0.00    -0.296 OA
ATOM      8  C   UNL     1       3.941  -0.898  -1.416  0.00  0.00    +0.087 C 
ENDBRANCH   2   6
ENDBRANCH   1   2
BRANCH   1   9
ATOM      9  C   UNL     1       2.014   0.275   2.586  0.00  0.00    +0.037 C 
BRANCH   9  10
ATOM     10  C   UNL     1       2.551  -0.309   3.873  0.00  0.00    -0.047 A 
ATOM     11  C   UNL     1       2.210  -1.614   4.260  0.00  0.00    +0.003 A 
ATOM     12  C   UNL     1       2.702  -2.154   5.448  0.00  0.00    +0.000 A 
ATOM     13  C   UNL     1       3.530  -1.393   6.268  0.00  0.00    +0.000 A 
ATOM     14  C   UNL     1       3.864  -0.089   5.903  0.00  0.00    +0.000 A 
ATOM     15  C   UNL     1       3.378   0.450   4.711  0.00  0.00    +0.003 A 
ENDBRANCH   9  10
ENDBRANCH   1   9
TORSDOF 5
