REMARK  Name = 
REMARK  5 active torsions:
REMARK  status: ('A' for Active; 'I' for Inactive)
REMARK    1  A    between atoms: C_1  and  N_2
REMARK    2  A    between atoms: N_5  and  C_8
REMARK    3  A    between atoms: C_11  and  C_14
REMARK    4  A    between atoms: C_25  and  C_27
REMARK    5  A    between atoms: C_27  and  C_28
REMARK                            x       y       z     vdW  Elec       q    Type
REMARK                         _______ _______ _______ _____ _____    ______ ____
ROOT
ATOM      1  C   UNL     1       5.997  -1.977  -7.560  0.00  0.00    +0.249 C 
ATOM      2  N   UNL     1       5.465  -2.961  -8.369  0.00  0.00    -0.264 N 
ATOM      3  H   UNL     1       4.586  -3.388  -8.123  0.00  0.00    +0.157 HD
ATOM      4  C   UNL     1       5.966  -3.286  -9.620  0.00  0.00    +0.156 A 
ATOM      5  C   UNL     1       5.248  -4.118 -10.572  0.00  0.00    +0.059 A 
ATOM      6  C   UNL     1       6.157  -4.141 -11.602  0.00  0.00    +0.086 A 
ATOM      7  C   UNL     1       5.644  -4.901 -12.586  0.00  0.00    +0.121 A 
ATOM      8  N   UNL     1       4.364  -5.373 -12.212  0.00  0.00    -0.291 N 
ATOM      9  C   UNL     1       3.465  -6.202 -12.899  0.00  0.00    +0.236 C 
ATOM     10  O   UNL     1       2.293  -6.225 -12.538  0.00  0.00    -0.272 OA
ATOM     11  N   UNL     1       7.268  -3.417 -11.367  0.00  0.00    -0.274 N 
ATOM     12  H   UNL     1       8.060  -3.226 -11.968  0.00  0.00    +0.189 HD
ATOM     13  C   UNL     1       4.138  -4.826 -10.913  0.00  0.00    +0.107 A 
ATOM     14  N   UNL     1       7.182  -2.877 -10.113  0.00  0.00    -0.157 NA
ATOM     15  O   UNL     1       6.949  -1.245  -7.809  0.00  0.00    -0.270 OA
ENDROOT
BRANCH   1  19
ATOM     16  C   UNL     1       3.891  -1.057  -3.882  0.00  0.00    +0.030 A 
ATOM     17  C   UNL     1       4.028  -2.388  -4.316  0.00  0.00    +0.024 A 
ATOM     18  C   UNL     1       4.699  -2.722  -5.506  0.00  0.00    +0.015 A 
ATOM     19  C   UNL     1       5.267  -1.716  -6.288  0.00  0.00    +0.037 A 
ATOM     20  C   UNL     1       5.180  -0.391  -5.853  0.00  0.00    +0.015 A 
ATOM     21  C   UNL     1       4.499  -0.073  -4.672  0.00  0.00    +0.024 A 
BRANCH  16  26
ATOM     22  C   UNL     1       1.522   0.389   0.354  0.00  0.00    +0.105 C 
ATOM     23  N   UNL     1       1.011  -0.395  -0.767  0.00  0.00    -0.302 NA
ATOM     24  C   UNL     1       1.764  -1.662  -0.937  0.00  0.00    +0.103 C 
ATOM     25  C   UNL     1       3.191  -1.521  -1.526  0.00  0.00    +0.120 C 
ATOM     26  N   UNL     1       3.145  -0.734  -2.767  0.00  0.00    -0.327 N 
ATOM     27  C   UNL     1       2.479   0.572  -2.633  0.00  0.00    +0.120 C 
ATOM     28  C   UNL     1       1.066   0.373  -2.031  0.00  0.00    +0.103 C 
ENDBRANCH  16  26
ENDBRANCH   1  19
BRANCH   9  29
ATOM     29  C   UNL     1       4.055  -7.077 -13.968  0.00  0.00    +0.141 C 
BRANCH  29  30
ATOM     30  C   UNL     1       4.102  -6.424 -15.313  0.00  0.00    -0.001 A 
ATOM     31  S   UNL     1       5.302  -6.940 -16.431  0.00  0.00    -0.101 S 
ATOM     32  C   UNL     1       4.747  -5.859 -17.629  0.00  0.00    +0.045 A 
ATOM     33  C   UNL     1       3.664  -5.126 -17.200  0.00  0.00    +0.008 A 
ATOM     34  C   UNL     1       3.279  -5.464 -15.869  0.00  0.00    +0.011 A 
ENDBRANCH  29  30
ENDBRANCH   9  29
TORSDOF 4
