REMARK  Name = 
REMARK  6 active torsions:
REMARK  status: ('A' for Active; 'I' for Inactive)
REMARK    1  A    between atoms: O_1  and  C_2
REMARK    2  A    between atoms: C_2  and  CA_4
REMARK    3  A    between atoms: CA_4  and  C_6
REMARK    4  A    between atoms: C_6  and  C_7
REMARK    5  A    between atoms: C_9  and  O_10
REMARK    6  A    between atoms: C_11  and  O_12
REMARK                            x       y       z     vdW  Elec       q    Type
REMARK                         _______ _______ _______ _____ _____    ______ ____
ROOT
ATOM      1  C   UNL     1       5.149   2.112   1.776  0.00  0.00    -0.038 A 
ATOM      2  C   UNL     1       6.102   1.877   2.784  0.00  0.00    +0.008 A 
ATOM      3  C   UNL     1       6.580   2.925   3.573  0.00  0.00    +0.049 A 
ATOM      4  C   UNL     1       6.110   4.209   3.348  0.00  0.00    +0.158 A 
ATOM      5  C   UNL     1       5.180   4.460   2.343  0.00  0.00    +0.158 A 
ATOM      6  C   UNL     1       4.697   3.423   1.550  0.00  0.00    +0.053 A 
ENDROOT
BRANCH   4   7
ATOM      7  O   UNL     1       6.563   5.232   4.131  0.00  0.00    -0.503 OA
ATOM      8  H   UNL     1       6.087   6.021   3.804  0.00  0.00    +0.292 HD
ENDBRANCH   4   7
BRANCH   5   9
ATOM      9  O   UNL     1       4.756   5.751   2.181  0.00  0.00    -0.503 OA
ATOM     10  H   UNL     1       4.082   5.764   1.480  0.00  0.00    +0.292 HD
ENDBRANCH   5   9
BRANCH   1  11
ATOM     11  C   UNL     1       4.596   0.958   0.977  0.00  0.00    +0.097 C 
BRANCH  11  12
ATOM     12  CA  UNL     1       5.361   0.673  -0.287  0.00  0.00    +0.121 C 
ATOM     13  N   UNL     1       6.350  -0.170  -0.324  0.00  0.00    -0.297 NA
ATOM     14  H   UNL     1       6.691  -0.329  -1.277  0.00  0.00    +0.187 HD
BRANCH  12  15
ATOM     15  C   UNL     1       4.920   1.426  -1.541  0.00  0.00    +0.351 C 
ATOM     16  OXT UNL     1       3.763   1.710  -1.760  0.00  0.00    -0.244 OA
BRANCH  15  17
ATOM     17  O   UNL     1       5.959   1.704  -2.344  0.00  0.00    -0.476 OA
ATOM     18  H   UNL     1       6.824   1.548  -1.912  0.00  0.00    +0.295 HD
ENDBRANCH  15  17
ENDBRANCH  12  15
ENDBRANCH  11  12
ENDBRANCH   1  11
TORSDOF 6
