REMARK  Name = 
REMARK  9 active torsions:
REMARK  status: ('A' for Active; 'I' for Inactive)
REMARK    1  A    between atoms: C_1  and  C_2
REMARK    2  A    between atoms: N_7  and  C_8
REMARK    3  A    between atoms: C_8  and  C_9
REMARK    4  A    between atoms: C_9  and  C_12
REMARK    5  A    between atoms: N_21  and  C_22
REMARK    6  A    between atoms: C_22  and  C_23
REMARK    7  A    between atoms: N_25  and  C_26
REMARK    8  A    between atoms: C_26  and  C_27
REMARK    9  A    between atoms: C_30  and  C_31
REMARK                            x       y       z     vdW  Elec       q    Type
REMARK                         _______ _______ _______ _____ _____    ______ ____
ROOT
ATOM      1  C   UNL     1       1.133   0.475  -0.187  0.00  0.00    +0.070 C 
ATOM      2  C   UNL     1       2.613   0.277  -0.001  0.00  0.00    +0.083 A 
ATOM      3  N   UNL     1       3.165  -1.001   0.164  0.00  0.00    -0.292 N 
ATOM      4  C   UNL     1       4.559  -1.156   0.242  0.00  0.00    +0.340 A 
ATOM      5  O   UNL     1       5.155  -2.229   0.295  0.00  0.00    -0.259 OA
ATOM      6  C   UNL     1       5.372   0.085   0.173  0.00  0.00    +0.335 A 
ATOM      7  N   UNL     1       6.692  -0.099   0.087  0.00  0.00    -0.281 N 
ATOM      8  H   UNL     1       6.988  -1.057   0.316  0.00  0.00    +0.152 HD
ATOM      9  N   UNL     1       4.777   1.262   0.068  0.00  0.00    -0.192 N 
ATOM     10  H   UNL     1       5.307   2.125   0.074  0.00  0.00    +0.454 HD
ATOM     11  C   UNL     1       3.405   1.365  -0.023  0.00  0.00    +0.330 A 
ENDROOT
BRANCH   3  12
ATOM     12  C   UNL     1       2.334  -2.229   0.272  0.00  0.00    +0.221 C 
BRANCH  12  13
ATOM     13  C   UNL     1       2.096  -2.951  -1.069  0.00  0.00    +0.233 C 
ATOM     14  N   UNL     1       1.639  -4.255  -0.981  0.00  0.00    -0.308 N 
ATOM     15  H   UNL     1       1.364  -4.679  -0.099  0.00  0.00    +0.149 HD
ATOM     16  O   UNL     1       2.295  -2.380  -2.144  0.00  0.00    -0.274 OA
BRANCH  14  17
ATOM     17  C   UNL     1       1.230  -4.984  -2.181  0.00  0.00    +0.162 C 
BRANCH  17  18
ATOM     18  C   UNL     1       0.915  -6.459  -2.013  0.00  0.00    +0.094 A 
ATOM     19  N   UNL     1       0.468  -6.921  -0.814  0.00  0.00    -0.255 NA
ATOM     20  C   UNL     1       0.040  -8.216  -0.789  0.00  0.00    +0.111 A 
ATOM     21  C   UNL     1       0.029  -9.066  -1.892  0.00  0.00    +0.026 A 
ATOM     22  C   UNL     1       0.502  -8.587  -3.112  0.00  0.00    -0.012 A 
ATOM     23  C   UNL     1       0.471  -9.443  -4.342  0.00  0.00    +0.047 C 
ATOM     24  C   UNL     1       0.950  -7.263  -3.158  0.00  0.00    +0.149 A 
ATOM     25  F   UNL     1       1.392  -6.751  -4.317  0.00  0.00    -0.203 F 
ENDBRANCH  17  18
ENDBRANCH  14  17
ENDBRANCH  12  13
ENDBRANCH   3  12
BRANCH   7  26
ATOM     26  C   UNL     1       7.654   0.927  -0.395  0.00  0.00    +0.194 C 
BRANCH  26  27
ATOM     27  C   UNL     1       7.530   1.147  -1.929  0.00  0.00    +0.346 C 
ATOM     28  F   UNL     1       8.298   2.207  -2.286  0.00  0.00    -0.192 F 
ATOM     29  F   UNL     1       6.239   1.536  -2.183  0.00  0.00    -0.192 F 
BRANCH  27  30
ATOM     30  C   UNL     1       7.844  -0.092  -2.727  0.00  0.00    +0.253 A 
ATOM     31  C   UNL     1       9.086  -0.731  -2.675  0.00  0.00    +0.080 A 
ATOM     32  C   UNL     1       9.271  -1.919  -3.374  0.00  0.00    +0.012 A 
ATOM     33  C   UNL     1       8.229  -2.448  -4.126  0.00  0.00    +0.070 A 
ATOM     34  C   UNL     1       7.022  -1.766  -4.189  0.00  0.00    +0.307 A 
ATOM     35  N   UNL     1       6.868  -0.618  -3.507  0.00  0.00    -0.210 N 
ATOM     36  H   UNL     1       5.975  -0.121  -3.602  0.00  0.00    +0.453 HD
ENDBRANCH  27  30
ENDBRANCH  26  27
ENDBRANCH   7  26
TORSDOF 7
