REMARK  Name = 
REMARK  12 active torsions:
REMARK  status: ('A' for Active; 'I' for Inactive)
REMARK    1  A    between atoms: C_2  and  C_3
REMARK    2  A    between atoms: C_2  and  C_10
REMARK    3  A    between atoms: C_2  and  C_25
REMARK    4  A    between atoms: C_3  and  C_4
REMARK    5  A    between atoms: C_10  and  P_11
REMARK    6  A    between atoms: P_11  and  O_12
REMARK    7  A    between atoms: P_11  and  C_14
REMARK    8  A    between atoms: C_14  and  N_16
REMARK    9  A    between atoms: C_14  and  C_17
REMARK   10  A    between atoms: C_17  and  C_18
REMARK   11  A    between atoms: C_18  and  C_19
REMARK   12  A    between atoms: C_25  and  O_26
REMARK                            x       y       z     vdW  Elec       q    Type
REMARK                         _______ _______ _______ _____ _____    ______ ____
ROOT
ATOM      1  P   UNL     1       1.266   2.327   5.288  0.00  0.00    +0.219 P 
ATOM      2  O   UNL     1       1.942   2.356   6.627  0.00  0.00    -0.289 OA
ENDROOT
BRANCH   1   3
ATOM      3  O   UNL     1      -0.333   2.425   5.492  0.00  0.00    -0.343 OA
ATOM      4  H   UNL     1      -0.608   3.168   6.067  0.00  0.00    +0.218 HD
ENDBRANCH   1   3
BRANCH   1   5
ATOM      5  C   UNL     1       1.628   3.732   4.243  0.00  0.00    +0.113 C 
BRANCH   5   6
ATOM      6  C   UNL     1       2.603   4.789   4.810  0.00  0.00    +0.111 C 
BRANCH   6   7
ATOM      7  C   UNL     1       2.515   5.993   3.883  0.00  0.00    +0.309 C 
ATOM      8  O   UNL     1       1.457   6.600   3.715  0.00  0.00    -0.251 OA
BRANCH   7   9
ATOM      9  O   UNL     1       3.616   6.351   3.191  0.00  0.00    -0.480 OA
ATOM     10  H   UNL     1       4.457   5.916   3.421  0.00  0.00    +0.295 HD
ENDBRANCH   7   9
ENDBRANCH   6   7
BRANCH   6  11
ATOM     11  C   UNL     1       4.000   4.185   5.033  0.00  0.00    +0.050 C 
BRANCH  11  12
ATOM     12  C   UNL     1       5.100   5.105   5.522  0.00  0.00    -0.047 A 
ATOM     13  C   UNL     1       6.406   4.891   5.049  0.00  0.00    +0.003 A 
ATOM     14  C   UNL     1       7.452   5.730   5.427  0.00  0.00    +0.000 A 
ATOM     15  C   UNL     1       7.215   6.785   6.304  0.00  0.00    +0.000 A 
ATOM     16  C   UNL     1       5.935   6.985   6.816  0.00  0.00    +0.000 A 
ATOM     17  C   UNL     1       4.882   6.144   6.436  0.00  0.00    +0.003 A 
ENDBRANCH  11  12
ENDBRANCH   6  11
ENDBRANCH   5   6
ENDBRANCH   1   5
BRANCH   1  18
ATOM     18  C   UNL     1       1.481   0.756   4.395  0.00  0.00    +0.139 C 
BRANCH  18  19
ATOM     19  N   UNL     1       2.938   0.606   4.211  0.00  0.00    -0.320 NA
ATOM     20  H   UNL     1       3.374   0.643   5.139  0.00  0.00    +0.119 HD
ATOM     21  H   UNL     1       3.137  -0.338   3.874  0.00  0.00    +0.119 HD
ENDBRANCH  18  19
BRANCH  18  22
ATOM     22  C   UNL     1       0.709   0.635   3.077  0.00  0.00    +0.033 C 
BRANCH  22  23
ATOM     23  C   UNL     1       0.790  -0.770   2.467  0.00  0.00    +0.037 C 
BRANCH  23  24
ATOM     24  C   UNL     1       0.025  -0.882   1.169  0.00  0.00    -0.047 A 
ATOM     25  C   UNL     1      -1.312  -1.299   1.159  0.00  0.00    +0.003 A 
ATOM     26  C   UNL     1      -2.008  -1.412  -0.047  0.00  0.00    +0.000 A 
ATOM     27  C   UNL     1      -1.377  -1.106  -1.251  0.00  0.00    +0.000 A 
ATOM     28  C   UNL     1      -0.049  -0.682  -1.251  0.00  0.00    +0.000 A 
ATOM     29  C   UNL     1       0.648  -0.568  -0.047  0.00  0.00    +0.003 A 
ENDBRANCH  23  24
ENDBRANCH  22  23
ENDBRANCH  18  22
ENDBRANCH   1  18
TORSDOF 12
