REMARK  Name = 
REMARK  2 active torsions:
REMARK  status: ('A' for Active; 'I' for Inactive)
REMARK    1  A    between atoms: N_1  and  C_2
REMARK    2  A    between atoms: N_1  and  C_11
REMARK                            x       y       z     vdW  Elec       q    Type
REMARK                         _______ _______ _______ _____ _____    ______ ____
ROOT
ATOM      1  C   UNL     1       0.352   1.370   0.115  0.00  0.00    +0.058 A 
ATOM      2  C   UNL     1       0.781   2.716  -0.098  0.00  0.00    +0.040 A 
ATOM      3  C   UNL     1      -0.314   3.526   0.187  0.00  0.00    +0.140 A 
ATOM      4  N   UNL     1      -0.355   4.872   0.210  0.00  0.00    -0.237 NA
ATOM      5  C   UNL     1       0.832   5.440  -0.107  0.00  0.00    +0.113 A 
ATOM      6  C   UNL     1       1.984   4.759  -0.470  0.00  0.00    +0.020 A 
ATOM      7  N   UNL     1      -1.385   2.712   0.438  0.00  0.00    -0.344 N 
ATOM      8  H   UNL     1      -2.310   3.060   0.643  0.00  0.00    +0.167 HD
ATOM      9  C   UNL     1       1.967   3.367  -0.487  0.00  0.00    +0.015 A 
ATOM     10  C   UNL     1      -1.001   1.395   0.372  0.00  0.00    +0.108 A 
ENDROOT
BRANCH   1  11
ATOM     11  N   UNL     1       1.090   0.235   0.055  0.00  0.00    -0.313 N 
ATOM     12  H   UNL     1       0.612  -0.660  -0.024  0.00  0.00    +0.152 HD
BRANCH  11  13
ATOM     13  C   UNL     1       2.457   0.061   0.377  0.00  0.00    +0.031 A 
ATOM     14  C   UNL     1       3.197  -0.921  -0.289  0.00  0.00    +0.023 A 
ATOM     15  C   UNL     1       4.581  -1.010  -0.114  0.00  0.00    +0.002 A 
ATOM     16  C   UNL     1       5.241  -0.120   0.732  0.00  0.00    +0.000 A 
ATOM     17  C   UNL     1       4.514   0.833   1.434  0.00  0.00    +0.002 A 
ATOM     18  C   UNL     1       3.131   0.914   1.264  0.00  0.00    +0.023 A 
ENDBRANCH  11  13
ENDBRANCH   1  11
TORSDOF 2
