REMARK  Name = 
REMARK  7 active torsions:
REMARK  status: ('A' for Active; 'I' for Inactive)
REMARK    1  A    between atoms: C_1  and  C_2
REMARK    2  A    between atoms: C_2  and  C_3
REMARK    3  A    between atoms: C_4  and  O_5
REMARK    4  A    between atoms: C_7  and  O_8
REMARK    5  A    between atoms: C_9  and  C_11
REMARK    6  A    between atoms: C_12  and  C_17
REMARK    7  A    between atoms: C_13  and  C_14
REMARK                            x       y       z     vdW  Elec       q    Type
REMARK                         _______ _______ _______ _____ _____    ______ ____
ROOT
ATOM      1  C   UNL     1       2.332  -5.016   0.902  0.00  0.00    +0.077 A 
ATOM      2  N   UNL     1       1.230  -5.251   0.117  0.00  0.00    -0.276 N 
ATOM      3  H   UNL     1       0.580  -4.544  -0.219  0.00  0.00    +0.189 HD
ATOM      4  N   UNL     1       1.020  -6.519  -0.230  0.00  0.00    -0.178 NA
ATOM      5  C   UNL     1       2.091  -7.156   0.263  0.00  0.00    +0.068 A 
ATOM      6  C   UNL     1       2.167  -8.612  -0.023  0.00  0.00    +0.068 C 
ATOM      7  C   UNL     1       2.970  -6.264   0.986  0.00  0.00    +0.030 A 
ENDROOT
BRANCH   7   8
ATOM      8  C   UNL     1       4.269  -6.561   1.613  0.00  0.00    -0.010 A 
ATOM      9  C   UNL     1       4.562  -7.855   2.068  0.00  0.00    +0.058 A 
ATOM     10  C   UNL     1       5.856  -8.202   2.458  0.00  0.00    +0.163 A 
ATOM     11  C   UNL     1       6.841  -7.224   2.601  0.00  0.00    +0.162 A 
ATOM     12  O   UNL     1       8.115  -7.492   3.027  0.00  0.00    -0.485 OA
ATOM     13  C   UNL     1       8.297  -8.875   3.368  0.00  0.00    +0.270 C 
ATOM     14  C   UNL     1       7.521  -9.771   2.417  0.00  0.00    +0.270 C 
ATOM     15  C   UNL     1       6.552  -5.916   2.238  0.00  0.00    +0.050 A 
ATOM     16  O   UNL     1       6.118  -9.541   2.618  0.00  0.00    -0.485 OA
ATOM     17  C   UNL     1       5.301  -5.605   1.688  0.00  0.00    +0.012 A 
ENDBRANCH   7   8
BRANCH   1  20
ATOM     18  C   UNL     1       3.333  -2.115   3.173  0.00  0.00    -0.005 A 
ATOM     19  C   UNL     1       3.155  -3.415   2.657  0.00  0.00    +0.020 A 
ATOM     20  C   UNL     1       2.541  -3.646   1.417  0.00  0.00    +0.042 A 
ATOM     21  C   UNL     1       2.070  -2.516   0.713  0.00  0.00    +0.129 A 
ATOM     22  C   UNL     1       2.158  -1.230   1.246  0.00  0.00    +0.091 A 
ATOM     23  C   UNL     1       2.762  -1.044   2.482  0.00  0.00    +0.124 A 
BRANCH  18  25
ATOM     24  C   UNL     1       3.396  -2.104   5.697  0.00  0.00    +0.009 C 
ATOM     25  C   UNL     1       4.177  -1.928   4.408  0.00  0.00    +0.035 C 
ENDBRANCH  18  25
BRANCH  21  26
ATOM     26  O   UNL     1       1.473  -2.670  -0.517  0.00  0.00    -0.506 OA
ATOM     27  H   UNL     1       1.401  -1.793  -0.935  0.00  0.00    +0.292 HD
ENDBRANCH  21  26
BRANCH  23  28
ATOM     28  O   UNL     1       2.752   0.229   2.976  0.00  0.00    -0.506 OA
ATOM     29  H   UNL     1       2.795   0.175   3.946  0.00  0.00    +0.292 HD
ENDBRANCH  23  28
ENDBRANCH   1  20
TORSDOF 5
