REMARK  Name = 
REMARK  10 active torsions:
REMARK  status: ('A' for Active; 'I' for Inactive)
REMARK    1  A    between atoms: CA_2  and  C_3
REMARK    2  A    between atoms: CA_2  and  N_7
REMARK    3  A    between atoms: CA_2  and  C_23
REMARK    4  A    between atoms: C_3  and  C_4
REMARK    5  A    between atoms: C_4  and  C_5
REMARK    6  A    between atoms: C_5  and  C_6
REMARK    7  A    between atoms: C_8  and  O_10
REMARK    8  A    between atoms: O_10  and  C_11
REMARK    9  A    between atoms: C_11  and  C_12
REMARK   10  A    between atoms: C_12  and  C_13
REMARK                            x       y       z     vdW  Elec       q    Type
REMARK                         _______ _______ _______ _____ _____    ______ ____
ROOT
ATOM      1  O   UNL     1       2.542   2.762  -2.251  0.00  0.00    -0.443 OA
ENDROOT
BRANCH   1   2
ATOM      2  C   UNL     1       2.253   3.358  -3.537  0.00  0.00    +0.119 C 
ATOM      3  C   UNL     1       2.462   4.888  -3.549  0.00  0.00    +0.048 C 
ATOM      4  C   UNL     1       1.364   5.500  -4.418  0.00  0.00    +0.004 C 
ATOM      5  C   UNL     1       0.456   4.357  -4.828  0.00  0.00    +0.004 C 
ATOM      6  C   UNL     1       0.740   3.259  -3.817  0.00  0.00    +0.048 C 
BRANCH   2   7
ATOM      7  C   UNL     1       3.107   2.603  -4.598  0.00  0.00    +0.083 C 
BRANCH   7   8
ATOM      8  C   UNL     1       3.020   1.076  -4.659  0.00  0.00    -0.044 A 
ATOM      9  C   UNL     1       3.855   0.404  -5.566  0.00  0.00    +0.004 A 
ATOM     10  C   UNL     1       3.809  -0.990  -5.695  0.00  0.00    +0.000 A 
ATOM     11  C   UNL     1       2.933  -1.739  -4.918  0.00  0.00    +0.000 A 
ATOM     12  C   UNL     1       2.114  -1.098  -3.998  0.00  0.00    +0.000 A 
ATOM     13  C   UNL     1       2.164   0.294  -3.867  0.00  0.00    +0.004 A 
ENDBRANCH   7   8
ENDBRANCH   2   7
ENDBRANCH   1   2
BRANCH   1  16
ATOM     14  N   UNL     1       4.221   1.838  -1.156  0.00  0.00    -0.272 N 
ATOM     15  H   UNL     1       3.882   1.010  -1.632  0.00  0.00    +0.153 HD
ATOM     16  C   UNL     1       3.739   3.001  -1.665  0.00  0.00    +0.401 C 
ATOM     17  O   UNL     1       4.331   4.068  -1.629  0.00  0.00    -0.226 OA
BRANCH  14  18
ATOM     18  CA  UNL     1       5.481   1.783  -0.437  0.00  0.00    +0.139 C 
BRANCH  18  19
ATOM     19  C   UNL     1       6.673   1.951  -1.376  0.00  0.00    +0.245 C 
ATOM     20  O   UNL     1       6.738   1.496  -2.515  0.00  0.00    -0.299 OA
ENDBRANCH  18  19
BRANCH  18  21
ATOM     21  C   UNL     1       5.567   0.448   0.303  0.00  0.00    +0.030 C 
BRANCH  21  22
ATOM     22  C   UNL     1       6.745   0.367   1.270  0.00  0.00    +0.002 C 
BRANCH  22  23
ATOM     23  C   UNL     1       6.728  -0.964   2.021  0.00  0.00    -0.003 C 
ATOM     24  C   UNL     1       7.895  -1.070   2.987  0.00  0.00    +0.004 C 
ENDBRANCH  22  23
ENDBRANCH  21  22
ENDBRANCH  18  21
ENDBRANCH  14  18
ENDBRANCH   1  16
TORSDOF 9
