REMARK  Name = 
REMARK  10 active torsions:
REMARK  status: ('A' for Active; 'I' for Inactive)
REMARK    1  A    between atoms: C_2  and  O_3
REMARK    2  A    between atoms: C_2  and  C_4
REMARK    3  A    between atoms: C_2  and  C_17
REMARK    4  A    between atoms: N_6  and  C_7
REMARK    5  A    between atoms: C_10  and  C_14
REMARK    6  A    between atoms: C_14  and  O_15
REMARK    7  A    between atoms: C_23  and  C_24
REMARK    8  A    between atoms: C_23  and  C_25
REMARK    9  A    between atoms: C_28  and  C_29
REMARK   10  A    between atoms: C_28  and  C_30
REMARK                            x       y       z     vdW  Elec       q    Type
REMARK                         _______ _______ _______ _____ _____    ______ ____
ROOT
ATOM      1  C   UNL     1       1.939  -0.016  -0.011  0.00  0.00    +0.230 C 
ENDROOT
BRANCH   1   2
ATOM      2  C   UNL     1       2.398  -1.421  -0.337  0.00  0.00    -0.010 A 
ATOM      3  C   UNL     1       1.734  -2.516   0.207  0.00  0.00    +0.007 A 
ATOM      4  C   UNL     1       2.180  -3.809  -0.060  0.00  0.00    +0.005 A 
ATOM      5  C   UNL     1       3.313  -4.058  -0.865  0.00  0.00    -0.038 A 
ATOM      6  C   UNL     1       3.760  -5.508  -1.094  0.00  0.00    -0.010 C 
ATOM      7  C   UNL     1       4.795  -5.610  -2.236  0.00  0.00    +0.012 C 
ATOM      8  C   UNL     1       5.874  -4.547  -2.121  0.00  0.00    +0.012 C 
ATOM      9  C   UNL     1       5.296  -3.119  -2.235  0.00  0.00    -0.010 C 
ATOM     10  C   UNL     1       4.960  -2.806  -3.710  0.00  0.00    +0.016 C 
ATOM     11  C   UNL     1       6.420  -2.156  -1.781  0.00  0.00    +0.016 C 
ATOM     12  C   UNL     1       4.370  -6.050   0.218  0.00  0.00    +0.016 C 
ATOM     13  C   UNL     1       2.573  -6.416  -1.492  0.00  0.00    +0.016 C 
ATOM     14  C   UNL     1       4.026  -2.955  -1.388  0.00  0.00    -0.038 A 
ATOM     15  C   UNL     1       3.534  -1.655  -1.131  0.00  0.00    +0.011 A 
ENDBRANCH   1   2
BRANCH   1  16
ATOM     16  C   UNL     1       1.793   0.856  -1.280  0.00  0.00    +0.250 C 
ATOM     17  N   UNL     1       0.568   0.720  -1.917  0.00  0.00    -0.281 N 
ATOM     18  H   UNL     1      -0.053  -0.019  -1.598  0.00  0.00    +0.155 HD
ATOM     19  O   UNL     1       2.722   1.573  -1.655  0.00  0.00    -0.272 OA
BRANCH  17  20
ATOM     20  C   UNL     1       0.139   1.413  -3.072  0.00  0.00    +0.069 A 
ATOM     21  C   UNL     1      -1.035   0.979  -3.701  0.00  0.00    +0.145 A 
ATOM     22  F   UNL     1      -1.710  -0.065  -3.192  0.00  0.00    -0.204 F 
ATOM     23  C   UNL     1      -1.515   1.591  -4.858  0.00  0.00    +0.055 A 
ATOM     24  C   UNL     1      -0.823   2.679  -5.396  0.00  0.00    +0.062 A 
ATOM     25  C   UNL     1       0.353   3.124  -4.782  0.00  0.00    +0.017 A 
ATOM     26  C   UNL     1       0.821   2.500  -3.620  0.00  0.00    +0.027 A 
BRANCH  24  27
ATOM     27  C   UNL     1      -1.337   3.296  -6.641  0.00  0.00    +0.337 C 
ATOM     28  O   UNL     1      -1.974   2.672  -7.472  0.00  0.00    -0.245 OA
BRANCH  27  29
ATOM     29  O   UNL     1      -1.077   4.615  -6.756  0.00  0.00    -0.477 OA
ATOM     30  H   UNL     1      -0.715   5.048  -5.961  0.00  0.00    +0.295 HD
ENDBRANCH  27  29
ENDBRANCH  24  27
ENDBRANCH  17  20
ENDBRANCH   1  16
BRANCH   1  31
ATOM     31  O   UNL     1       2.866   0.545   0.915  0.00  0.00    -0.378 OA
ATOM     32  H   UNL     1       3.715   0.610   0.440  0.00  0.00    +0.211 HD
ENDBRANCH   1  31
TORSDOF 6
