REMARK  Name = 
REMARK  3 active torsions:
REMARK  status: ('A' for Active; 'I' for Inactive)
REMARK    1  A    between atoms: C_3  and  N_4
REMARK    2  A    between atoms: N_8  and  C_9
REMARK    3  A    between atoms: C_11  and  N_15
REMARK                            x       y       z     vdW  Elec       q    Type
REMARK                         _______ _______ _______ _____ _____    ______ ____
ROOT
ATOM      1  N   UNL     1      -1.797   0.165   0.412  0.00  0.00    -0.295 N 
ATOM      2  H   UNL     1      -2.766   0.418   0.250  0.00  0.00    +0.154 HD
ATOM      3  C   UNL     1      -0.995   1.291   0.633  0.00  0.00    +0.128 A 
ATOM      4  C   UNL     1       0.309   1.174   1.068  0.00  0.00    +0.063 A 
ATOM      5  C   UNL     1       1.038   2.329   1.136  0.00  0.00    +0.118 A 
ATOM      6  N   UNL     1       0.527   3.528   0.851  0.00  0.00    -0.223 NA
ATOM      7  C   UNL     1      -0.770   3.583   0.513  0.00  0.00    +0.221 A 
ATOM      8  N   UNL     1      -1.376   4.816   0.283  0.00  0.00    -0.284 N 
ATOM      9  H   UNL     1      -2.374   4.708   0.191  0.00  0.00    +0.155 HD
ATOM     10  N   UNL     1      -1.558   2.495   0.416  0.00  0.00    -0.199 NA
ENDROOT
BRANCH   1  20
ATOM     11 CL   UNL     1       0.640  -0.590  -1.545  0.00  0.00    -0.081 Cl
ATOM     12  C   UNL     1      -0.352  -1.637  -0.581  0.00  0.00    +0.066 A 
ATOM     13  C   UNL     1      -0.035  -3.012  -0.658  0.00  0.00    +0.025 A 
ATOM     14  C   UNL     1      -0.865  -3.970  -0.081  0.00  0.00    +0.051 A 
ATOM     15  C   UNL     1      -2.018  -3.523   0.521  0.00  0.00    +0.168 A 
ATOM     16  O   UNL     1      -2.969  -4.318   1.077  0.00  0.00    -0.453 OA
ATOM     17  C   UNL     1      -3.958  -3.338   1.448  0.00  0.00    +0.466 C 
ATOM     18  O   UNL     1      -3.509  -1.979   1.264  0.00  0.00    -0.451 OA
ATOM     19  C   UNL     1      -2.319  -2.179   0.620  0.00  0.00    +0.189 A 
ATOM     20  C   UNL     1      -1.486  -1.177   0.126  0.00  0.00    +0.097 A 
ENDBRANCH   1  20
BRANCH   8  21
ATOM     21  C   UNL     1      -0.836   6.065  -0.057  0.00  0.00    +0.035 A 
ATOM     22  C   UNL     1       0.490   6.249  -0.450  0.00  0.00    +0.023 A 
ATOM     23  C   UNL     1       0.987   7.523  -0.722  0.00  0.00    +0.004 A 
ATOM     24  C   UNL     1       0.161   8.640  -0.601  0.00  0.00    +0.023 A 
ATOM     25  C   UNL     1      -1.177   8.515  -0.216  0.00  0.00    +0.032 A 
ATOM     26  C   UNL     1      -1.637   7.213   0.072  0.00  0.00    +0.046 A 
BRANCH  25  27
ATOM     27  N   UNL     1      -2.023   9.601  -0.125  0.00  0.00    -0.325 N 
ATOM     28  C   UNL     1      -3.434   9.498  -0.530  0.00  0.00    +0.133 C 
ATOM     29  C   UNL     1      -3.734  10.535  -1.623  0.00  0.00    +0.178 C 
ATOM     30  O   UNL     1      -3.395  11.865  -1.198  0.00  0.00    -0.377 OA
ATOM     31  C   UNL     1      -1.990  11.945  -0.903  0.00  0.00    +0.178 C 
ATOM     32  C   UNL     1      -1.581  10.963   0.206  0.00  0.00    +0.133 C 
ENDBRANCH  25  27
ENDBRANCH   8  21
TORSDOF 3
