REMARK  Name = 
REMARK  7 active torsions:
REMARK  status: ('A' for Active; 'I' for Inactive)
REMARK    1  A    between atoms: C_2  and  C_3
REMARK    2  A    between atoms: C_5  and  C_6
REMARK    3  A    between atoms: C_9  and  C_11
REMARK    4  A    between atoms: C_12  and  C_13
REMARK    5  A    between atoms: C_13  and  O_14
REMARK    6  A    between atoms: C_17  and  C_19
REMARK    7  A    between atoms: C_22  and  O_23
REMARK                            x       y       z     vdW  Elec       q    Type
REMARK                         _______ _______ _______ _____ _____    ______ ____
ROOT
ATOM      1  C   UNL     1      -0.000  -0.000   0.000  0.00  0.00    +0.019 C 
ATOM      2  C   UNL     1      -0.000  -0.000   0.000  0.00  0.00    +0.012 C 
ATOM      3  C   UNL     1      -0.000  -0.000   0.000  0.00  0.00    +0.026 C 
ATOM      4  C   UNL     1      -0.000  -0.000   0.000  0.00  0.00    +0.170 C 
ATOM      5  O   UNL     1      -0.000  -0.000   0.000  0.00  0.00    -0.371 OA
ATOM      6  C   UNL     1      -0.000  -0.000   0.000  0.00  0.00    +0.156 C 
ATOM      7  C   UNL     1      -0.000  -0.000   0.000  0.00  0.00    +0.051 C 
ATOM      8  C   UNL     1      -0.000  -0.000   0.000  0.00  0.00    -0.070 C 
ATOM      9  C   UNL     1      -0.000  -0.000   0.000  0.00  0.00    +0.039 C 
ATOM     10  C   UNL     1      -0.000  -0.000   0.000  0.00  0.00    +0.007 C 
ATOM     11  C   UNL     1      -0.000  -0.000   0.000  0.00  0.00    +0.009 C 
ATOM     12  C   UNL     1      -0.000  -0.000   0.000  0.00  0.00    -0.024 C 
ENDROOT
BRANCH   6  13
ATOM     13  C   UNL     1      -0.000  -0.000   0.000  0.00  0.00    -0.018 A 
ATOM     14  C   UNL     1      -0.000  -0.000   0.000  0.00  0.00    +0.010 A 
ATOM     15  C   UNL     1      -0.000  -0.000   0.000  0.00  0.00    +0.046 A 
ATOM     16  C   UNL     1      -0.000  -0.000  -0.000  0.00  0.00    +0.117 A 
ATOM     17  C   UNL     1      -0.000  -0.000   0.000  0.00  0.00    +0.046 A 
ATOM     18  C   UNL     1      -0.000  -0.000   0.000  0.00  0.00    +0.010 A 
BRANCH  16  19
ATOM     19  O   UNL     1       0.000  -0.000   0.000  0.00  0.00    -0.507 OA
ATOM     20  H   UNL     1      -0.000  -0.000   0.000  0.00  0.00    +0.292 HD
ENDBRANCH  16  19
ENDBRANCH   6  13
BRANCH   3  21
ATOM     21  C   UNL     1      -0.000  -0.000   0.000  0.00  0.00    +0.165 C 
BRANCH  21  22
ATOM     22  O   UNL     1      -0.000  -0.000   0.000  0.00  0.00    -0.394 OA
ATOM     23  H   UNL     1      -0.000  -0.000   0.000  0.00  0.00    +0.209 HD
ENDBRANCH  21  22
ENDBRANCH   3  21
TORSDOF 4
