REMARK  Name = 
REMARK  3 active torsions:
REMARK  status: ('A' for Active; 'I' for Inactive)
REMARK    1  A    between atoms: C_1  and  C_2
REMARK    2  A    between atoms: C_3  and  S_12
REMARK    3  A    between atoms: S_12  and  C_15
REMARK                            x       y       z     vdW  Elec       q    Type
REMARK                         _______ _______ _______ _____ _____    ______ ____
ROOT
ATOM      1  C   UNL     1       0.845  -0.048   0.038  0.00  0.00    +0.050 C 
ATOM      2  C   UNL     1       2.332  -0.074   0.044  0.00  0.00    +0.022 A 
ATOM      3  C   UNL     1       3.190   1.063   0.042  0.00  0.00    +0.026 A 
ATOM      4  C   UNL     1       4.482   0.564   0.054  0.00  0.00    +0.138 A 
ATOM      5  C   UNL     1       5.625   1.363   0.052  0.00  0.00    +0.048 A 
ATOM      6  C   UNL     1       5.421   2.749   0.040  0.00  0.00    +0.023 A 
ATOM      7  C   UNL     1       4.131   3.284   0.033  0.00  0.00    +0.042 A 
ATOM      8 CL   UNL     1       3.921   4.994   0.025  0.00  0.00    -0.084 Cl
ATOM      9  O   UNL     1       4.464  -0.795   0.074  0.00  0.00    -0.437 OA
ATOM     10  C   UNL     1       3.001   2.458   0.033  0.00  0.00    +0.032 A 
ATOM     11  C   UNL     1       3.149  -1.211   0.059  0.00  0.00    +0.252 A 
ENDROOT
BRANCH  11  12
ATOM     12  S   UNL     1       2.671  -2.931   0.084  0.00  0.00    +0.077 S 
ATOM     13  O   UNL     1       1.984  -3.165  -1.173  0.00  0.00    -0.160 OA
ATOM     14  O   UNL     1       1.999  -3.107   1.360  0.00  0.00    -0.160 OA
BRANCH  12  15
ATOM     15  C   UNL     1       4.094  -4.000   0.102  0.00  0.00    +0.205 A 
ATOM     16  C   UNL     1       3.905  -5.328   0.745  0.00  0.00    +0.055 A 
ATOM     17  C   UNL     1       4.918  -6.196   0.687  0.00  0.00    +0.075 A 
ATOM     18  C   UNL     1       6.176  -5.819   0.018  0.00  0.00    +0.265 A 
ATOM     19  O   UNL     1       7.103  -6.615  -0.065  0.00  0.00    -0.266 OA
ATOM     20  N   UNL     1       6.227  -4.540  -0.483  0.00  0.00    -0.241 N 
ATOM     21  H   UNL     1       7.083  -4.263  -0.955  0.00  0.00    +0.192 HD
ATOM     22  N   UNL     1       5.199  -3.629  -0.478  0.00  0.00    -0.152 NA
ENDBRANCH  12  15
ENDBRANCH  11  12
TORSDOF 2
