REMARK  Name = 
REMARK  5 active torsions:
REMARK  status: ('A' for Active; 'I' for Inactive)
REMARK    1  A    between atoms: C_2  and  N_3
REMARK    2  A    between atoms: C_2  and  C_4
REMARK    3  A    between atoms: C_2  and  C_17
REMARK    4  A    between atoms: C_13  and  C_15
REMARK    5  A    between atoms: C_25  and  O_26
REMARK                            x       y       z     vdW  Elec       q    Type
REMARK                         _______ _______ _______ _____ _____    ______ ____
ROOT
ATOM      1  C   UNL     1       2.059  -0.237   0.224  0.00  0.00    +0.144 C 
ENDROOT
BRANCH   1   2
ATOM      2  C   UNL     1       2.799  -1.583   0.071  0.00  0.00    -0.002 C 
ATOM      3  C   UNL     1       3.108  -2.170   1.476  0.00  0.00    +0.012 C 
ATOM      4  C   UNL     1       3.858  -3.503   1.350  0.00  0.00    -0.007 C 
ATOM      5  C   UNL     1       2.978  -4.515   0.603  0.00  0.00    +0.038 C 
ATOM      6  C   UNL     1       2.631  -3.976  -0.792  0.00  0.00    +0.067 C 
ATOM      7  C   UNL     1       3.927  -3.764  -1.590  0.00  0.00    +0.038 C 
ATOM      8  C   UNL     1       4.834  -2.766  -0.860  0.00  0.00    -0.007 C 
ATOM      9  C   UNL     1       5.153  -3.266   0.558  0.00  0.00    +0.007 C 
ATOM     10  C   UNL     1       1.895  -2.634  -0.648  0.00  0.00    +0.043 C 
ATOM     11  C   UNL     1       4.104  -1.429  -0.750  0.00  0.00    +0.012 C 
BRANCH   6  12
ATOM     12  O   UNL     1       1.779  -4.889  -1.468  0.00  0.00    -0.389 OA
ATOM     13  H   UNL     1       2.317  -5.653  -1.745  0.00  0.00    +0.210 HD
ENDBRANCH   6  12
ENDBRANCH   1   2
BRANCH   1  14
ATOM     14  C   UNL     1       2.825   0.801   1.154  0.00  0.00    +0.234 C 
ATOM     15  N   UNL     1       2.154   1.384   2.227  0.00  0.00    -0.281 N 
ATOM     16  C   UNL     1       0.704   1.653   2.364  0.00  0.00    +0.179 C 
ATOM     17  C   UNL     1       0.601   3.082   2.916  0.00  0.00    +0.043 C 
ATOM     18  C   UNL     1       1.888   3.267   3.677  0.00  0.00    +0.014 C 
ATOM     19  C   UNL     1       3.152   3.666   2.966  0.00  0.00    +0.028 C 
ATOM     20  C   UNL     1       2.853   2.216   3.178  0.00  0.00    +0.081 C 
ATOM     21  O   UNL     1       4.016   1.076   0.970  0.00  0.00    -0.274 OA
BRANCH  16  22
ATOM     22  C   UNL     1      -0.038   1.458   1.051  0.00  0.00    +0.085 C 
ATOM     23  N   UNL     1      -0.653   1.296  -0.038  0.00  0.00    -0.195 NA
ENDBRANCH  16  22
ENDBRANCH   1  14
BRANCH   1  24
ATOM     24  N   UNL     1       1.813   0.396  -1.092  0.00  0.00    -0.319 NA
ATOM     25  H   UNL     1       1.608  -0.310  -1.796  0.00  0.00    +0.119 HD
ATOM     26  H   UNL     1       0.943   0.940  -1.058  0.00  0.00    +0.119 HD
ENDBRANCH   1  24
TORSDOF 5
