REMARK  Name = 
REMARK  3 active torsions:
REMARK  status: ('A' for Active; 'I' for Inactive)
REMARK    1  A    between atoms: C_2  and  O_3
REMARK    2  A    between atoms: C_5  and  N_12
REMARK    3  A    between atoms: C_8  and  C_10
REMARK                            x       y       z     vdW  Elec       q    Type
REMARK                         _______ _______ _______ _____ _____    ______ ____
ROOT
ATOM      1  N   UNL     1       5.068   0.746   0.160  0.00  0.00    -0.288 N 
ATOM      2  C   UNL     1       5.529   1.961  -0.275  0.00  0.00    +0.167 A 
ATOM      3  N   UNL     1       5.100   3.185   0.076  0.00  0.00    -0.216 NA
ATOM      4  C   UNL     1       5.809   4.141  -0.565  0.00  0.00    +0.225 A 
ATOM      5  N   UNL     1       6.826   3.991  -1.442  0.00  0.00    -0.219 NA
ATOM      6  C   UNL     1       7.232   2.738  -1.741  0.00  0.00    +0.147 A 
ATOM      7  N   UNL     1       8.302   2.572  -2.612  0.00  0.00    -0.341 N 
ATOM      8  H   UNL     1       8.345   1.650  -3.031  0.00  0.00    +0.144 HD
ATOM      9  H   UNL     1       8.450   3.376  -3.204  0.00  0.00    +0.144 HD
ATOM     10  C   UNL     1       6.555   1.657  -1.157  0.00  0.00    +0.147 A 
ATOM     11  N   UNL     1       6.710   0.297  -1.286  0.00  0.00    -0.231 NA
ATOM     12  C   UNL     1       5.833  -0.217  -0.451  0.00  0.00    +0.203 A 
ENDROOT
BRANCH   1  16
ATOM     13  C   UNL     1       2.065  -0.038   0.060  0.00  0.00    +0.150 C 
ATOM     14  C   UNL     1       2.635  -1.287   0.725  0.00  0.00    +0.180 C 
ATOM     15  O   UNL     1       3.874  -0.892   1.353  0.00  0.00    -0.348 OA
ATOM     16  C   UNL     1       4.059   0.531   1.183  0.00  0.00    +0.225 C 
ATOM     17  C   UNL     1       2.673   1.077   0.878  0.00  0.00    +0.088 C 
BRANCH  13  18
ATOM     18  O   UNL     1       0.649  -0.007   0.067  0.00  0.00    -0.389 OA
ATOM     19  H   UNL     1       0.330  -0.075   0.985  0.00  0.00    +0.210 HD
ENDBRANCH  13  18
BRANCH  14  20
ATOM     20  C   UNL     1       2.865  -2.402  -0.290  0.00  0.00    +0.247 C 
ATOM     21  F   UNL     1       3.324  -3.508   0.359  0.00  0.00    -0.246 F 
ENDBRANCH  14  20
ENDBRANCH   1  16
TORSDOF 3
