REMARK  Name = 
REMARK  4 active torsions:
REMARK  status: ('A' for Active; 'I' for Inactive)
REMARK    1  A    between atoms: C_7  and  C_9
REMARK    2  A    between atoms: C_12  and  C_15
REMARK    3  A    between atoms: N_24  and  C_25
REMARK    4  A    between atoms: C_25  and  C_26
REMARK                            x       y       z     vdW  Elec       q    Type
REMARK                         _______ _______ _______ _____ _____    ______ ____
ROOT
ATOM      1  C   UNL     1      -0.000  -0.000  -0.000  0.00  0.00    +0.070 C 
ATOM      2  C   UNL     1      -0.000  -0.000   0.000  0.00  0.00    +0.106 C 
ATOM      3  C   UNL     1      -0.000  -0.000  -0.000  0.00  0.00    +0.110 C 
ATOM      4  C   UNL     1      -0.000  -0.000  -0.000  0.00  0.00    +0.228 C 
ATOM      5  N   UNL     1      -0.000  -0.000  -0.000  0.00  0.00    -0.237 N 
ATOM      6  O   UNL     1      -0.000  -0.000  -0.000  0.00  0.00    -0.275 OA
ATOM      7  C   UNL     1      -0.000  -0.000  -0.000  0.00  0.00    +0.100 C 
ATOM      8  C   UNL     1      -0.000  -0.000  -0.000  0.00  0.00    +0.227 C 
ATOM      9  O   UNL     1      -0.000  -0.000  -0.000  0.00  0.00    -0.275 OA
ATOM     10  N   UNL     1      -0.000  -0.000  -0.000  0.00  0.00    -0.291 NA
ATOM     11  C   UNL     1      -0.000  -0.000  -0.000  0.00  0.00    +0.085 C 
ATOM     12  C   UNL     1      -0.000  -0.000  -0.000  0.00  0.00    +0.017 C 
ATOM     13  C   UNL     1      -0.000  -0.000  -0.000  0.00  0.00    +0.021 C 
ENDROOT
BRANCH   7  14
ATOM     14  C   UNL     1      -0.000  -0.000  -0.000  0.00  0.00    -0.029 A 
ATOM     15  C   UNL     1      -0.000  -0.000  -0.000  0.00  0.00    +0.006 A 
ATOM     16  C   UNL     1      -0.000  -0.000  -0.000  0.00  0.00    +0.016 A 
ATOM     17  C   UNL     1      -0.000  -0.000  -0.000  0.00  0.00    +0.061 A 
ATOM     18  C   UNL     1      -0.000  -0.000  -0.000  0.00  0.00    +0.016 A 
ATOM     19  C   UNL     1      -0.000  -0.000  -0.000  0.00  0.00    +0.006 A 
BRANCH  17  20
ATOM     20  C   UNL     1      -0.000  -0.000  -0.000  0.00  0.00    +0.266 C 
ATOM     21  N   UNL     1      -0.000  -0.000  -0.000  0.00  0.00    -0.288 N 
ATOM     22  H   UNL     1      -0.000  -0.000  -0.000  0.00  0.00    +0.301 HD
ATOM     23  H   UNL     1      -0.000  -0.000  -0.000  0.00  0.00    +0.301 HD
ATOM     24  N   UNL     1      -0.000  -0.000  -0.000  0.00  0.00    -0.250 N 
ATOM     25  H   UNL     1      -0.000  -0.000  -0.000  0.00  0.00    +0.288 HD
ATOM     26  H   UNL     1      -0.000  -0.000  -0.000  0.00  0.00    +0.288 HD
ENDBRANCH  17  20
ENDBRANCH   7  14
BRANCH   5  27
ATOM     27  C   UNL     1      -0.000  -0.000  -0.000  0.00  0.00    +0.151 C 
BRANCH  27  28
ATOM     28  C   UNL     1      -0.000  -0.000  -0.000  0.00  0.00    -0.029 A 
ATOM     29  C   UNL     1      -0.000  -0.000  -0.000  0.00  0.00    +0.008 A 
ATOM     30  C   UNL     1      -0.000  -0.000  -0.000  0.00  0.00    +0.038 A 
ATOM     31  C   UNL     1      -0.000  -0.000  -0.000  0.00  0.00    +0.123 A 
ATOM     32  F   UNL     1      -0.000  -0.000  -0.000  0.00  0.00    -0.205 F 
ATOM     33  C   UNL     1      -0.000  -0.000   0.000  0.00  0.00    +0.038 A 
ATOM     34  C   UNL     1      -0.000  -0.000  -0.000  0.00  0.00    +0.008 A 
ENDBRANCH  27  28
ENDBRANCH   5  27
TORSDOF 4
