REMARK  Name = 
REMARK  11 active torsions:
REMARK  status: ('A' for Active; 'I' for Inactive)
REMARK    1  A    between atoms: C_2  and  C_3
REMARK    2  A    between atoms: C_2  and  O_4
REMARK    3  A    between atoms: C_2  and  C_5
REMARK    4  A    between atoms: C_5  and  N_7
REMARK    5  A    between atoms: C_5  and  C_31
REMARK    6  A    between atoms: C_8  and  C_10
REMARK    7  A    between atoms: C_13  and  C_16
REMARK    8  A    between atoms: C_17  and  C_18
REMARK    9  A    between atoms: C_21  and  C_22
REMARK   10  A    between atoms: C_22  and  N_23
REMARK   11  A    between atoms: N_33  and  O_34
REMARK                            x       y       z     vdW  Elec       q    Type
REMARK                         _______ _______ _______ _____ _____    ______ ____
ROOT
ATOM      1  C   UNL     1       0.253   3.228   2.441  0.00  0.00    +0.037 A 
ATOM      2  C   UNL     1       0.664   4.566   2.485  0.00  0.00    +0.014 A 
ATOM      3  C   UNL     1       0.190   5.413   3.494  0.00  0.00    +0.017 A 
ATOM      4  C   UNL     1      -0.686   4.924   4.467  0.00  0.00    +0.025 A 
ATOM      5  C   UNL     1      -1.068   3.581   4.444  0.00  0.00    +0.017 A 
ATOM      6  C   UNL     1      -0.600   2.732   3.435  0.00  0.00    +0.014 A 
ENDROOT
BRANCH   1   9
ATOM      7  N   UNL     1      -0.085   1.360   0.915  0.00  0.00    -0.298 N 
ATOM      8  H   UNL     1      -1.044   1.336   1.238  0.00  0.00    +0.150 HD
ATOM      9  C   UNL     1       0.761   2.357   1.349  0.00  0.00    +0.245 C 
ATOM     10  O   UNL     1       1.876   2.548   0.876  0.00  0.00    -0.270 OA
BRANCH   7  11
ATOM     11  C   UNL     1       0.282   0.460  -0.183  0.00  0.00    +0.189 C 
BRANCH  11  12
ATOM     12  C   UNL     1      -0.733   0.596  -1.328  0.00  0.00    +0.258 C 
ATOM     13  N   UNL     1      -2.048   0.363  -0.968  0.00  0.00    -0.196 N 
ATOM     14  H   UNL     1      -2.219  -0.319  -0.226  0.00  0.00    +0.182 HD
ATOM     15  O   UNL     1      -0.416   0.814  -2.498  0.00  0.00    -0.272 OA
BRANCH  13  16
ATOM     16  O   UNL     1      -2.951   0.319  -2.062  0.00  0.00    -0.295 OA
ATOM     17  H   UNL     1      -2.377   0.565  -2.822  0.00  0.00    +0.241 HD
ENDBRANCH  13  16
ENDBRANCH  11  12
BRANCH  11  18
ATOM     18  C   UNL     1       0.349  -1.011   0.283  0.00  0.00    +0.141 C 
ATOM     19  C   UNL     1       1.456  -1.237   1.309  0.00  0.00    +0.040 C 
BRANCH  18  20
ATOM     20  O   UNL     1      -0.908  -1.409   0.864  0.00  0.00    -0.390 OA
ATOM     21  H   UNL     1      -0.794  -2.328   1.175  0.00  0.00    +0.210 HD
ENDBRANCH  18  20
ENDBRANCH  11  18
ENDBRANCH   7  11
ENDBRANCH   1   9
BRANCH   4  22
ATOM     22  C   UNL     1      -1.209   5.804   5.471  0.00  0.00    -0.061 C 
ATOM     23  C   UNL     1      -1.668   6.573   6.271  0.00  0.00    -0.061 C 
BRANCH  23  24
ATOM     24  C   UNL     1      -2.218   7.552   7.163  0.00  0.00    +0.025 A 
ATOM     25  C   UNL     1      -1.791   8.879   7.072  0.00  0.00    +0.017 A 
ATOM     26  C   UNL     1      -2.337   9.861   7.905  0.00  0.00    +0.006 A 
ATOM     27  C   UNL     1      -3.316   9.527   8.851  0.00  0.00    -0.033 A 
ATOM     28  C   UNL     1      -3.741   8.190   8.935  0.00  0.00    +0.006 A 
ATOM     29  C   UNL     1      -3.193   7.207   8.101  0.00  0.00    +0.017 A 
BRANCH  27  30
ATOM     30  C   UNL     1      -3.907  10.596   9.755  0.00  0.00    +0.119 C 
BRANCH  30  31
ATOM     31  N   UNL     1      -3.815  10.251  11.179  0.00  0.00    -0.294 NA
ATOM     32  C   UNL     1      -4.637  11.133  12.030  0.00  0.00    +0.113 C 
ATOM     33  C   UNL     1      -3.983  12.476  12.390  0.00  0.00    +0.175 C 
ATOM     34  O   UNL     1      -2.708  12.274  13.007  0.00  0.00    -0.377 OA
ATOM     35  C   UNL     1      -1.838  11.569  12.116  0.00  0.00    +0.175 C 
ATOM     36  C   UNL     1      -2.428  10.214  11.691  0.00  0.00    +0.113 C 
ENDBRANCH  30  31
ENDBRANCH  27  30
ENDBRANCH  23  24
ENDBRANCH   4  22
TORSDOF 10
