REMARK  Name = 
REMARK  5 active torsions:
REMARK  status: ('A' for Active; 'I' for Inactive)
REMARK    1  A    between atoms: C_5  and  O_6
REMARK    2  A    between atoms: C_12  and  C_14
REMARK    3  A    between atoms: C_14  and  O_15
REMARK    4  A    between atoms: C_19  and  C_20
REMARK    5  A    between atoms: C_27  and  O_29
REMARK                            x       y       z     vdW  Elec       q    Type
REMARK                         _______ _______ _______ _____ _____    ______ ____
ROOT
ATOM      1  C   UNL     1      -0.000  -0.000  -0.000  0.00  0.00    +0.045 C 
ATOM      2  C   UNL     1      -0.000  -0.000  -0.000  0.00  0.00    +0.140 C 
ATOM      3  C   UNL     1      -0.000  -0.000  -0.000  0.00  0.00    +0.019 C 
ATOM      4  C   UNL     1      -0.000  -0.000  -0.000  0.00  0.00    +0.005 C 
ATOM      5  C   UNL     1      -0.000  -0.000  -0.000  0.00  0.00    +0.154 C 
ATOM      6  C   UNL     1      -0.000  -0.000  -0.000  0.00  0.00    +0.102 C 
ATOM      7  C   UNL     1      -0.000  -0.000   0.000  0.00  0.00    +0.317 C 
ATOM      8  O   UNL     1      -0.000  -0.000  -0.000  0.00  0.00    -0.250 OA
ATOM      9  C   UNL     1      -0.000  -0.000  -0.000  0.00  0.00    +0.026 C 
ATOM     10  C   UNL     1      -0.000  -0.000  -0.000  0.00  0.00    +0.071 C 
ATOM     11  C   UNL     1      -0.000  -0.000  -0.000  0.00  0.00    +0.113 C 
ATOM     12  O   UNL     1      -0.000  -0.000  -0.000  0.00  0.00    -0.453 OA
ATOM     13  C   UNL     1      -0.000  -0.000   0.000  0.00  0.00    -0.003 C 
ATOM     14  C   UNL     1      -0.000  -0.000  -0.000  0.00  0.00    +0.041 C 
ATOM     15  C   UNL     1      -0.000  -0.000  -0.000  0.00  0.00    -0.045 C 
ATOM     16  C   UNL     1      -0.000  -0.000   0.000  0.00  0.00    +0.010 C 
ATOM     17  C   UNL     1      -0.000  -0.000   0.000  0.00  0.00    +0.087 C 
ATOM     18  C   UNL     1      -0.000  -0.000  -0.000  0.00  0.00    +0.040 C 
ATOM     19  C   UNL     1      -0.000  -0.000  -0.000  0.00  0.00    +0.047 C 
ATOM     20  C   UNL     1      -0.000  -0.000   0.000  0.00  0.00    +0.011 C 
ENDROOT
BRANCH   5  21
ATOM     21  O   UNL     1      -0.000  -0.000  -0.000  0.00  0.00    -0.387 OA
ATOM     22  H   UNL     1       0.000   0.000   0.000  0.00  0.00    +0.210 HD
ENDBRANCH   5  21
BRANCH  11  23
ATOM     23  C   UNL     1      -0.000  -0.000  -0.000  0.00  0.00    +0.309 C 
ATOM     24  O   UNL     1      -0.000  -0.000  -0.000  0.00  0.00    -0.251 OA
BRANCH  23  25
ATOM     25  O   UNL     1      -0.000  -0.000  -0.000  0.00  0.00    -0.480 OA
ATOM     26  H   UNL     1      -0.000  -0.000  -0.000  0.00  0.00    +0.295 HD
ENDBRANCH  23  25
ENDBRANCH  11  23
BRANCH  17  27
ATOM     27  O   UNL     1      -0.000  -0.000   0.000  0.00  0.00    -0.384 OA
ATOM     28  H   UNL     1       0.000   0.000   0.000  0.00  0.00    +0.211 HD
ENDBRANCH  17  27
TORSDOF 4
