REMARK  Name = 
REMARK  21 active torsions:
REMARK  status: ('A' for Active; 'I' for Inactive)
REMARK    1  A    between atoms: C_2  and  C_3
REMARK    2  A    between atoms: C_2  and  C_15
REMARK    3  A    between atoms: C_2  and  O_22
REMARK    4  A    between atoms: C_3  and  O_4
REMARK    5  A    between atoms: O_4  and  C_5
REMARK    6  A    between atoms: C_5  and  C_6
REMARK    7  A    between atoms: C_6  and  C_7
REMARK    8  A    between atoms: C_7  and  C_8
REMARK    9  A    between atoms: C_8  and  C_9
REMARK   10  A    between atoms: C_9  and  C_10
REMARK   11  A    between atoms: C_10  and  C_11
REMARK   12  A    between atoms: C_11  and  C_12
REMARK   13  A    between atoms: C_12  and  C_13
REMARK   14  A    between atoms: C_13  and  C_14
REMARK   15  A    between atoms: C_15  and  O_16
REMARK   16  A    between atoms: O_16  and  C_17
REMARK   17  A    between atoms: C_17  and  C_18
REMARK   18  A    between atoms: O_22  and  P_23
REMARK   19  A    between atoms: P_23  and  O_24
REMARK   20  A    between atoms: P_23  and  O_26
REMARK   21  A    between atoms: O_26  and  C_27
REMARK                            x       y       z     vdW  Elec       q    Type
REMARK                         _______ _______ _______ _____ _____    ______ ____
ROOT
ATOM      1  C   UNL     1       5.694  -2.343   0.659  0.00  0.00    +0.181 C 
ENDROOT
BRANCH   1   2
ATOM      2  C   UNL     1       4.623  -1.299   0.305  0.00  0.00    +0.194 C 
BRANCH   2   3
ATOM      3  O   UNL     1       3.354  -1.712   0.833  0.00  0.00    -0.368 OA
BRANCH   3   4
ATOM      4  C   UNL     1       2.308  -0.785   0.504  0.00  0.00    +0.273 C 
BRANCH   4   5
ATOM      5  C   UNL     1       0.923  -1.229   0.988  0.00  0.00    +0.413 C 
ATOM      6  F   UNL     1       0.050  -1.289  -0.046  0.00  0.00    -0.168 F 
ATOM      7  F   UNL     1       0.421  -0.339   1.879  0.00  0.00    -0.168 F 
ATOM      8  F   UNL     1       0.928  -2.439   1.587  0.00  0.00    -0.168 F 
ENDBRANCH   4   5
ENDBRANCH   3   4
ENDBRANCH   2   3
ENDBRANCH   1   2
BRANCH   1   9
ATOM      9  O   UNL     1       5.453  -3.504  -0.142  0.00  0.00    -0.279 OA
BRANCH   9  10
ATOM     10  P   UNL     1       6.297  -4.883   0.124  0.00  0.00    +0.475 P 
ATOM     11  O   UNL     1       5.569  -6.007  -0.614  0.00  0.00    -0.227 OA
BRANCH  10  12
ATOM     12  O   UNL     1       5.441  -5.194   1.595  0.00  0.00    -0.290 OA
ATOM     13  C   UNL     1       5.767  -6.437   2.194  0.00  0.00    +0.207 C 
ENDBRANCH  10  12
BRANCH  10  14
ATOM     14  O   UNL     1       7.153  -4.572  -1.347  0.00  0.00    -0.302 OA
ATOM     15  H   UNL     1       6.438  -4.570  -2.015  0.00  0.00    +0.222 HD
ENDBRANCH  10  14
ENDBRANCH   9  10
ENDBRANCH   1   9
BRANCH   1  16
ATOM     16  C   UNL     1       7.105  -1.772   0.448  0.00  0.00    +0.194 C 
BRANCH  16  17
ATOM     17  O   UNL     1       7.261  -1.193  -0.852  0.00  0.00    -0.377 OA
BRANCH  17  18
ATOM     18  C   UNL     1       8.564  -0.623  -1.010  0.00  0.00    +0.160 C 
BRANCH  18  19
ATOM     19  C   UNL     1       8.752  -0.082  -2.427  0.00  0.00    +0.028 C 
BRANCH  19  20
ATOM     20  C   UNL     1       7.733   0.980  -2.857  0.00  0.00    +0.002 C 
BRANCH  20  21
ATOM     21  C   UNL     1       7.804   2.263  -2.032  0.00  0.00    +0.000 C 
BRANCH  21  22
ATOM     22  C   UNL     1       6.776   3.290  -2.512  0.00  0.00    +0.000 C 
BRANCH  22  23
ATOM     23  C   UNL     1       6.833   4.564  -1.666  0.00  0.00    -0.000 C 
BRANCH  23  24
ATOM     24  C   UNL     1       5.784   5.582  -2.116  0.00  0.00    -0.000 C 
BRANCH  24  25
ATOM     25  C   UNL     1       5.840   6.848  -1.259  0.00  0.00    -0.000 C 
BRANCH  25  26
ATOM     26  C   UNL     1       4.788   7.865  -1.697  0.00  0.00    -0.003 C 
ATOM     27  C   UNL     1       4.840   9.122  -0.844  0.00  0.00    +0.004 C 
ENDBRANCH  25  26
ENDBRANCH  24  25
ENDBRANCH  23  24
ENDBRANCH  22  23
ENDBRANCH  21  22
ENDBRANCH  20  21
ENDBRANCH  19  20
ENDBRANCH  18  19
ENDBRANCH  17  18
ENDBRANCH  16  17
ENDBRANCH   1  16
TORSDOF 19
