REMARK  Name = 
REMARK  4 active torsions:
REMARK  status: ('A' for Active; 'I' for Inactive)
REMARK    1  A    between atoms: C_1  and  C_2
REMARK    2  A    between atoms: C_2  and  C_16
REMARK    3  A    between atoms: N_6  and  N_7
REMARK    4  A    between atoms: N_7  and  C_8
REMARK                            x       y       z     vdW  Elec       q    Type
REMARK                         _______ _______ _______ _____ _____    ______ ____
ROOT
ATOM      1  C   UNL     1       1.194   0.130   0.257  0.00  0.00    +0.071 C 
ATOM      2  C   UNL     1       2.697  -0.005   0.015  0.00  0.00    +0.217 C 
ATOM      3  C   UNL     1       3.236  -1.303   0.592  0.00  0.00    +0.289 C 
ATOM      4  O   UNL     1       2.997  -2.429   0.170  0.00  0.00    -0.269 OA
ATOM      5  N   UNL     1       4.058  -0.954   1.630  0.00  0.00    -0.119 N 
ATOM      6  C   UNL     1       4.281   0.385   1.615  0.00  0.00    +0.428 C 
ATOM      7  O   UNL     1       5.205   0.986   2.144  0.00  0.00    -0.224 OA
ATOM      8  O   UNL     1       3.355   0.997   0.826  0.00  0.00    -0.428 OA
ENDROOT
BRANCH   2   9
ATOM      9  C   UNL     1       3.069   0.188  -1.452  0.00  0.00    +0.040 A 
ATOM     10  C   UNL     1       2.531  -0.645  -2.446  0.00  0.00    +0.134 A 
ATOM     11  F   UNL     1       1.688  -1.632  -2.114  0.00  0.00    -0.205 F 
ATOM     12  C   UNL     1       2.827  -0.471  -3.795  0.00  0.00    +0.077 A 
ATOM     13  C   UNL     1       3.673   0.554  -4.171  0.00  0.00    +0.126 A 
ATOM     14  F   UNL     1       3.945   0.752  -5.466  0.00  0.00    -0.205 F 
ATOM     15  C   UNL     1       4.240   1.394  -3.219  0.00  0.00    +0.039 A 
ATOM     16  C   UNL     1       3.944   1.212  -1.865  0.00  0.00    +0.013 A 
ENDBRANCH   2   9
BRANCH   5  17
ATOM     17  N   UNL     1       5.064  -1.822   2.059  0.00  0.00    -0.252 N 
ATOM     18  H   UNL     1       5.982  -1.416   2.231  0.00  0.00    +0.171 HD
BRANCH  17  19
ATOM     19  C   UNL     1       4.720  -2.976   2.782  0.00  0.00    +0.045 A 
ATOM     20  C   UNL     1       3.446  -3.221   3.309  0.00  0.00    +0.024 A 
ATOM     21  C   UNL     1       3.109  -4.479   3.821  0.00  0.00    +0.002 A 
ATOM     22  C   UNL     1       4.042  -5.512   3.805  0.00  0.00    +0.000 A 
ATOM     23  C   UNL     1       5.325  -5.276   3.320  0.00  0.00    +0.002 A 
ATOM     24  C   UNL     1       5.662  -4.014   2.825  0.00  0.00    +0.024 A 
ENDBRANCH  17  19
ENDBRANCH   5  17
TORSDOF 3
