REMARK  Name = 
REMARK  12 active torsions:
REMARK  status: ('A' for Active; 'I' for Inactive)
REMARK    1  A    between atoms: C_2  and  C_3
REMARK    2  A    between atoms: C_2  and  N_8
REMARK    3  A    between atoms: C_2  and  C_16
REMARK    4  A    between atoms: C_3  and  C_4
REMARK    5  A    between atoms: C_4  and  O_6
REMARK    6  A    between atoms: O_6  and  C_7
REMARK    7  A    between atoms: C_9  and  O_11
REMARK    8  A    between atoms: O_11  and  C_12
REMARK    9  A    between atoms: C_12  and  C_13
REMARK   10  A    between atoms: C_12  and  C_14
REMARK   11  A    between atoms: C_12  and  C_15
REMARK   12  A    between atoms: C_16  and  C_17
REMARK                            x       y       z     vdW  Elec       q    Type
REMARK                         _______ _______ _______ _____ _____    ______ ____
ROOT
ATOM      1  C   UNL     1       2.128   0.099  -0.000  0.00  0.00    +0.153 C 
ENDROOT
BRANCH   1   2
ATOM      2  N   UNL     1       2.468  -0.932   0.972  0.00  0.00    -0.271 N 
ATOM      3  H   UNL     1       3.312  -1.482   0.858  0.00  0.00    +0.153 HD
ATOM      4  C   UNL     1       1.687  -1.160   2.058  0.00  0.00    +0.401 C 
ATOM      5  O   UNL     1       0.632  -0.575   2.255  0.00  0.00    -0.226 OA
BRANCH   4   6
ATOM      6  O   UNL     1       2.246  -2.095   2.870  0.00  0.00    -0.445 OA
BRANCH   6   7
ATOM      7  C   UNL     1       1.560  -2.457   4.101  0.00  0.00    +0.107 C 
ATOM      8  C   UNL     1       1.381  -1.240   5.022  0.00  0.00    +0.055 C 
ATOM      9  C   UNL     1       2.465  -3.461   4.831  0.00  0.00    +0.055 C 
ATOM     10  C   UNL     1       0.227  -3.154   3.792  0.00  0.00    +0.055 C 
ENDBRANCH   6   7
ENDBRANCH   4   6
ENDBRANCH   1   2
BRANCH   1  11
ATOM     11  C   UNL     1       2.662  -0.286  -1.383  0.00  0.00    +0.151 C 
ATOM     12  O   UNL     1       3.410  -1.253  -1.547  0.00  0.00    -0.296 OA
ATOM     13  C   UNL     1       2.229   0.565  -2.553  0.00  0.00    +0.088 C 
ENDBRANCH   1  11
BRANCH   1  14
ATOM     14  C   UNL     1       2.581   1.487   0.439  0.00  0.00    +0.150 C 
BRANCH  14  15
ATOM     15  C   UNL     1       4.080   1.576   0.484  0.00  0.00    +0.309 C 
ATOM     16  O   UNL     1       4.767   1.859  -0.488  0.00  0.00    -0.251 OA
BRANCH  15  17
ATOM     17  O   UNL     1       4.543   1.266   1.722  0.00  0.00    -0.468 OA
ATOM     18  C   UNL     1       5.966   1.251   1.832  0.00  0.00    +0.280 C 
ENDBRANCH  15  17
ENDBRANCH  14  15
ENDBRANCH   1  14
TORSDOF 7
