REMARK  Name = 
REMARK  13 active torsions:
REMARK  status: ('A' for Active; 'I' for Inactive)
REMARK    1  A    between atoms: C_2  and  C_3
REMARK    2  A    between atoms: C_2  and  N_7
REMARK    3  A    between atoms: C_2  and  P_15
REMARK    4  A    between atoms: C_3  and  C_4
REMARK    5  A    between atoms: C_4  and  C_5
REMARK    6  A    between atoms: C_5  and  C_6
REMARK    7  A    between atoms: C_8  and  C_10
REMARK    8  A    between atoms: C_10  and  C_11
REMARK    9  A    between atoms: C_11  and  C_12
REMARK   10  A    between atoms: C_12  and  O_13
REMARK   11  A    between atoms: P_15  and  O_16
REMARK   12  A    between atoms: P_15  and  O_18
REMARK   13  A    between atoms: O_18  and  C_19
REMARK                            x       y       z     vdW  Elec       q    Type
REMARK                         _______ _______ _______ _____ _____    ______ ____
ROOT
ATOM      1  C   UNL     1       4.427   0.062   1.274  0.00  0.00    +0.200 C 
ENDROOT
BRANCH   1   2
ATOM      2  N   UNL     1       5.293  -0.054   2.448  0.00  0.00    -0.301 N 
ATOM      3  H   UNL     1       6.189  -0.515   2.362  0.00  0.00    +0.150 HD
ATOM      4  C   UNL     1       4.965   0.586   3.626  0.00  0.00    +0.214 C 
ATOM      5  O   UNL     1       3.950   1.259   3.784  0.00  0.00    -0.276 OA
BRANCH   4   6
ATOM      6  C   UNL     1       5.972   0.502   4.761  0.00  0.00    +0.107 C 
BRANCH   6   7
ATOM      7  C   UNL     1       6.709   1.823   4.964  0.00  0.00    +0.129 C 
BRANCH   7   8
ATOM      8  C   UNL     1       5.969   3.035   5.501  0.00  0.00    +0.305 C 
ATOM      9  O   UNL     1       6.578   4.042   5.854  0.00  0.00    -0.251 OA
BRANCH   8  10
ATOM     10  O   UNL     1       4.633   2.984   5.579  0.00  0.00    -0.481 OA
ATOM     11  H   UNL     1       4.183   2.243   5.093  0.00  0.00    +0.295 HD
ENDBRANCH   8  10
ENDBRANCH   7   8
ENDBRANCH   6   7
ENDBRANCH   4   6
ENDBRANCH   1   2
BRANCH   1  12
ATOM     12  P   UNL     1       2.731  -1.007   1.466  0.00  0.00    +0.399 P 
ATOM     13  O   UNL     1       2.467  -1.199   2.968  0.00  0.00    -0.242 OA
BRANCH  12  14
ATOM     14  O   UNL     1       1.877   0.492   1.592  0.00  0.00    -0.314 OA
ATOM     15  H   UNL     1       1.642   0.540   2.547  0.00  0.00    +0.221 HD
ENDBRANCH  12  14
BRANCH  12  16
ATOM     16  O   UNL     1       3.586  -2.506   1.340  0.00  0.00    -0.423 OA
BRANCH  16  17
ATOM     17  C   UNL     1       2.913  -3.662   1.063  0.00  0.00    +0.130 A 
ATOM     18  C   UNL     1       1.651  -3.954   1.572  0.00  0.00    +0.046 A 
ATOM     19  C   UNL     1       1.037  -5.164   1.242  0.00  0.00    +0.004 A 
ATOM     20  C   UNL     1       1.686  -6.078   0.410  0.00  0.00    +0.000 A 
ATOM     21  C   UNL     1       2.964  -5.796  -0.069  0.00  0.00    +0.004 A 
ATOM     22  C   UNL     1       3.582  -4.593   0.269  0.00  0.00    +0.046 A 
ENDBRANCH  16  17
ENDBRANCH  12  16
ENDBRANCH   1  12
BRANCH   1  23
ATOM     23  C   UNL     1       5.068  -0.292  -0.077  0.00  0.00    +0.036 C 
BRANCH  23  24
ATOM     24  C   UNL     1       4.039  -0.058  -1.192  0.00  0.00    +0.002 C 
BRANCH  24  25
ATOM     25  C   UNL     1       4.513  -0.451  -2.585  0.00  0.00    -0.003 C 
ATOM     26  C   UNL     1       3.387  -0.230  -3.591  0.00  0.00    +0.004 C 
ENDBRANCH  24  25
ENDBRANCH  23  24
ENDBRANCH   1  23
TORSDOF 12
