REMARK  Name = 
REMARK  4 active torsions:
REMARK  status: ('A' for Active; 'I' for Inactive)
REMARK    1  A    between atoms: C_1  and  C_2
REMARK    2  A    between atoms: C_4  and  C_9
REMARK    3  A    between atoms: C_7  and  O_8
REMARK    4  A    between atoms: C_14  and  C_16
REMARK                            x       y       z     vdW  Elec       q    Type
REMARK                         _______ _______ _______ _____ _____    ______ ____
ROOT
ATOM      1  C   UNL     1       5.294   2.633  -0.505  0.00  0.00    +0.048 C 
ATOM      2  C   UNL     1       6.623   2.633  -1.203  0.00  0.00    +0.107 C 
ATOM      3  C   UNL     1       6.987   4.007  -1.689  0.00  0.00    +0.048 C 
ATOM      4  N   UNL     1       6.392   5.060  -1.229  0.00  0.00    -0.165 NA
ATOM      5  C   UNL     1       5.397   4.914  -0.292  0.00  0.00    +0.347 C 
ATOM      6  O   UNL     1       5.072   5.884   0.380  0.00  0.00    -0.248 OA
ATOM      7  N   UNL     1       4.733   3.725  -0.102  0.00  0.00    -0.165 NA
ENDROOT
BRANCH   1  13
ATOM      8  C   UNL     1       5.540  -2.307   0.422  0.00  0.00    +0.047 C 
ATOM      9  C   UNL     1       4.731  -1.066   0.177  0.00  0.00    -0.008 A 
ATOM     10  C   UNL     1       3.334  -1.091   0.256  0.00  0.00    +0.120 A 
ATOM     11  C   UNL     1       2.580   0.066   0.070  0.00  0.00    +0.046 A 
ATOM     12  C   UNL     1       3.226   1.278  -0.184  0.00  0.00    +0.013 A 
ATOM     13  C   UNL     1       4.622   1.326  -0.267  0.00  0.00    -0.005 A 
ATOM     14  C   UNL     1       5.370   0.154  -0.091  0.00  0.00    +0.016 A 
BRANCH  10  15
ATOM     15  O   UNL     1       2.719  -2.278   0.534  0.00  0.00    -0.507 OA
ATOM     16  H   UNL     1       1.765  -2.122   0.633  0.00  0.00    +0.292 HD
ENDBRANCH  10  15
ENDBRANCH   1  13
BRANCH   3  17
ATOM     17  C   UNL     1       8.075   4.157  -2.709  0.00  0.00    -0.006 A 
ATOM     18  C   UNL     1       8.734   3.054  -3.268  0.00  0.00    +0.009 A 
ATOM     19  C   UNL     1       9.701   3.238  -4.261  0.00  0.00    +0.001 A 
ATOM     20  C   UNL     1      10.028   4.521  -4.692  0.00  0.00    +0.000 A 
ATOM     21  C   UNL     1       9.400   5.626  -4.123  0.00  0.00    +0.001 A 
ATOM     22  C   UNL     1       8.428   5.446  -3.136  0.00  0.00    +0.009 A 
ENDBRANCH   3  17
TORSDOF 3
