REMARK  Name = 
REMARK  4 active torsions:
REMARK  status: ('A' for Active; 'I' for Inactive)
REMARK    1  A    between atoms: C_1  and  N_2
REMARK    2  A    between atoms: N_2  and  C_3
REMARK    3  A    between atoms: C_3  and  C_4
REMARK    4  A    between atoms: C_7  and  C_10
REMARK                            x       y       z     vdW  Elec       q    Type
REMARK                         _______ _______ _______ _____ _____    ______ ____
ROOT
ATOM      1  C   UNL     1       4.398  -1.096  -0.668  0.00  0.00    -0.034 A 
ATOM      2  C   UNL     1       5.099  -1.785  -1.660  0.00  0.00    +0.005 A 
ATOM      3  C   UNL     1       6.488  -1.668  -1.760  0.00  0.00    +0.010 A 
ATOM      4  C   UNL     1       7.226  -0.846  -0.891  0.00  0.00    +0.003 A 
ATOM      5  C   UNL     1       6.518  -0.219   0.148  0.00  0.00    +0.010 A 
ATOM      6  C   UNL     1       5.127  -0.343   0.262  0.00  0.00    +0.005 A 
ENDROOT
BRANCH   4   7
ATOM      7  C   UNL     1       8.663  -0.605  -1.084  0.00  0.00    +0.102 A 
ATOM      8  C   UNL     1       9.287  -0.684  -2.343  0.00  0.00    +0.134 A 
ATOM      9  N   UNL     1       8.841  -0.998  -3.613  0.00  0.00    -0.232 NA
ATOM     10  C   UNL     1       9.891  -0.875  -4.392  0.00  0.00    +0.198 A 
ATOM     11  N   UNL     1      11.000  -0.498  -3.688  0.00  0.00    -0.329 N 
ATOM     12  H   UNL     1      11.923  -0.331  -4.055  0.00  0.00    +0.168 HD
ATOM     13  C   UNL     1      10.635  -0.369  -2.379  0.00  0.00    +0.161 A 
ATOM     14  N   UNL     1      11.426   0.001  -1.363  0.00  0.00    -0.216 NA
ATOM     15  C   UNL     1      10.730   0.051  -0.211  0.00  0.00    +0.224 A 
ATOM     16  N   UNL     1       9.421  -0.218  -0.011  0.00  0.00    -0.233 NA
ENDBRANCH   4   7
BRANCH   1  17
ATOM     17  C   UNL     1       2.889  -1.156  -0.624  0.00  0.00    +0.116 C 
BRANCH  17  19
ATOM     18  C   UNL     1       0.848   0.112  -0.821  0.00  0.00    +0.101 C 
ATOM     19  N   UNL     1       2.301   0.169  -0.829  0.00  0.00    -0.315 NA
ATOM     20  H   UNL     1       2.621   0.794  -0.092  0.00  0.00    +0.122 HD
ENDBRANCH  17  19
ENDBRANCH   1  17
TORSDOF 3
