REMARK  Name = 
REMARK  7 active torsions:
REMARK  status: ('A' for Active; 'I' for Inactive)
REMARK    1  A    between atoms: C_2  and  O_3
REMARK    2  A    between atoms: C_2  and  C_4
REMARK    3  A    between atoms: C_2  and  C_6
REMARK    4  A    between atoms: C_4  and  N_5
REMARK    5  A    between atoms: C_6  and  N_7
REMARK    6  A    between atoms: N_7  and  C_8
REMARK    7  A    between atoms: C_15  and  N_18
REMARK                            x       y       z     vdW  Elec       q    Type
REMARK                         _______ _______ _______ _____ _____    ______ ____
ROOT
ATOM      1  C   UNL     1       4.806   2.290   1.555  0.00  0.00    +0.054 A 
ATOM      2  C   UNL     1       5.824   2.054   2.498  0.00  0.00    +0.032 A 
ATOM      3  C   UNL     1       6.449   3.101   3.158  0.00  0.00    +0.087 A 
ATOM      4  C   UNL     1       6.012   4.400   2.915  0.00  0.00    +0.282 A 
ATOM      5  C   UNL     1       4.976   4.699   1.998  0.00  0.00    +0.079 A 
ATOM      6  C   UNL     1       4.500   6.007   1.725  0.00  0.00    +0.018 A 
ATOM      7  C   UNL     1       3.484   6.221   0.803  0.00  0.00    +0.021 A 
ATOM      8  C   UNL     1       2.969   5.113   0.164  0.00  0.00    +0.111 A 
ATOM      9  N   UNL     1       3.392   3.848   0.391  0.00  0.00    -0.253 NA
ATOM     10  C   UNL     1       4.371   3.623   1.300  0.00  0.00    +0.098 A 
ENDROOT
BRANCH   4  11
ATOM     11  N   UNL     1       6.681   5.451   3.656  0.00  0.00    +0.080 N 
ATOM     12  O   UNL     1       7.904   5.570   3.486  0.00  0.00    +0.041 OA
ATOM     13  O   UNL     1       5.993   6.134   4.428  0.00  0.00    -0.576 OA
ENDBRANCH   4  11
BRANCH   1  14
ATOM     14  N   UNL     1       4.118   1.204   0.947  0.00  0.00    -0.340 N 
ATOM     15  H   UNL     1       3.870   1.461  -0.023  0.00  0.00    +0.146 HD
BRANCH  14  16
ATOM     16  C   UNL     1       4.655  -0.154   1.075  0.00  0.00    +0.134 C 
BRANCH  16  17
ATOM     17  C   UNL     1       3.896  -1.179   0.207  0.00  0.00    +0.145 C 
BRANCH  17  18
ATOM     18  O   UNL     1       2.497  -1.179   0.521  0.00  0.00    -0.389 OA
ATOM     19  H   UNL     1       2.257  -0.235   0.595  0.00  0.00    +0.210 HD
ENDBRANCH  17  18
BRANCH  17  20
ATOM     20  C   UNL     1       4.079  -0.959  -1.304  0.00  0.00    +0.110 C 
BRANCH  20  21
ATOM     21  N   UNL     1       3.510   0.313  -1.768  0.00  0.00    -0.328 NA
ATOM     22  H   UNL     1       3.600   0.365  -2.782  0.00  0.00    +0.118 HD
ATOM     23  H   UNL     1       2.505   0.301  -1.584  0.00  0.00    +0.118 HD
ENDBRANCH  20  21
ENDBRANCH  17  20
ENDBRANCH  16  17
ENDBRANCH  14  16
ENDBRANCH   1  14
TORSDOF 7
