REMARK  Name = 
REMARK  5 active torsions:
REMARK  status: ('A' for Active; 'I' for Inactive)
REMARK    1  A    between atoms: O_1  and  C_2
REMARK    2  A    between atoms: C_2  and  C_4
REMARK    3  A    between atoms: C_4  and  N_5
REMARK    4  A    between atoms: C_12  and  C_21
REMARK    5  A    between atoms: C_13  and  C_15
REMARK                            x       y       z     vdW  Elec       q    Type
REMARK                         _______ _______ _______ _____ _____    ______ ____
ROOT
ATOM      1  N   UNL     1       4.974   1.006  -0.439  0.00  0.00    -0.318 N 
ATOM      2  H   UNL     1       4.098   0.653  -0.831  0.00  0.00    +0.148 HD
ATOM      3  C   UNL     1       5.739   1.382  -1.557  0.00  0.00    +0.134 A 
ATOM      4  C   UNL     1       6.478   0.466  -2.333  0.00  0.00    +0.088 A 
ATOM      5  C   UNL     1       6.792  -0.950  -2.357  0.00  0.00    +0.041 A 
ATOM      6  C   UNL     1       7.600  -1.138  -3.482  0.00  0.00    +0.146 A 
ATOM      7  O   UNL     1       7.842   0.068  -4.073  0.00  0.00    -0.436 OA
ATOM      8  C   UNL     1       7.169   1.023  -3.400  0.00  0.00    +0.233 A 
ATOM      9  N   UNL     1       7.206   2.305  -3.781  0.00  0.00    -0.200 NA
ATOM     10  C   UNL     1       6.454   3.070  -2.997  0.00  0.00    +0.227 A 
ATOM     11  N   UNL     1       5.732   2.683  -1.934  0.00  0.00    -0.220 NA
ENDROOT
BRANCH   5  12
ATOM     12  C   UNL     1       6.403  -2.013  -1.426  0.00  0.00    -0.014 A 
ATOM     13  C   UNL     1       7.327  -2.977  -0.995  0.00  0.00    +0.008 A 
ATOM     14  C   UNL     1       6.957  -3.974  -0.086  0.00  0.00    +0.001 A 
ATOM     15  C   UNL     1       5.671  -3.993   0.445  0.00  0.00    +0.000 A 
ATOM     16  C   UNL     1       4.742  -3.043   0.034  0.00  0.00    +0.001 A 
ATOM     17  C   UNL     1       5.098  -2.084  -0.921  0.00  0.00    +0.008 A 
ENDBRANCH   5  12
BRANCH   6  18
ATOM     18  C   UNL     1       8.202  -2.251  -4.224  0.00  0.00    +0.018 A 
ATOM     19  C   UNL     1       9.362  -2.042  -4.993  0.00  0.00    +0.011 A 
ATOM     20  C   UNL     1       9.888  -3.051  -5.803  0.00  0.00    +0.001 A 
ATOM     21  C   UNL     1       9.270  -4.297  -5.846  0.00  0.00    +0.000 A 
ATOM     22  C   UNL     1       8.135  -4.532  -5.074  0.00  0.00    +0.001 A 
ATOM     23  C   UNL     1       7.601  -3.516  -4.273  0.00  0.00    +0.011 A 
ENDBRANCH   6  18
BRANCH   1  24
ATOM     24  C   UNL     1       4.626   2.155   0.445  0.00  0.00    +0.223 C 
BRANCH  24  25
ATOM     25  C   UNL     1       4.330   1.614   1.839  0.00  0.00    +0.322 C 
ATOM     26  O   UNL     1       3.733   2.221   2.708  0.00  0.00    -0.249 OA
BRANCH  25  27
ATOM     27  O   UNL     1       4.852   0.373   2.018  0.00  0.00    -0.480 OA
ATOM     28  H   UNL     1       5.290   0.110   1.170  0.00  0.00    +0.295 HD
ENDBRANCH  25  27
ENDBRANCH  24  25
ENDBRANCH   1  24
TORSDOF 5
