REMARK  Name = 
REMARK  3 active torsions:
REMARK  status: ('A' for Active; 'I' for Inactive)
REMARK    1  A    between atoms: C_2  and  C_14
REMARK    2  A    between atoms: N_4  and  C_5
REMARK    3  A    between atoms: N_16  and  C_17
REMARK                            x       y       z     vdW  Elec       q    Type
REMARK                         _______ _______ _______ _____ _____    ______ ____
ROOT
ATOM      1  C   UNL     1       1.874   0.101  -0.119  0.00  0.00    +0.101 C 
ATOM      2  C   UNL     1       2.216  -1.195   0.607  0.00  0.00    +0.110 C 
ATOM      3  C   UNL     1       3.389  -0.834   1.486  0.00  0.00    +0.217 C 
ATOM      4  O   UNL     1       3.875  -1.578   2.319  0.00  0.00    -0.276 OA
ATOM      5  N   UNL     1       3.844   0.415   1.076  0.00  0.00    -0.298 N 
ATOM      6  C   UNL     1       2.725   1.165   0.554  0.00  0.00    +0.121 C 
ENDROOT
BRANCH   5   7
ATOM      7  C   UNL     1       5.134   1.020   1.472  0.00  0.00    +0.076 C 
ATOM      8  C   UNL     1       5.605   2.085   0.461  0.00  0.00    +0.022 C 
ATOM      9  C   UNL     1       5.762   1.491  -0.941  0.00  0.00    +0.002 C 
ATOM     10  C   UNL     1       6.623   0.227  -0.981  0.00  0.00    +0.000 C 
ATOM     11  C   UNL     1       6.391  -0.748   0.171  0.00  0.00    +0.002 C 
ATOM     12  C   UNL     1       6.260  -0.033   1.518  0.00  0.00    +0.022 C 
ENDBRANCH   5   7
BRANCH   1  13
ATOM     13  C   UNL     1       2.047   0.165  -1.636  0.00  0.00    +0.222 C 
ATOM     14  N   UNL     1       3.174  -0.413  -2.204  0.00  0.00    -0.285 N 
ATOM     15  H   UNL     1       3.694  -1.083  -1.650  0.00  0.00    +0.155 HD
ATOM     16  O   UNL     1       1.217   0.803  -2.284  0.00  0.00    -0.275 OA
BRANCH  14  17
ATOM     17  C   UNL     1       3.632  -0.217  -3.541  0.00  0.00    +0.036 A 
ATOM     18  C   UNL     1       4.594  -1.097  -4.054  0.00  0.00    +0.043 A 
ATOM     19  C   UNL     1       5.071  -0.943  -5.363  0.00  0.00    +0.044 A 
ATOM     20 CL   UNL     1       6.228  -2.057  -5.986  0.00  0.00    -0.083 Cl
ATOM     21  C   UNL     1       4.625   0.097  -6.170  0.00  0.00    +0.040 A 
ATOM     22  C   UNL     1       3.702   0.996  -5.650  0.00  0.00    +0.044 A 
ATOM     23 CL   UNL     1       3.172   2.320  -6.616  0.00  0.00    -0.083 Cl
ATOM     24  C   UNL     1       3.208   0.845  -4.349  0.00  0.00    +0.043 A 
ENDBRANCH  14  17
ENDBRANCH   1  13
TORSDOF 3
