REMARK  Name = 
REMARK  5 active torsions:
REMARK  status: ('A' for Active; 'I' for Inactive)
REMARK    1  A    between atoms: C_1  and  C_2
REMARK    2  A    between atoms: C_2  and  N_3
REMARK    3  A    between atoms: C_6  and  C_7
REMARK    4  A    between atoms: C_6  and  C_8
REMARK    5  A    between atoms: C_23  and  C_24
REMARK                            x       y       z     vdW  Elec       q    Type
REMARK                         _______ _______ _______ _____ _____    ______ ____
ROOT
ATOM      1  N   UNL     1       3.132  -1.593   0.021  0.00  0.00    -0.271 N 
ATOM      2  C   UNL     1       2.649  -2.889  -0.250  0.00  0.00    +0.041 A 
ATOM      3  C   UNL     1       3.078  -3.745   0.766  0.00  0.00    -0.010 A 
ATOM      4  C   UNL     1       2.472  -4.972   0.996  0.00  0.00    +0.032 A 
ATOM      5  C   UNL     1       1.447  -5.292   0.107  0.00  0.00    +0.048 A 
ATOM      6  N   UNL     1       0.457  -6.248   0.181  0.00  0.00    -0.353 N 
ATOM      7  H   UNL     1       0.325  -6.890   0.951  0.00  0.00    +0.166 HD
ATOM      8  C   UNL     1      -0.175  -6.338  -1.033  0.00  0.00    +0.069 A 
ATOM      9  C   UNL     1      -0.983  -7.433  -1.432  0.00  0.00    +0.086 A 
ATOM     10  N   UNL     1      -2.294  -7.434  -1.799  0.00  0.00    -0.275 N 
ATOM     11  H   UNL     1      -2.943  -6.653  -1.811  0.00  0.00    +0.189 HD
ATOM     12  N   UNL     1      -2.688  -8.609  -2.337  0.00  0.00    -0.178 NA
ATOM     13  C   UNL     1      -1.540  -9.305  -2.470  0.00  0.00    +0.064 A 
ATOM     14  C   UNL     1      -1.513 -10.619  -3.148  0.00  0.00    +0.068 C 
ATOM     15  C   UNL     1      -0.441  -8.564  -1.993  0.00  0.00    +0.002 A 
ATOM     16  C   UNL     1       1.024  -8.705  -2.184  0.00  0.00    +0.039 C 
ATOM     17  C   UNL     1       1.540  -7.685  -3.245  0.00  0.00    +0.009 C 
ATOM     18  C   UNL     1       0.970  -6.203  -3.272  0.00  0.00    +0.038 C 
ATOM     19  C   UNL     1       0.662  -5.654  -1.904  0.00  0.00    -0.013 A 
ATOM     20  C   UNL     1       1.274  -4.635  -1.117  0.00  0.00    +0.005 A 
ATOM     21  C   UNL     1       4.128  -3.053   1.600  0.00  0.00    +0.068 C 
ATOM     22  C   UNL     1       3.918  -3.257   3.094  0.00  0.00    +0.025 C 
ATOM     23  C   UNL     1       5.537  -3.478   1.168  0.00  0.00    +0.025 C 
ATOM     24  C   UNL     1       1.843  -3.351  -1.290  0.00  0.00    +0.034 A 
ATOM     25  C   UNL     1       3.925  -1.588   1.184  0.00  0.00    +0.230 C 
ATOM     26  O   UNL     1       4.396  -0.611   1.750  0.00  0.00    -0.274 OA
ENDROOT
BRANCH   1  28
ATOM     27  C   UNL     1       1.340   0.104   0.296  0.00  0.00    +0.025 C 
ATOM     28  C   UNL     1       2.567  -0.361  -0.490  0.00  0.00    +0.110 C 
ENDBRANCH   1  28
TORSDOF 1
