REMARK  Name = 
REMARK  9 active torsions:
REMARK  status: ('A' for Active; 'I' for Inactive)
REMARK    1  A    between atoms: C_2  and  C_3
REMARK    2  A    between atoms: C_2  and  O_8
REMARK    3  A    between atoms: C_2  and  C_17
REMARK    4  A    between atoms: C_3  and  N_4
REMARK    5  A    between atoms: O_8  and  C_9
REMARK    6  A    between atoms: C_9  and  C_11
REMARK    7  A    between atoms: C_20  and  B_23
REMARK    8  A    between atoms: C_26  and  C_28
REMARK    9  A    between atoms: C_28  and  O_29
REMARK                            x       y       z     vdW  Elec       q    Type
REMARK                         _______ _______ _______ _____ _____    ______ ____
ROOT
ATOM      1  C   UNL     1       2.226   0.052   0.114  0.00  0.00    +0.000 C 
ENDROOT
BRANCH   1   2
ATOM      2  C   UNL     1       2.562   1.244  -0.800  0.00  0.00    +0.000 A 
ATOM      3  C   UNL     1       2.066   1.278  -2.121  0.00  0.00    +0.000 A 
ATOM      4  C   UNL     1       2.287   2.396  -2.950  0.00  0.00    +0.000 A 
ATOM      5  C   UNL     1       2.997   3.510  -2.467  0.00  0.00    +0.000 A 
ATOM      6  C   UNL     1       3.505   3.473  -1.166  0.00  0.00    +0.000 A 
ATOM      7  C   UNL     1       3.299   2.363  -0.349  0.00  0.00    +0.000 A 
BRANCH   5   8
ATOM      8  B   UNL     1       3.241   4.815  -3.333  0.00  0.00    +0.000 B 
ATOM      9  O   UNL     1       3.998   5.950  -2.789  0.00  0.00    +0.000 OA
ATOM     10  C   UNL     1       4.406   6.604  -3.963  0.00  0.00    +0.000 C 
ATOM     11  C   UNL     1       4.238   5.586  -5.099  0.00  0.00    +0.000 C 
ATOM     12  O   UNL     1       3.094   4.838  -4.788  0.00  0.00    +0.000 OA
BRANCH  10  13
ATOM     13  C   UNL     1       3.565   7.873  -4.202  0.00  0.00    +0.000 C 
BRANCH  13  14
ATOM     14  O   UNL     1       3.731   8.761  -3.129  0.00  0.00    +0.000 OA
ATOM     15  H   UNL     1       3.372   9.636  -3.434  0.00  0.00    +0.000 HD
ENDBRANCH  13  14
ENDBRANCH  10  13
ENDBRANCH   5   8
ENDBRANCH   1   2
BRANCH   1  16
ATOM     16  O   UNL     1       2.676  -1.158  -0.409  0.00  0.00    +0.000 OA
BRANCH  16  17
ATOM     17  C   UNL     1       2.316  -2.371   0.113  0.00  0.00    +0.000 C 
ATOM     18  O   UNL     1       1.311  -2.466   0.806  0.00  0.00    +0.000 OA
BRANCH  17  19
ATOM     19  C   UNL     1       3.172  -3.570  -0.087  0.00  0.00    +0.000 A 
ATOM     20  C   UNL     1       4.343  -3.504  -0.854  0.00  0.00    +0.000 A 
ATOM     21  N   UNL     1       5.129  -4.604  -1.007  0.00  0.00    +0.000 NA
ATOM     22  C   UNL     1       4.822  -5.795  -0.429  0.00  0.00    +0.000 A 
ATOM     23  C   UNL     1       3.667  -5.916   0.344  0.00  0.00    +0.000 A 
ATOM     24  C   UNL     1       2.841  -4.802   0.518  0.00  0.00    +0.000 A 
ENDBRANCH  17  19
ENDBRANCH  16  17
ENDBRANCH   1  16
BRANCH   1  25
ATOM     25  C   UNL     1       2.770   0.196   1.562  0.00  0.00    +0.000 C 
BRANCH  25  26
ATOM     26  N   UNL     1       4.221   0.111   1.592  0.00  0.00    +0.330 N 
ATOM     27  H   UNL     1       4.734  -0.036   0.708  0.00  0.00    +0.000 HD
ATOM     28  C   UNL     1       4.977   0.207   2.799  0.00  0.00    +0.000 C 
ATOM     29  N   UNL     1       6.258   0.099   2.761  0.00  0.00    +0.330 NA
ATOM     30  H   UNL     1       6.763  -0.060   1.876  0.00  0.00    +0.000 HD
ATOM     31  N   UNL     1       4.343   0.422   4.051  0.00  0.00    +0.330 N 
ATOM     32  H   UNL     1       4.908   0.492   4.910  0.00  0.00    +0.000 HD
ATOM     33  H   UNL     1       3.322   0.517   4.131  0.00  0.00    +0.000 HD
ENDBRANCH  25  26
ENDBRANCH   1  25
TORSDOF 9
