REMARK  Name = 
REMARK  7 active torsions:
REMARK  status: ('A' for Active; 'I' for Inactive)
REMARK    1  A    between atoms: C_2  and  N_3
REMARK    2  A    between atoms: C_2  and  C_12
REMARK    3  A    between atoms: C_2  and  C_15
REMARK    4  A    between atoms: C_4  and  C_6
REMARK    5  A    between atoms: C_12  and  C_13
REMARK    6  A    between atoms: C_12  and  C_14
REMARK    7  A    between atoms: N_17  and  C_18
REMARK                            x       y       z     vdW  Elec       q    Type
REMARK                         _______ _______ _______ _____ _____    ______ ____
ROOT
ATOM      1  C   UNL     1       2.001  -0.081  -0.064  0.00  0.00    +0.162 C 
ENDROOT
BRANCH   1   2
ATOM      2  N   UNL     1       0.537   0.011  -0.142  0.00  0.00    -0.304 N 
ATOM      3  H   UNL     1       0.017  -0.843  -0.304  0.00  0.00    +0.149 HD
ATOM      4  C   UNL     1      -0.117   1.188  -0.463  0.00  0.00    +0.217 C 
ATOM      5  O   UNL     1       0.479   2.232  -0.709  0.00  0.00    -0.275 OA
BRANCH   4   6
ATOM      6  C   UNL     1      -1.640   1.044  -0.478  0.00  0.00    +0.075 C 
ATOM      7  C   UNL     1      -2.344   2.301  -1.010  0.00  0.00    +0.013 C 
ATOM      8  C   UNL     1      -2.365   3.451  -0.006  0.00  0.00    +0.001 C 
ATOM      9  C   UNL     1      -2.943   3.018   1.335  0.00  0.00    +0.000 C 
ATOM     10  C   UNL     1      -2.212   1.805   1.898  0.00  0.00    +0.001 C 
ATOM     11  C   UNL     1      -2.187   0.645   0.903  0.00  0.00    +0.013 C 
ENDBRANCH   4   6
ENDBRANCH   1   2
BRANCH   1  12
ATOM     12  C   UNL     1       2.366  -1.501  -0.556  0.00  0.00    +0.238 C 
ATOM     13  N   UNL     1       1.573  -2.502   0.005  0.00  0.00    -0.284 N 
ATOM     14  H   UNL     1       1.140  -2.273   0.892  0.00  0.00    +0.155 HD
ATOM     15  O   UNL     1       3.348  -1.711  -1.263  0.00  0.00    -0.273 OA
BRANCH  13  16
ATOM     16  C   UNL     1       1.713  -3.869  -0.304  0.00  0.00    +0.036 A 
ATOM     17  C   UNL     1       2.017  -4.319  -1.585  0.00  0.00    +0.043 A 
ATOM     18  C   UNL     1       2.160  -5.683  -1.780  0.00  0.00    +0.112 A 
ATOM     19  N   UNL     1       2.035  -6.599  -0.796  0.00  0.00    -0.263 NA
ATOM     20  C   UNL     1       1.734  -6.133   0.432  0.00  0.00    +0.112 A 
ATOM     21  C   UNL     1       1.532  -4.794   0.720  0.00  0.00    +0.043 A 
ENDBRANCH  13  16
ENDBRANCH   1  12
BRANCH   1  22
ATOM     22  C   UNL     1       2.511   0.183   1.379  0.00  0.00    +0.012 C 
ATOM     23  C   UNL     1       2.151   1.590   1.874  0.00  0.00    +0.009 C 
ATOM     24  C   UNL     1       4.030   0.012   1.495  0.00  0.00    +0.009 C 
ENDBRANCH   1  22
TORSDOF 5
