REMARK  Name = 
REMARK  4 active torsions:
REMARK  status: ('A' for Active; 'I' for Inactive)
REMARK    1  A    between atoms: N_4  and  C_5
REMARK    2  A    between atoms: C_8  and  C_9
REMARK    3  A    between atoms: C_9  and  C_10
REMARK    4  A    between atoms: C_10  and  C_12
REMARK                            x       y       z     vdW  Elec       q    Type
REMARK                         _______ _______ _______ _____ _____    ______ ____
ROOT
ATOM      1  C   UNL     1       4.576   0.189   1.238  0.00  0.00    +0.100 A 
ATOM      2  C   UNL     1       5.227  -0.275   2.387  0.00  0.00    +0.042 A 
ATOM      3  C   UNL     1       6.613  -0.414   2.425  0.00  0.00    +0.007 A 
ATOM      4  C   UNL     1       7.386  -0.082   1.308  0.00  0.00    -0.040 A 
ATOM      5  C   UNL     1       6.748   0.454   0.182  0.00  0.00    +0.007 A 
ATOM      6  C   UNL     1       5.357   0.600   0.153  0.00  0.00    +0.042 A 
ENDROOT
BRANCH   1  11
ATOM      7  N   UNL     1       2.712  -1.864   2.085  0.00  0.00    -0.289 N 
ATOM      8  H   UNL     1       3.433  -2.201   1.455  0.00  0.00    +0.255 HD
ATOM      9  H   UNL     1       1.992  -2.551   2.248  0.00  0.00    +0.255 HD
ATOM     10  C   UNL     1       2.297  -0.610   1.787  0.00  0.00    +0.381 C 
ATOM     11  N   UNL     1       3.173   0.178   1.114  0.00  0.00    -0.244 N 
ATOM     12  H   UNL     1       2.784   1.074   0.841  0.00  0.00    +0.265 HD
ATOM     13  N   UNL     1       1.106  -0.209   2.059  0.00  0.00    -0.129 NA
ATOM     14  H   UNL     1       0.620  -0.947   2.575  0.00  0.00    +0.306 HD
ENDBRANCH   1  11
BRANCH   4  15
ATOM     15  C   UNL     1       8.858  -0.417   1.285  0.00  0.00    +0.114 C 
BRANCH  15  16
ATOM     16  C   UNL     1       9.803   0.741   1.028  0.00  0.00    +0.167 C 
ATOM     17  O   UNL     1       9.439   1.908   0.902  0.00  0.00    -0.292 OA
BRANCH  16  18
ATOM     18  C   UNL     1      11.263   0.435   0.965  0.00  0.00    +0.018 A 
ATOM     19  C   UNL     1      12.169   1.466   1.241  0.00  0.00    +0.011 A 
ATOM     20  C   UNL     1      13.543   1.226   1.195  0.00  0.00    +0.001 A 
ATOM     21  C   UNL     1      14.019  -0.042   0.864  0.00  0.00    +0.000 A 
ATOM     22  C   UNL     1      13.124  -1.072   0.583  0.00  0.00    +0.001 A 
ATOM     23  C   UNL     1      11.747  -0.838   0.636  0.00  0.00    +0.011 A 
ENDBRANCH  16  18
ENDBRANCH  15  16
ENDBRANCH   4  15
TORSDOF 4
