REMARK  Name = 
REMARK  5 active torsions:
REMARK  status: ('A' for Active; 'I' for Inactive)
REMARK    1  A    between atoms: O_1  and  C_2
REMARK    2  A    between atoms: C_2  and  C_4
REMARK    3  A    between atoms: C_9  and  C_10
REMARK    4  A    between atoms: C_14  and  O_15
REMARK    5  A    between atoms: C_23  and  O_24
REMARK                            x       y       z     vdW  Elec       q    Type
REMARK                         _______ _______ _______ _____ _____    ______ ____
ROOT
ATOM      1  C   UNL     1       5.411   0.140   0.598  0.00  0.00    +0.087 C 
ATOM      2  C   UNL     1       5.049  -1.199  -0.005  0.00  0.00    +0.007 A 
ATOM      3  C   UNL     1       4.578  -1.318  -1.325  0.00  0.00    +0.012 A 
ATOM      4  C   UNL     1       4.310  -2.577  -1.878  0.00  0.00    +0.046 A 
ATOM      5  C   UNL     1       4.531  -3.719  -1.119  0.00  0.00    +0.120 A 
ATOM      6  C   UNL     1       5.028  -3.622   0.174  0.00  0.00    +0.092 A 
ATOM      7  C   UNL     1       5.297  -2.367   0.726  0.00  0.00    +0.136 A 
ATOM      8  O   UNL     1       5.819  -2.378   1.997  0.00  0.00    -0.455 OA
ATOM      9  C   UNL     1       6.038  -1.185   2.641  0.00  0.00    +0.136 A 
ATOM     10  C   UNL     1       6.539  -1.270   3.943  0.00  0.00    +0.092 A 
ATOM     11  C   UNL     1       6.788  -0.110   4.667  0.00  0.00    +0.120 A 
ATOM     12  C   UNL     1       6.536   1.140   4.118  0.00  0.00    +0.046 A 
ATOM     13  C   UNL     1       6.060   1.224   2.812  0.00  0.00    +0.012 A 
ATOM     14  C   UNL     1       5.806   0.062   2.057  0.00  0.00    +0.007 A 
ENDROOT
BRANCH   1  16
ATOM     15  C   UNL     1       3.227   1.556   0.934  0.00  0.00    +0.063 A 
ATOM     16  C   UNL     1       4.453   1.294   0.280  0.00  0.00    -0.021 A 
ATOM     17  C   UNL     1       4.934   2.260  -0.637  0.00  0.00    +0.005 A 
ATOM     18  C   UNL     1       4.274   3.471  -0.842  0.00  0.00    +0.000 A 
ATOM     19  C   UNL     1       3.103   3.743  -0.152  0.00  0.00    +0.001 A 
ATOM     20  C   UNL     1       2.575   2.787   0.716  0.00  0.00    +0.015 A 
BRANCH  15  21
ATOM     21  C   UNL     1       2.585   0.696   1.965  0.00  0.00    +0.337 C 
ATOM     22  O   UNL     1       2.080   1.163   2.974  0.00  0.00    -0.245 OA
BRANCH  21  23
ATOM     23  O   UNL     1       2.481  -0.603   1.636  0.00  0.00    -0.477 OA
ATOM     24  H   UNL     1       2.804  -0.847   0.752  0.00  0.00    +0.295 HD
ENDBRANCH  21  23
ENDBRANCH  15  21
ENDBRANCH   1  16
BRANCH   5  25
ATOM     25  O   UNL     1       4.284  -4.964  -1.616  0.00  0.00    -0.507 OA
ATOM     26  H   UNL     1       3.894  -4.883  -2.502  0.00  0.00    +0.292 HD
ENDBRANCH   5  25
BRANCH  11  27
ATOM     27  O   UNL     1       7.302  -0.236   5.923  0.00  0.00    -0.507 OA
ATOM     28  H   UNL     1       7.417   0.652   6.300  0.00  0.00    +0.292 HD
ENDBRANCH  11  27
TORSDOF 5
