REMARK  Name = 
REMARK  5 active torsions:
REMARK  status: ('A' for Active; 'I' for Inactive)
REMARK    1  A    between atoms: C_2  and  C_11
REMARK    2  A    between atoms: N_3  and  C_4
REMARK    3  A    between atoms: C_4  and  C_5
REMARK    4  A    between atoms: C_14  and  O_15
REMARK    5  A    between atoms: O_15  and  C_16
REMARK                            x       y       z     vdW  Elec       q    Type
REMARK                         _______ _______ _______ _____ _____    ______ ____
ROOT
ATOM      1  C   UNL     1       2.954   1.028   0.701  0.00  0.00    +0.037 A 
ATOM      2  C   UNL     1       4.005   0.489   1.457  0.00  0.00    +0.016 A 
ATOM      3  C   UNL     1       4.705   1.288   2.370  0.00  0.00    +0.047 A 
ATOM      4  C   UNL     1       4.340   2.624   2.550  0.00  0.00    +0.128 A 
ATOM      5  C   UNL     1       3.323   3.172   1.760  0.00  0.00    +0.047 A 
ATOM      6  C   UNL     1       2.629   2.381   0.840  0.00  0.00    +0.016 A 
ENDROOT
BRANCH   1   8
ATOM      7  O   UNL     1       2.847  -0.787  -0.797  0.00  0.00    -0.270 OA
ATOM      8  C   UNL     1       2.257   0.158  -0.286  0.00  0.00    +0.244 C 
ATOM      9  N   UNL     1       0.940   0.458  -0.556  0.00  0.00    -0.306 N 
ATOM     10  H   UNL     1       0.403   1.063   0.056  0.00  0.00    +0.149 HD
BRANCH   9  11
ATOM     11  C   UNL     1       0.171  -0.385  -1.446  0.00  0.00    +0.160 C 
BRANCH  11  12
ATOM     12  C   UNL     1      -1.271   0.051  -1.587  0.00  0.00    +0.058 A 
ATOM     13  C   UNL     1      -1.981  -0.292  -2.736  0.00  0.00    +0.025 A 
ATOM     14  C   UNL     1      -3.336   0.019  -2.814  0.00  0.00    +0.003 A 
ATOM     15  C   UNL     1      -3.949   0.653  -1.741  0.00  0.00    +0.020 A 
ATOM     16  C   UNL     1      -3.174   0.969  -0.637  0.00  0.00    +0.111 A 
ATOM     17  N   UNL     1      -1.853   0.687  -0.533  0.00  0.00    -0.258 NA
ENDBRANCH  11  12
ENDBRANCH   9  11
ENDBRANCH   1   8
BRANCH   4  18
ATOM     18  O   UNL     1       4.975   3.512   3.385  0.00  0.00    -0.456 OA
BRANCH  18  19
ATOM     19  C   UNL     1       5.522   3.105   4.580  0.00  0.00    +0.128 A 
ATOM     20  C   UNL     1       5.016   2.086   5.388  0.00  0.00    +0.046 A 
ATOM     21  C   UNL     1       5.647   1.772   6.595  0.00  0.00    +0.004 A 
ATOM     22  C   UNL     1       6.756   2.505   7.018  0.00  0.00    +0.000 A 
ATOM     23  C   UNL     1       7.230   3.560   6.241  0.00  0.00    +0.004 A 
ATOM     24  C   UNL     1       6.612   3.859   5.026  0.00  0.00    +0.046 A 
ENDBRANCH  18  19
ENDBRANCH   4  18
TORSDOF 5
