REMARK  Name = 
REMARK  3 active torsions:
REMARK  status: ('A' for Active; 'I' for Inactive)
REMARK    1  A    between atoms: O_1  and  C_2
REMARK    2  A    between atoms: C_5  and  C_8
REMARK    3  A    between atoms: C_14  and  O_15
REMARK                            x       y       z     vdW  Elec       q    Type
REMARK                         _______ _______ _______ _____ _____    ______ ____
ROOT
ATOM      1  C   UNL     1       6.722   0.250  -0.542  0.00  0.00    +0.044 C 
ATOM      2  C   UNL     1       7.581  -0.967  -0.731  0.00  0.00    +0.195 C 
ATOM      3  O   UNL     1       7.263  -2.136  -0.635  0.00  0.00    -0.287 OA
ATOM      4  C   UNL     1       8.922  -0.515  -1.059  0.00  0.00    +0.034 A 
ATOM      5  C   UNL     1      10.053  -1.266  -1.328  0.00  0.00    +0.057 A 
ATOM      6  C   UNL     1      11.215  -0.558  -1.611  0.00  0.00    +0.118 A 
ATOM      7  C   UNL     1      11.229   0.843  -1.610  0.00  0.00    +0.046 A 
ATOM      8  C   UNL     1      10.061   1.567  -1.336  0.00  0.00    +0.013 A 
ATOM      9  C   UNL     1       8.893   0.868  -1.064  0.00  0.00    +0.001 A 
ATOM     10  C   UNL     1       7.532   1.312  -0.763  0.00  0.00    +0.037 C 
ATOM     11 BR   UNL     1       7.109   3.115  -0.789  0.00  0.00    -0.049 Br
ENDROOT
BRANCH   1  15
ATOM     12  C   UNL     1       2.554  -0.033   0.454  0.00  0.00    +0.117 A 
ATOM     13  C   UNL     1       3.294   1.046   0.912  0.00  0.00    +0.046 A 
ATOM     14  C   UNL     1       4.653   1.143   0.592  0.00  0.00    +0.012 A 
ATOM     15  C   UNL     1       5.282   0.185  -0.219  0.00  0.00    -0.013 A 
ATOM     16  C   UNL     1       4.498  -0.887  -0.679  0.00  0.00    +0.012 A 
ATOM     17  C   UNL     1       3.144  -1.004  -0.340  0.00  0.00    +0.046 A 
BRANCH  12  18
ATOM     18  O   UNL     1       1.245  -0.111   0.824  0.00  0.00    -0.507 OA
ATOM     19  H   UNL     1       0.889  -0.964   0.525  0.00  0.00    +0.292 HD
ENDBRANCH  12  18
ENDBRANCH   1  15
BRANCH   6  20
ATOM     20  O   UNL     1      12.386  -1.197  -1.892  0.00  0.00    -0.507 OA
ATOM     21  H   UNL     1      12.239  -2.158  -1.867  0.00  0.00    +0.292 HD
ENDBRANCH   6  20
TORSDOF 3
