REMARK  Name = 
REMARK  6 active torsions:
REMARK  status: ('A' for Active; 'I' for Inactive)
REMARK    1  A    between atoms: C_1  and  C_2
REMARK    2  A    between atoms: C_4  and  N_5
REMARK    3  A    between atoms: C_14  and  C_21
REMARK    4  A    between atoms: C_15  and  O_16
REMARK    5  A    between atoms: C_24  and  O_25
REMARK    6  A    between atoms: C_26  and  O_27
REMARK                            x       y       z     vdW  Elec       q    Type
REMARK                         _______ _______ _______ _____ _____    ______ ____
ROOT
ATOM      1  C   UNL     1       1.128  -0.116  -0.050  0.00  0.00    +0.044 C 
ATOM      2  C   UNL     1       2.630  -0.083  -0.041  0.00  0.00    -0.048 A 
ATOM      3  C   UNL     1       3.311   1.139   0.010  0.00  0.00    +0.019 A 
ATOM      4  C   UNL     1       4.713   1.162  -0.002  0.00  0.00    +0.070 A 
ATOM      5  C   UNL     1       5.457  -0.012  -0.096  0.00  0.00    +0.162 A 
ATOM      6  O   UNL     1       6.831  -0.005  -0.146  0.00  0.00    -0.449 OA
ATOM      7  C   UNL     1       7.507   1.210  -0.151  0.00  0.00    +0.181 A 
ATOM      8  C   UNL     1       6.900   2.407  -0.046  0.00  0.00    +0.208 A 
ATOM      9  C   UNL     1       4.774  -1.235  -0.165  0.00  0.00    +0.094 A 
ATOM     10  C   UNL     1       5.420   2.453   0.064  0.00  0.00    +0.234 A 
ATOM     11  O   UNL     1       4.826   3.514   0.205  0.00  0.00    -0.283 OA
ATOM     12  C   UNL     1       3.372  -1.265  -0.108  0.00  0.00    +0.031 A 
ENDROOT
BRANCH   9  13
ATOM     13  N   UNL     1       5.408  -2.504  -0.308  0.00  0.00    -0.204 N 
ATOM     14  S   UNL     1       5.735  -3.456   1.047  0.00  0.00    +0.046 S 
ATOM     15  O   UNL     1       4.477  -3.890   1.637  0.00  0.00    -0.155 OA
ATOM     16  O   UNL     1       6.781  -2.819   1.817  0.00  0.00    -0.155 OA
ATOM     17  C   UNL     1       6.455  -4.787   0.082  0.00  0.00    +0.190 C 
ATOM     18  C   UNL     1       6.341  -4.347  -1.380  0.00  0.00    +0.045 C 
ATOM     19  C   UNL     1       6.332  -2.815  -1.393  0.00  0.00    +0.133 C 
ENDBRANCH   9  13
BRANCH   7  20
ATOM     20  C   UNL     1       8.988   1.082  -0.221  0.00  0.00    +0.025 A 
ATOM     21  C   UNL     1       9.630  -0.007   0.386  0.00  0.00    +0.060 A 
ATOM     22  C   UNL     1      11.013  -0.131   0.304  0.00  0.00    +0.159 A 
ATOM     23  C   UNL     1      11.787   0.824  -0.350  0.00  0.00    +0.158 A 
ATOM     24  C   UNL     1      11.183   1.915  -0.949  0.00  0.00    +0.050 A 
ATOM     25  C   UNL     1       9.790   2.026  -0.901  0.00  0.00    +0.015 A 
BRANCH  22  26
ATOM     26  O   UNL     1      11.620  -1.217   0.869  0.00  0.00    -0.503 OA
ATOM     27  H   UNL     1      12.570  -1.094   0.673  0.00  0.00    +0.292 HD
ENDBRANCH  22  26
BRANCH  23  28
ATOM     28  O   UNL     1      13.140   0.638  -0.386  0.00  0.00    -0.503 OA
ATOM     29  H   UNL     1      13.534   1.389  -0.865  0.00  0.00    +0.292 HD
ENDBRANCH  23  28
ENDBRANCH   7  20
BRANCH   8  30
ATOM     30  O   UNL     1       7.598   3.600   0.018  0.00  0.00    -0.501 OA
ATOM     31  H   UNL     1       7.218   4.099   0.764  0.00  0.00    +0.292 HD
ENDBRANCH   8  30
TORSDOF 5
