REMARK  Name = 
REMARK  6 active torsions:
REMARK  status: ('A' for Active; 'I' for Inactive)
REMARK    1  A    between atoms: C_5  and  O_6
REMARK    2  A    between atoms: O_6  and  C_7
REMARK    3  A    between atoms: C_7  and  C_8
REMARK    4  A    between atoms: N_10  and  C_11
REMARK    5  A    between atoms: C_17  and  C_19
REMARK    6  A    between atoms: C_19  and  C_21
REMARK                            x       y       z     vdW  Elec       q    Type
REMARK                         _______ _______ _______ _____ _____    ______ ____
ROOT
ATOM      1 CL   UNL     1       1.202   0.059   0.537  0.00  0.00    -0.084 Cl
ATOM      2  C   UNL     1       2.885  -0.003   0.188  0.00  0.00    +0.042 A 
ATOM      3  C   UNL     1       3.534  -1.236   0.137  0.00  0.00    +0.035 A 
ATOM      4  C   UNL     1       4.898  -1.301  -0.196  0.00  0.00    +0.065 A 
ATOM      5  C   UNL     1       5.624  -0.109  -0.402  0.00  0.00    +0.132 A 
ATOM      6  C   UNL     1       4.955   1.121  -0.324  0.00  0.00    +0.048 A 
ATOM      7  C   UNL     1       3.585   1.170  -0.044  0.00  0.00    +0.023 A 
ENDROOT
BRANCH   4   8
ATOM      8  C   UNL     1       5.573  -2.637  -0.291  0.00  0.00    +0.197 C 
ATOM      9  O   UNL     1       6.752  -2.754   0.037  0.00  0.00    -0.287 OA
BRANCH   8  10
ATOM     10  C   UNL     1       4.851  -3.870  -0.730  0.00  0.00    +0.022 A 
ATOM     11  C   UNL     1       3.752  -3.854  -1.597  0.00  0.00    +0.012 A 
ATOM     12  C   UNL     1       3.090  -5.046  -1.912  0.00  0.00    +0.001 A 
ATOM     13  C   UNL     1       3.545  -6.260  -1.396  0.00  0.00    +0.000 A 
ATOM     14  C   UNL     1       4.672  -6.289  -0.578  0.00  0.00    +0.001 A 
ATOM     15  C   UNL     1       5.323  -5.100  -0.248  0.00  0.00    +0.012 A 
ENDBRANCH   8  10
ENDBRANCH   4   8
BRANCH   5  16
ATOM     16  O   UNL     1       6.973  -0.214  -0.620  0.00  0.00    -0.482 OA
BRANCH  16  17
ATOM     17  C   UNL     1       7.635   0.832  -1.306  0.00  0.00    +0.324 C 
BRANCH  17  18
ATOM     18  C   UNL     1       8.101   1.995  -0.427  0.00  0.00    +0.255 C 
ATOM     19  N   UNL     1       8.853   1.605   0.671  0.00  0.00    -0.283 N 
ATOM     20  H   UNL     1       9.028   0.609   0.772  0.00  0.00    +0.155 HD
ATOM     21  O   UNL     1       7.818   3.146  -0.748  0.00  0.00    -0.272 OA
BRANCH  19  22
ATOM     22  C   UNL     1       9.400   2.455   1.660  0.00  0.00    +0.033 A 
ATOM     23  C   UNL     1      10.237   1.890   2.630  0.00  0.00    +0.023 A 
ATOM     24  C   UNL     1      10.811   2.686   3.630  0.00  0.00    +0.002 A 
ATOM     25  C   UNL     1      10.543   4.052   3.678  0.00  0.00    +0.000 A 
ATOM     26  C   UNL     1       9.703   4.621   2.726  0.00  0.00    +0.002 A 
ATOM     27  C   UNL     1       9.139   3.826   1.724  0.00  0.00    +0.023 A 
ENDBRANCH  19  22
ENDBRANCH  17  18
ENDBRANCH  16  17
ENDBRANCH   5  16
TORSDOF 6
