REMARK  Name = 
REMARK  5 active torsions:
REMARK  status: ('A' for Active; 'I' for Inactive)
REMARK    1  A    between atoms: C_2  and  C_26
REMARK    2  A    between atoms: CA_16  and  CB_18
REMARK    3  A    between atoms: CB_18  and  CG1_19
REMARK    4  A    between atoms: CB_18  and  CG2_20
REMARK    5  A    between atoms: C_26  and  O_27
REMARK                            x       y       z     vdW  Elec       q    Type
REMARK                         _______ _______ _______ _____ _____    ______ ____
ROOT
ATOM      1  C   UNK A   1      -0.708  -2.872   3.457  0.00  0.00    +0.186 C 
ATOM      2  N   UNK A   1      -1.392  -4.302   3.947  0.00  0.00    -0.301 N 
ATOM      3  H   UNK A   1      -0.735  -5.060   3.864  0.00  0.00    +0.150 HD
ATOM      4  C   UNK A   1      -2.225  -4.427   5.145  0.00  0.00    +0.234 C 
ATOM      5  O   UNK A   1      -2.218  -3.433   5.892  0.00  0.00    -0.274 OA
ATOM      6  C   UNK A   1      -3.088  -5.894   5.806  0.00  0.00    +0.161 C 
ATOM      7  N   UNK A   1      -2.508  -7.219   5.672  0.00  0.00    -0.304 N 
ATOM      8  H   UNK A   1      -1.922  -7.534   6.438  0.00  0.00    +0.149 HD
ATOM      9  C   UNK A   0      -2.837  -8.138   4.704  0.00  0.00    +0.214 C 
ATOM     10  O   UNK A   0      -3.774  -8.024   3.899  0.00  0.00    -0.276 OA
ATOM     11  C   UNK A   0      -1.698  -9.090   4.506  0.00  0.00    +0.096 C 
ATOM     12  C   UNK A   0      -0.608  -8.094   4.142  0.00  0.00    +0.012 C 
ATOM     13  C   UNK A   0       0.285  -8.386   2.965  0.00  0.00    +0.041 C 
ATOM     14  C   UNK A   0       0.550  -7.013   2.360  0.00  0.00    +0.229 C 
ATOM     15  O   UNK A   1       1.291  -7.053   1.139  0.00  0.00    -0.492 OA
ATOM     16  C   UNK A   1       1.281  -5.750   0.669  0.00  0.00    +0.121 A 
ATOM     17  C   UNK A   1       0.057  -5.108   0.397  0.00  0.00    +0.046 A 
ATOM     18  C   UNK A   1      -0.001  -3.739   0.481  0.00  0.00    +0.007 A 
ATOM     19  C   UNK A   1       1.038  -3.169   1.164  0.00  0.00    -0.045 A 
ATOM     20  C   UNK A   1       2.331  -3.659   0.866  0.00  0.00    +0.007 A 
ATOM     21  C   UNK A   1       2.460  -5.024   0.704  0.00  0.00    +0.046 A 
ATOM     22  C   UNK A   1       0.738  -2.677   2.600  0.00  0.00    +0.069 C 
ENDROOT
BRANCH   6  23
ATOM     23  C   UNK A   1      -4.620  -6.139   6.428  0.00  0.00    +0.012 C 
ATOM     24  C   UNK A   1      -4.500  -6.539   7.939  0.00  0.00    +0.009 C 
ATOM     25  C   UNK A   1      -5.526  -7.326   5.913  0.00  0.00    +0.009 C 
ENDBRANCH   6  23
BRANCH   1  26
ATOM     26  C   UNK A   1      -1.619  -1.847   2.739  0.00  0.00    +0.326 C 
ATOM     27  O   UNK A   1      -2.483  -2.061   1.902  0.00  0.00    -0.249 OA
BRANCH  26  28
ATOM     28  O   UNK A   1      -1.226  -0.566   2.987  0.00  0.00    -0.479 OA
ATOM     29  H   UNK A   1      -1.717   0.004   2.358  0.00  0.00    +0.295 HD
ENDBRANCH  26  28
ENDBRANCH   1  26
TORSDOF 3
