REMARK  Name = 
REMARK  8 active torsions:
REMARK  status: ('A' for Active; 'I' for Inactive)
REMARK    1  A    between atoms: C_2  and  C_3
REMARK    2  A    between atoms: C_2  and  O_4
REMARK    3  A    between atoms: C_2  and  C_23
REMARK    4  A    between atoms: O_4  and  C_5
REMARK    5  A    between atoms: C_8  and  O_9
REMARK    6  A    between atoms: O_9  and  C_10
REMARK    7  A    between atoms: C_13  and  C_17
REMARK    8  A    between atoms: C_23  and  O_24
REMARK                            x       y       z     vdW  Elec       q    Type
REMARK                         _______ _______ _______ _____ _____    ______ ____
ROOT
ATOM      1  C   UNL     1       1.991   0.014  -2.469  0.00  0.00    +0.122 A 
ATOM      2  C   UNL     1       1.447   0.769  -3.507  0.00  0.00    +0.049 A 
ATOM      3  C   UNL     1       1.410   0.253  -4.802  0.00  0.00    +0.050 A 
ATOM      4  C   UNL     1       1.825  -1.058  -5.054  0.00  0.00    +0.131 A 
ATOM      5  C   UNL     1       2.271  -1.848  -3.993  0.00  0.00    +0.050 A 
ATOM      6  C   UNL     1       2.346  -1.316  -2.700  0.00  0.00    +0.049 A 
ENDROOT
BRANCH   1   7
ATOM      7  O   UNL     1       2.271   0.515  -1.223  0.00  0.00    -0.478 OA
BRANCH   7   8
ATOM      8  C   UNL     1       2.637   1.913  -1.187  0.00  0.00    +0.278 C 
ATOM      9  C   UNL     1       3.888   2.212  -2.019  0.00  0.00    +0.064 C 
BRANCH   8  10
ATOM     10  C   UNL     1       2.929   2.299   0.265  0.00  0.00    +0.346 C 
ATOM     11  O   UNL     1       3.296   3.413   0.621  0.00  0.00    -0.247 OA
BRANCH  10  12
ATOM     12  O   UNL     1       2.737   1.287   1.143  0.00  0.00    -0.478 OA
ATOM     13  H   UNL     1       2.447   0.483   0.662  0.00  0.00    +0.295 HD
ENDBRANCH  10  12
ENDBRANCH   8  10
ENDBRANCH   7   8
ENDBRANCH   1   7
BRANCH   4  14
ATOM     14  O   UNL     1       1.911  -1.617  -6.312  0.00  0.00    -0.437 OA
BRANCH  14  15
ATOM     15  C   UNL     1       1.078  -1.129  -7.306  0.00  0.00    +0.239 A 
ATOM     16  C   UNL     1       1.571  -1.003  -8.601  0.00  0.00    +0.103 A 
ATOM     17 CL   UNL     1       3.175  -1.452  -9.035  0.00  0.00    -0.078 Cl
ATOM     18  C   UNL     1       0.725  -0.473  -9.576  0.00  0.00    +0.039 A 
ATOM     19  C   UNL     1      -0.585  -0.103  -9.238  0.00  0.00    +0.074 A 
ATOM     20  C   UNL     1      -0.993  -0.305  -7.929  0.00  0.00    +0.127 A 
ATOM     21  N   UNL     1      -0.200  -0.820  -6.966  0.00  0.00    -0.219 NA
BRANCH  19  22
ATOM     22  C   UNL     1      -1.523   0.500 -10.237  0.00  0.00    +0.419 C 
ATOM     23  F   UNL     1      -1.684  -0.281 -11.338  0.00  0.00    -0.166 F 
ATOM     24  F   UNL     1      -1.088   1.707 -10.689  0.00  0.00    -0.166 F 
ATOM     25  F   UNL     1      -2.773   0.716  -9.742  0.00  0.00    -0.166 F 
ENDBRANCH  19  22
ENDBRANCH  14  15
ENDBRANCH   4  14
TORSDOF 7
