REMARK  Name = 
REMARK  10 active torsions:
REMARK  status: ('A' for Active; 'I' for Inactive)
REMARK    1  A    between atoms: C_1  and  C_2
REMARK    2  A    between atoms: C_2  and  C_3
REMARK    3  A    between atoms: C_3  and  C_4
REMARK    4  A    between atoms: C_5  and  C_6
REMARK    5  A    between atoms: C_7  and  C_8
REMARK    6  A    between atoms: C_8  and  O_9
REMARK    7  A    between atoms: C_11  and  C_12
REMARK    8  A    between atoms: C_12  and  C_13
REMARK    9  A    between atoms: C_13  and  C_14
REMARK   10  A    between atoms: C_14  and  O_15
REMARK                            x       y       z     vdW  Elec       q    Type
REMARK                         _______ _______ _______ _____ _____    ______ ____
ROOT
ATOM      1  C   UNL     1       4.866   1.344   0.624  0.00  0.00    +0.109 A 
ATOM      2  O   UNL     1       5.514   0.153   0.593  0.00  0.00    -0.463 OA
ATOM      3  C   UNL     1       6.847   0.409   0.559  0.00  0.00    +0.120 A 
ATOM      4  C   UNL     1       7.084   1.775   0.588  0.00  0.00    +0.103 A 
ATOM      5  C   UNL     1       5.776   2.390   0.628  0.00  0.00    +0.005 A 
ATOM      6  C   UNL     1       5.435   3.839   0.621  0.00  0.00    +0.048 C 
ENDROOT
BRANCH   4   7
ATOM      7  C   UNL     1       8.422   2.359   0.552  0.00  0.00    +0.340 C 
ATOM      8  O   UNL     1       9.383   1.795   0.048  0.00  0.00    -0.245 OA
BRANCH   7   9
ATOM      9  O   UNL     1       8.547   3.561   1.154  0.00  0.00    -0.477 OA
ATOM     10  H   UNL     1       7.766   3.801   1.679  0.00  0.00    +0.295 HD
ENDBRANCH   7   9
ENDBRANCH   4   7
BRANCH   1  11
ATOM     11  C   UNL     1       3.378   1.259   0.647  0.00  0.00    +0.074 C 
BRANCH  11  13
ATOM     12  C   UNL     1       3.115   0.108  -1.622  0.00  0.00    +0.004 C 
ATOM     13  C   UNL     1       2.747   1.300  -0.747  0.00  0.00    +0.004 C 
ENDBRANCH  11  13
ENDBRANCH   1  11
BRANCH   3  14
ATOM     14  C   UNL     1       7.710  -0.806   0.547  0.00  0.00    +0.086 C 
BRANCH  14  15
ATOM     15  C   UNL     1       8.095  -1.251   1.952  0.00  0.00    +0.128 C 
BRANCH  15  16
ATOM     16  C   UNL     1       7.025  -1.837   2.850  0.00  0.00    +0.305 C 
ATOM     17  O   UNL     1       7.303  -2.292   3.954  0.00  0.00    -0.251 OA
BRANCH  16  18
ATOM     18  O   UNL     1       5.757  -1.847   2.406  0.00  0.00    -0.481 OA
ATOM     19  H   UNL     1       5.576  -1.362   1.576  0.00  0.00    +0.295 HD
ENDBRANCH  16  18
ENDBRANCH  15  16
ENDBRANCH  14  15
ENDBRANCH   3  14
TORSDOF 8
