REMARK  Name = 
REMARK  5 active torsions:
REMARK  status: ('A' for Active; 'I' for Inactive)
REMARK    1  A    between atoms: C_8  and  O_9
REMARK    2  A    between atoms: O_9  and  C_10
REMARK    3  A    between atoms: C_10  and  C_11
REMARK    4  A    between atoms: N_14  and  C_15
REMARK    5  A    between atoms: C_15  and  C_16
REMARK                            x       y       z     vdW  Elec       q    Type
REMARK                         _______ _______ _______ _____ _____    ______ ____
ROOT
ATOM      1  N   UNL     1       0.781  -0.115   0.836  0.00  0.00    -0.327 N 
ATOM      2  H   UNL     1       0.323   0.677   0.415  0.00  0.00    +0.145 HD
ATOM      3  H   UNL     1       0.459  -1.036   0.577  0.00  0.00    +0.145 HD
ATOM      4  C   UNL     1       2.139  -0.033   0.608  0.00  0.00    +0.215 A 
ATOM      5  N   UNL     1       2.656   1.174   0.394  0.00  0.00    -0.199 NA
ATOM      6  C   UNL     1       3.985   1.226   0.221  0.00  0.00    +0.133 A 
ATOM      7  N   UNL     1       4.476   2.465  -0.200  0.00  0.00    -0.342 N 
ATOM      8  H   UNL     1       3.768   3.177  -0.076  0.00  0.00    +0.144 HD
ATOM      9  H   UNL     1       5.382   2.674   0.209  0.00  0.00    +0.144 HD
ATOM     10  C   UNL     1       4.810   0.095   0.275  0.00  0.00    +0.082 A 
ATOM     11  C   UNL     1       4.122  -1.121   0.383  0.00  0.00    +0.081 A 
ATOM     12  C   UNL     1       4.825  -2.316   0.292  0.00  0.00    +0.029 A 
ATOM     13  C   UNL     1       6.204  -2.344   0.112  0.00  0.00    +0.006 A 
ATOM     14  C   UNL     1       6.892  -1.146   0.085  0.00  0.00    +0.046 A 
ATOM     15  C   UNL     1       6.221   0.086   0.222  0.00  0.00    +0.133 A 
ATOM     16  N   UNL     1       2.804  -1.186   0.562  0.00  0.00    -0.214 NA
ENDROOT
BRANCH  15  17
ATOM     17  O   UNL     1       6.878   1.318   0.384  0.00  0.00    -0.491 OA
BRANCH  17  18
ATOM     18  C   UNL     1       8.274   1.123   0.333  0.00  0.00    +0.232 C 
BRANCH  18  19
ATOM     19  C   UNL     1       9.262   2.283   0.476  0.00  0.00    +0.029 C 
ATOM     20  C   UNL     1       9.191   3.345  -0.624  0.00  0.00    +0.022 C 
ATOM     21  C   UNL     1       9.497   2.766  -2.011  0.00  0.00    +0.085 C 
ATOM     22  N   UNL     1      10.704   1.927  -2.096  0.00  0.00    -0.298 NA
ATOM     23  C   UNL     1      10.835   0.964  -0.993  0.00  0.00    +0.085 C 
ATOM     24  C   UNL     1      10.649   1.611   0.389  0.00  0.00    +0.022 C 
BRANCH  22  25
ATOM     25  C   UNL     1      11.943   2.702  -2.268  0.00  0.00    +0.122 C 
BRANCH  25  26
ATOM     26  C   UNL     1      13.094   1.773  -2.595  0.00  0.00    +0.002 A 
ATOM     27  C   UNL     1      14.100   1.528  -1.655  0.00  0.00    +0.128 A 
ATOM     28  F   UNL     1      14.113   2.202  -0.495  0.00  0.00    -0.205 F 
ATOM     29  C   UNL     1      15.040   0.521  -1.852  0.00  0.00    +0.038 A 
ATOM     30  C   UNL     1      14.989  -0.254  -3.010  0.00  0.00    +0.003 A 
ATOM     31  C   UNL     1      14.002  -0.015  -3.967  0.00  0.00    +0.000 A 
ATOM     32  C   UNL     1      13.059   0.993  -3.762  0.00  0.00    +0.008 A 
ENDBRANCH  25  26
ENDBRANCH  22  25
ENDBRANCH  18  19
ENDBRANCH  17  18
ENDBRANCH  15  17
TORSDOF 5
