REMARK  Name = 
REMARK  13 active torsions:
REMARK  status: ('A' for Active; 'I' for Inactive)
REMARK    1  A    between atoms: C_1  and  C_2
REMARK    2  A    between atoms: C_2  and  C_3
REMARK    3  A    between atoms: C_3  and  C_4
REMARK    4  A    between atoms: C_8  and  C_31
REMARK    5  A    between atoms: C_12  and  O_13
REMARK    6  A    between atoms: O_13  and  C_14
REMARK    7  A    between atoms: C_14  and  C_15
REMARK    8  A    between atoms: C_15  and  C_16
REMARK    9  A    between atoms: C_16  and  O_17
REMARK   10  A    between atoms: O_17  and  C_18
REMARK   11  A    between atoms: N_24  and  C_25
REMARK   12  A    between atoms: C_25  and  C_26
REMARK   13  A    between atoms: C_26  and  O_27
REMARK                            x       y       z     vdW  Elec       q    Type
REMARK                         _______ _______ _______ _____ _____    ______ ____
ROOT
ATOM      1  C   UNL     1       5.277   4.664   0.904  0.00  0.00    +0.232 C 
ENDROOT
BRANCH   1   2
ATOM      2  O   UNL     1       4.603   3.406   0.920  0.00  0.00    -0.491 OA
BRANCH   2   4
ATOM      3  C   UNL     1       4.648   1.051   0.940  0.00  0.00    +0.040 A 
ATOM      4  C   UNL     1       5.370   2.268   0.927  0.00  0.00    +0.127 A 
ATOM      5  C   UNL     1       6.773   2.284   0.920  0.00  0.00    +0.047 A 
ATOM      6  C   UNL     1       7.518   1.101   0.937  0.00  0.00    +0.017 A 
ATOM      7  C   UNL     1       6.827  -0.116   0.959  0.00  0.00    +0.054 A 
ATOM      8  C   UNL     1       7.172  -1.492   0.978  0.00  0.00    +0.193 A 
ATOM      9  N   UNL     1       6.074  -2.265   0.997  0.00  0.00    -0.073 NA
ATOM     10  O   UNL     1       4.998  -1.392   0.986  0.00  0.00    -0.354 OA
ATOM     11  C   UNL     1       5.444  -0.104   0.962  0.00  0.00    +0.174 A 
BRANCH   8  12
ATOM     12  C   UNL     1       8.552  -2.048   0.970  0.00  0.00    +0.438 C 
ATOM     13  F   UNL     1       9.271  -1.618   2.044  0.00  0.00    -0.164 F 
ATOM     14  F   UNL     1       9.246  -1.645  -0.131  0.00  0.00    -0.164 F 
ATOM     15  F   UNL     1       8.604  -3.404   0.985  0.00  0.00    -0.164 F 
ENDBRANCH   8  12
BRANCH   3  16
ATOM     16  C   UNL     1       3.138   0.997   0.936  0.00  0.00    +0.042 C 
BRANCH  16  18
ATOM     17  C   UNL     1       2.870   0.875  -1.601  0.00  0.00    +0.004 C 
ATOM     18  C   UNL     1       2.468   1.580  -0.315  0.00  0.00    +0.001 C 
ENDBRANCH  16  18
ENDBRANCH   3  16
ENDBRANCH   2   4
ENDBRANCH   1   2
BRANCH   1  19
ATOM     19  C   UNL     1       4.235   5.775   0.963  0.00  0.00    +0.082 C 
BRANCH  19  20
ATOM     20  C   UNL     1       3.393   5.697   2.235  0.00  0.00    +0.232 C 
BRANCH  20  21
ATOM     21  O   UNL     1       4.255   5.831   3.369  0.00  0.00    -0.492 OA
BRANCH  21  22
ATOM     22  C   UNL     1       3.687   5.672   4.605  0.00  0.00    +0.121 A 
ATOM     23  C   UNL     1       4.571   5.753   5.682  0.00  0.00    +0.048 A 
ATOM     24  C   UNL     1       4.135   5.630   7.012  0.00  0.00    +0.030 A 
ATOM     25  C   UNL     1       2.764   5.420   7.240  0.00  0.00    +0.050 A 
ATOM     26  N   UNL     1       2.021   5.293   8.398  0.00  0.00    -0.336 N 
ATOM     27  C   UNL     1       0.693   5.105   8.088  0.00  0.00    +0.087 A 
ATOM     28  C   UNL     1       0.570   5.130   6.721  0.00  0.00    +0.028 A 
ATOM     29  C   UNL     1       1.863   5.329   6.170  0.00  0.00    +0.003 A 
ATOM     30  C   UNL     1       2.328   5.460   4.846  0.00  0.00    +0.055 A 
BRANCH  26  31
ATOM     31  C   UNL     1       2.500   5.439   9.768  0.00  0.00    +0.242 C 
BRANCH  31  32
ATOM     32  C   UNL     1       2.715   4.160  10.539  0.00  0.00    +0.325 C 
ATOM     33  O   UNL     1       2.976   4.172  11.738  0.00  0.00    -0.249 OA
BRANCH  32  34
ATOM     34  O   UNL     1       2.630   2.994   9.866  0.00  0.00    -0.479 OA
ATOM     35  H   UNL     1       2.423   3.057   8.913  0.00  0.00    +0.295 HD
ENDBRANCH  32  34
ENDBRANCH  31  32
ENDBRANCH  26  31
ENDBRANCH  21  22
ENDBRANCH  20  21
ENDBRANCH  19  20
ENDBRANCH   1  19
TORSDOF 12
