REMARK  Name = 
REMARK  5 active torsions:
REMARK  status: ('A' for Active; 'I' for Inactive)
REMARK    1  A    between atoms: P_2  and  C_5
REMARK    2  A    between atoms: C_5  and  C_6
REMARK    3  A    between atoms: C_6  and  O_7
REMARK    4  A    between atoms: O_7  and  C_8
REMARK    5  A    between atoms: C_11  and  C_12
REMARK                            x       y       z     vdW  Elec       q    Type
REMARK                         _______ _______ _______ _____ _____    ______ ____
ROOT
ATOM      1  O   UNL     1       6.185   1.039  -0.955  0.00  0.00    -0.492 OA
ENDROOT
BRANCH   1   2
ATOM      2  C   UNL     1       6.660   1.793  -1.993  0.00  0.00    +0.121 A 
ATOM      3  C   UNL     1       7.277   1.077  -3.023  0.00  0.00    +0.046 A 
ATOM      4  C   UNL     1       7.783   1.737  -4.149  0.00  0.00    +0.007 A 
ATOM      5  C   UNL     1       7.670   3.127  -4.260  0.00  0.00    -0.050 A 
ATOM      6  C   UNL     1       8.182   3.843  -5.474  0.00  0.00    +0.044 C 
ATOM      7  C   UNL     1       7.072   3.842  -3.218  0.00  0.00    +0.007 A 
ATOM      8  C   UNL     1       6.571   3.181  -2.095  0.00  0.00    +0.046 A 
ENDBRANCH   1   2
BRANCH   1   9
ATOM      9  C   UNL     1       5.517   1.756   0.094  0.00  0.00    +0.235 C 
BRANCH   9  10
ATOM     10  C   UNL     1       5.022   0.775   1.137  0.00  0.00    +0.092 C 
BRANCH  10  12
ATOM     11  H   UNL     1       5.764   2.255   3.089  0.00  0.00    +0.083 HD
ATOM     12  P   UNL     1       4.554   1.658   2.677  0.00  0.00    +0.006 P 
ATOM     13  O   UNL     1       3.548   2.708   2.246  0.00  0.00    -0.804 OA
ATOM     14  O   UNL     1       4.119   0.570   3.640  0.00  0.00    -0.340 OA
ENDBRANCH  10  12
ENDBRANCH   9  10
ENDBRANCH   1   9
TORSDOF 4
