REMARK  Name = 
REMARK  9 active torsions:
REMARK  status: ('A' for Active; 'I' for Inactive)
REMARK    1  A    between atoms: C_2  and  C_3
REMARK    2  A    between atoms: C_3  and  C_4
REMARK    3  A    between atoms: C_4  and  C_5
REMARK    4  A    between atoms: N_11  and  C_12
REMARK    5  A    between atoms: C_12  and  C_13
REMARK    6  A    between atoms: C_13  and  C_14
REMARK    7  A    between atoms: C_14  and  C_15
REMARK    8  A    between atoms: C_15  and  C_16
REMARK    9  A    between atoms: C_22  and  C_24
REMARK                            x       y       z     vdW  Elec       q    Type
REMARK                         _______ _______ _______ _____ _____    ______ ____
ROOT
ATOM      1  C   UNL     1       6.351   2.427  -1.073  0.00  0.00    +0.002 C 
ENDROOT
BRANCH   1   2
ATOM      2  C   UNL     1       4.817   2.503  -1.009  0.00  0.00    +0.019 C 
BRANCH   2   3
ATOM      3  C   UNL     1       4.171   2.603  -2.395  0.00  0.00    +0.104 C 
BRANCH   3   6
ATOM      4  O   UNL     1       2.623   4.960  -2.293  0.00  0.00    -0.276 OA
ATOM      5  C   UNL     1       2.061   3.872  -2.318  0.00  0.00    +0.213 C 
ATOM      6  N   UNL     1       2.729   2.666  -2.320  0.00  0.00    -0.315 N 
ATOM      7  H   UNL     1       2.207   1.800  -2.316  0.00  0.00    +0.149 HD
BRANCH   5   8
ATOM      8  C   UNL     1       0.556   3.716  -2.327  0.00  0.00    +0.100 C 
BRANCH   8   9
ATOM      9  C   UNL     1      -0.112   4.945  -2.939  0.00  0.00    +0.046 C 
BRANCH   9  10
ATOM     10  C   UNL     1      -1.610   4.821  -2.950  0.00  0.00    -0.029 A 
ATOM     11  C   UNL     1      -2.372   5.253  -1.867  0.00  0.00    +0.114 A 
ATOM     12  N   UNL     1      -3.719   5.173  -1.806  0.00  0.00    -0.263 NA
ATOM     13  C   UNL     1      -4.342   4.635  -2.875  0.00  0.00    +0.111 A 
ATOM     14  C   UNL     1      -3.678   4.165  -3.998  0.00  0.00    +0.020 A 
ATOM     15  C   UNL     1      -2.290   4.256  -4.030  0.00  0.00    +0.006 A 
ENDBRANCH   9  10
ENDBRANCH   8   9
ENDBRANCH   5   8
ENDBRANCH   3   6
ENDBRANCH   2   3
ENDBRANCH   1   2
BRANCH   1  16
ATOM     16  C   UNL     1       6.935   3.692  -1.696  0.00  0.00    +0.004 C 
BRANCH  16  17
ATOM     17  C   UNL     1       8.464   3.750  -1.866  0.00  0.00    -0.008 C 
ATOM     18  C   UNL     1       8.829   5.103  -2.525  0.00  0.00    +0.022 C 
ATOM     19  C   UNL     1       8.380   5.138  -3.992  0.00  0.00    +0.108 C 
ATOM     20  N   UNL     1       9.060   4.059  -4.706  0.00  0.00    -0.298 N 
ATOM     21  C   UNL     1      10.003   4.163  -5.732  0.00  0.00    +0.247 C 
ATOM     22  O   UNL     1      10.558   3.171  -6.206  0.00  0.00    -0.270 OA
ATOM     23  C   UNL     1       8.713   2.728  -4.204  0.00  0.00    +0.108 C 
ATOM     24  C   UNL     1       9.054   2.604  -2.720  0.00  0.00    +0.022 C 
BRANCH  21  25
ATOM     25  C   UNL     1      10.329   5.474  -6.372  0.00  0.00    +0.037 A 
ATOM     26  C   UNL     1      10.536   5.478  -7.760  0.00  0.00    +0.013 A 
ATOM     27  C   UNL     1      10.731   6.676  -8.448  0.00  0.00    +0.001 A 
ATOM     28  C   UNL     1      10.703   7.886  -7.757  0.00  0.00    +0.000 A 
ATOM     29  C   UNL     1      10.578   7.887  -6.371  0.00  0.00    +0.001 A 
ATOM     30  C   UNL     1      10.458   6.680  -5.678  0.00  0.00    +0.013 A 
ENDBRANCH  21  25
ENDBRANCH  16  17
ENDBRANCH   1  16
TORSDOF 9
