REMARK  Name = 
REMARK  8 active torsions:
REMARK  status: ('A' for Active; 'I' for Inactive)
REMARK    1  A    between atoms: C_2  and  O_3
REMARK    2  A    between atoms: C_5  and  N_16
REMARK    3  A    between atoms: C_8  and  C_10
REMARK    4  A    between atoms: C_10  and  O_11
REMARK    5  A    between atoms: O_11  and  P_12
REMARK    6  A    between atoms: P_12  and  O_13
REMARK    7  A    between atoms: P_12  and  O_14
REMARK    8  A    between atoms: C_20  and  C_21
REMARK                            x       y       z     vdW  Elec       q    Type
REMARK                         _______ _______ _______ _____ _____    ______ ____
ROOT
ATOM      1  C   UNL     1       1.984   0.051  -0.090  0.00  0.00    +0.150 C 
ATOM      2  C   UNL     1       2.552  -1.212   0.549  0.00  0.00    +0.175 C 
ATOM      3  O   UNL     1       3.745  -0.826   1.268  0.00  0.00    -0.348 OA
ATOM      4  C   UNL     1       3.986   0.582   1.049  0.00  0.00    +0.222 C 
ATOM      5  C   UNL     1       2.614   1.152   0.728  0.00  0.00    +0.088 C 
ENDROOT
BRANCH   4   6
ATOM      6  N   UNL     1       5.021   0.741   0.023  0.00  0.00    -0.320 N 
ATOM      7  C   UNL     1       5.527   1.944  -0.445  0.00  0.00    +0.051 A 
ATOM      8  C   UNL     1       6.584   1.636  -1.316  0.00  0.00    +0.003 A 
ATOM      9  C   UNL     1       7.326   2.676  -1.924  0.00  0.00    -0.041 A 
ATOM     10  C   UNL     1       6.957   4.002  -1.642  0.00  0.00    +0.004 A 
ATOM     11  C   UNL     1       5.899   4.297  -0.788  0.00  0.00    +0.002 A 
ATOM     12  C   UNL     1       8.504   2.429  -2.826  0.00  0.00    +0.044 C 
ATOM     13  C   UNL     1       6.688   0.223  -1.367  0.00  0.00    +0.028 A 
ATOM     14  C   UNL     1       5.173   3.275  -0.168  0.00  0.00    +0.026 A 
ATOM     15  C   UNL     1       5.756  -0.295  -0.510  0.00  0.00    +0.089 A 
ENDBRANCH   4   6
BRANCH   1  16
ATOM     16  O   UNL     1       0.567   0.097  -0.047  0.00  0.00    -0.389 OA
ATOM     17  H   UNL     1       0.276   0.039   0.880  0.00  0.00    +0.210 HD
ENDBRANCH   1  16
BRANCH   2  18
ATOM     18  C   UNL     1       2.856  -2.281  -0.502  0.00  0.00    +0.206 C 
BRANCH  18  19
ATOM     19  O   UNL     1       3.472  -3.384   0.142  0.00  0.00    -0.284 OA
BRANCH  19  20
ATOM     20  P   UNL     1       3.565  -4.760  -0.660  0.00  0.00    +0.472 P 
ATOM     21  O   UNL     1       4.296  -4.707  -1.953  0.00  0.00    -0.228 OA
BRANCH  20  22
ATOM     22  O   UNL     1       2.037  -5.198  -0.791  0.00  0.00    -0.303 OA
ATOM     23  H   UNL     1       1.836  -5.413  -1.722  0.00  0.00    +0.222 HD
ENDBRANCH  20  22
BRANCH  20  24
ATOM     24  O   UNL     1       4.150  -5.749   0.442  0.00  0.00    -0.303 OA
ATOM     25  H   UNL     1       4.117  -5.324   1.318  0.00  0.00    +0.222 HD
ENDBRANCH  20  24
ENDBRANCH  19  20
ENDBRANCH  18  19
ENDBRANCH   2  18
TORSDOF 7
