REMARK  Name = 
REMARK  8 active torsions:
REMARK  status: ('A' for Active; 'I' for Inactive)
REMARK    1  A    between atoms: C_2  and  N_3
REMARK    2  A    between atoms: C_2  and  C_4
REMARK    3  A    between atoms: C_2  and  C_11
REMARK    4  A    between atoms: C_4  and  C_5
REMARK    5  A    between atoms: C_17  and  C_19
REMARK    6  A    between atoms: N_21  and  C_22
REMARK    7  A    between atoms: C_22  and  C_23
REMARK    8  A    between atoms: C_25  and  C_26
REMARK                            x       y       z     vdW  Elec       q    Type
REMARK                         _______ _______ _______ _____ _____    ______ ____
ROOT
ATOM      1  C   UNL     1       2.766  -1.595   0.142  0.00  0.00    +0.233 C 
ATOM      2  N   UNL     1       4.132  -1.768   0.152  0.00  0.00    -0.289 N 
ATOM      3  C   UNL     1       4.716  -3.108   0.111  0.00  0.00    +0.162 C 
ATOM      4  C   UNL     1       6.122  -2.910  -0.482  0.00  0.00    +0.033 C 
ATOM      5  C   UNL     1       6.213  -1.428  -0.831  0.00  0.00    +0.021 C 
ATOM      6  C   UNL     1       5.178  -0.768   0.059  0.00  0.00    +0.108 C 
ATOM      7  O   UNL     1       2.016  -2.577   0.226  0.00  0.00    -0.274 OA
ENDROOT
BRANCH   3   8
ATOM      8  C   UNL     1       4.813  -3.706   1.529  0.00  0.00    +0.234 C 
ATOM      9  N   UNL     1       3.740  -4.492   1.889  0.00  0.00    -0.310 N 
ATOM     10  H   UNL     1       2.867  -4.331   1.391  0.00  0.00    +0.149 HD
ATOM     11  O   UNL     1       5.752  -3.472   2.291  0.00  0.00    -0.274 OA
BRANCH   9  12
ATOM     12  C   UNL     1       3.688  -5.144   3.176  0.00  0.00    +0.139 C 
BRANCH  12  13
ATOM     13  C   UNL     1       2.971  -4.310   4.203  0.00  0.00    -0.030 A 
ATOM     14  C   UNL     1       3.660  -3.326   4.924  0.00  0.00    +0.005 A 
ATOM     15  C   UNL     1       2.992  -2.536   5.858  0.00  0.00    +0.001 A 
ATOM     16  C   UNL     1       1.627  -2.718   6.075  0.00  0.00    +0.003 A 
ATOM     17  C   UNL     1       0.919  -3.694   5.364  0.00  0.00    -0.050 A 
ATOM     18  C   UNL     1      -0.554  -3.861   5.584  0.00  0.00    +0.044 C 
ATOM     19  C   UNL     1       1.598  -4.484   4.427  0.00  0.00    +0.008 A 
ENDBRANCH  12  13
ENDBRANCH   9  12
ENDBRANCH   3   8
BRANCH   1  20
ATOM     20  C   UNL     1       2.155  -0.178   0.004  0.00  0.00    +0.142 C 
BRANCH  20  21
ATOM     21  N   UNL     1       2.624   0.475  -1.245  0.00  0.00    -0.320 NA
ATOM     22  H   UNL     1       2.264  -0.054  -2.040  0.00  0.00    +0.119 HD
ATOM     23  H   UNL     1       2.194   1.400  -1.305  0.00  0.00    +0.119 HD
ENDBRANCH  20  21
BRANCH  20  24
ATOM     24  C   UNL     1       2.378   0.671   1.270  0.00  0.00    +0.063 C 
BRANCH  24  25
ATOM     25  C   UNL     1       1.697   2.027   1.215  0.00  0.00    -0.045 A 
ATOM     26  C   UNL     1       2.458   3.203   1.271  0.00  0.00    +0.004 A 
ATOM     27  C   UNL     1       1.842   4.453   1.172  0.00  0.00    +0.000 A 
ATOM     28  C   UNL     1       0.461   4.541   1.016  0.00  0.00    +0.000 A 
ATOM     29  C   UNL     1      -0.308   3.380   0.978  0.00  0.00    +0.000 A 
ATOM     30  C   UNL     1       0.304   2.130   1.086  0.00  0.00    +0.004 A 
ENDBRANCH  24  25
ENDBRANCH  20  24
ENDBRANCH   1  20
TORSDOF 7
