REMARK  Name = 
REMARK  4 active torsions:
REMARK  status: ('A' for Active; 'I' for Inactive)
REMARK    1  A    between atoms: C_2  and  C_15
REMARK    2  A    between atoms: N_4  and  C_8
REMARK    3  A    between atoms: C_9  and  O_10
REMARK    4  A    between atoms: C_15  and  O_16
REMARK                            x       y       z     vdW  Elec       q    Type
REMARK                         _______ _______ _______ _____ _____    ______ ____
ROOT
ATOM      1  C   UNL     1       2.129  -0.137  -0.073  0.00  0.00    +0.124 C 
ATOM      2  C   UNL     1       2.641  -1.358   0.668  0.00  0.00    +0.112 C 
ATOM      3  C   UNL     1       3.981  -0.912   1.203  0.00  0.00    +0.221 C 
ATOM      4  O   UNL     1       4.795  -1.706   1.647  0.00  0.00    -0.275 OA
ATOM      5  N   UNL     1       4.078   0.476   1.096  0.00  0.00    -0.267 N 
ATOM      6  C   UNL     1       2.800   1.010   0.662  0.00  0.00    +0.129 C 
ENDROOT
BRANCH   5   7
ATOM      7  C   UNL     1       5.220   1.306   1.369  0.00  0.00    +0.078 A 
ATOM      8  C   UNL     1       5.175   2.668   0.995  0.00  0.00    +0.027 A 
ATOM      9  C   UNL     1       6.255   3.542   1.180  0.00  0.00    +0.002 A 
ATOM     10  C   UNL     1       7.420   3.089   1.774  0.00  0.00    +0.004 A 
ATOM     11  C   UNL     1       7.499   1.761   2.168  0.00  0.00    +0.047 A 
ATOM     12  C   UNL     1       6.427   0.878   1.961  0.00  0.00    +0.138 A 
BRANCH  12  13
ATOM     13  O   UNL     1       6.713  -0.379   2.415  0.00  0.00    -0.505 OA
ATOM     14  H   UNL     1       6.023  -1.003   2.115  0.00  0.00    +0.292 HD
ENDBRANCH  12  13
ENDBRANCH   5   7
BRANCH   1  15
ATOM     15  C   UNL     1       2.520  -0.138  -1.539  0.00  0.00    +0.310 C 
ATOM     16  O   UNL     1       3.203   0.717  -2.081  0.00  0.00    -0.251 OA
BRANCH  15  17
ATOM     17  O   UNL     1       1.980  -1.161  -2.242  0.00  0.00    -0.480 OA
ATOM     18  H   UNL     1       1.413  -1.771  -1.737  0.00  0.00    +0.295 HD
ENDBRANCH  15  17
ENDBRANCH   1  15
TORSDOF 4
