REMARK  Name = 
REMARK  6 active torsions:
REMARK  status: ('A' for Active; 'I' for Inactive)
REMARK    1  A    between atoms: C_2  and  N_3
REMARK    2  A    between atoms: C_2  and  C_4
REMARK    3  A    between atoms: C_2  and  C_17
REMARK    4  A    between atoms: C_4  and  C_5
REMARK    5  A    between atoms: C_14  and  C_16
REMARK    6  A    between atoms: C_17  and  C_18
REMARK                            x       y       z     vdW  Elec       q    Type
REMARK                         _______ _______ _______ _____ _____    ______ ____
ROOT
ATOM      1  C   UNL     1       1.986  -0.092  -0.032  0.00  0.00    +0.064 C 
ENDROOT
BRANCH   1   2
ATOM      2  N   UNL     1       2.182   1.030   0.911  0.00  0.00    -0.327 NA
ATOM      3  H   UNL     1       1.813   0.775   1.827  0.00  0.00    +0.118 HD
ATOM      4  H   UNL     1       3.183   1.179   1.061  0.00  0.00    +0.118 HD
ENDBRANCH   1   2
BRANCH   1   5
ATOM      5  C   UNL     1       2.779  -1.349   0.404  0.00  0.00    +0.057 C 
BRANCH   5   6
ATOM      6  C   UNL     1       2.384  -1.894   1.757  0.00  0.00    -0.008 A 
ATOM      7  C   UNL     1       1.319  -2.800   1.886  0.00  0.00    +0.047 A 
ATOM      8  C   UNL     1       0.986  -3.300   3.143  0.00  0.00    +0.159 A 
ATOM      9  F   UNL     1      -0.021  -4.178   3.256  0.00  0.00    -0.202 F 
ATOM     10  C   UNL     1       1.694  -2.902   4.273  0.00  0.00    +0.161 A 
ATOM     11  F   UNL     1       1.369  -3.391   5.478  0.00  0.00    -0.202 F 
ATOM     12  C   UNL     1       2.739  -1.996   4.168  0.00  0.00    +0.080 A 
ATOM     13  C   UNL     1       3.078  -1.504   2.910  0.00  0.00    +0.129 A 
ATOM     14  F   UNL     1       4.082  -0.621   2.812  0.00  0.00    -0.205 F 
ENDBRANCH   5   6
ENDBRANCH   1   5
BRANCH   1  15
ATOM     15  C   UNL     1       2.410   0.421  -1.419  0.00  0.00    +0.114 C 
BRANCH  15  16
ATOM     16  C   UNL     1       2.173  -0.568  -2.552  0.00  0.00    +0.218 C 
ATOM     17  N   UNL     1       2.708  -0.241  -3.804  0.00  0.00    -0.290 N 
ATOM     18  C   UNL     1       3.095   1.139  -4.181  0.00  0.00    +0.159 C 
ATOM     19  C   UNL     1       2.284   1.694  -5.352  0.00  0.00    +0.038 C 
ATOM     20  C   UNL     1       4.611   1.326  -4.368  0.00  0.00    +0.233 C 
ATOM     21  O   UNL     1       5.243   2.137  -3.689  0.00  0.00    -0.274 OA
ATOM     22  N   UNL     1       5.277   0.628  -5.329  0.00  0.00    -0.314 N 
ATOM     23  H   UNL     1       6.267   0.842  -5.362  0.00  0.00    +0.149 HD
ATOM     24  C   UNL     1       4.778  -0.457  -6.139  0.00  0.00    +0.106 C 
ATOM     25  C   UNL     1       4.197  -1.586  -5.305  0.00  0.00    +0.038 C 
ATOM     26  C   UNL     1       2.779  -1.299  -4.816  0.00  0.00    +0.110 C 
ATOM     27  O   UNL     1       1.567  -1.622  -2.361  0.00  0.00    -0.276 OA
ENDBRANCH  15  16
ENDBRANCH   1  15
TORSDOF 5
