REMARK  Name = 
REMARK  6 active torsions:
REMARK  status: ('A' for Active; 'I' for Inactive)
REMARK    1  A    between atoms: C_2  and  C_3
REMARK    2  A    between atoms: C_2  and  N_4
REMARK    3  A    between atoms: C_2  and  C_25
REMARK    4  A    between atoms: C_7  and  N_9
REMARK    5  A    between atoms: N_9  and  S_10
REMARK    6  A    between atoms: S_10  and  C_13
REMARK                            x       y       z     vdW  Elec       q    Type
REMARK                         _______ _______ _______ _____ _____    ______ ____
ROOT
ATOM      1  N   UNL     1       2.649  -0.961   0.997  0.00  0.00    -0.289 N 
ATOM      2  C   UNL     1       2.018  -2.192   1.121  0.00  0.00    +0.235 C 
ATOM      3  O   UNL     1       0.904  -2.475   0.711  0.00  0.00    -0.274 OA
ATOM      4  C   UNL     1       2.963  -3.152   1.846  0.00  0.00    +0.164 C 
ATOM      5  C   UNL     1       4.294  -2.404   1.801  0.00  0.00    +0.049 C 
ATOM      6  C   UNL     1       3.932  -0.947   1.643  0.00  0.00    +0.110 C 
ENDROOT
BRANCH   1   7
ATOM      7  C   UNL     1       2.258   0.072   0.023  0.00  0.00    +0.159 C 
ATOM      8  C   UNL     1       2.671  -0.302  -1.400  0.00  0.00    +0.038 C 
BRANCH   7   9
ATOM      9  C   UNL     1       0.759   0.447   0.112  0.00  0.00    +0.236 C 
ATOM     10  N   UNL     1       0.313   1.045   1.284  0.00  0.00    -0.296 N 
ATOM     11  C   UNL     1       1.099   1.287   2.493  0.00  0.00    +0.136 C 
ATOM     12  C   UNL     1       0.514   0.480   3.653  0.00  0.00    +0.179 C 
ATOM     13  O   UNL     1      -0.865   0.832   3.860  0.00  0.00    -0.377 OA
ATOM     14  C   UNL     1      -1.644   0.556   2.680  0.00  0.00    +0.179 C 
ATOM     15  C   UNL     1      -1.111   1.317   1.462  0.00  0.00    +0.136 C 
ATOM     16  O   UNL     1       0.005   0.278  -0.850  0.00  0.00    -0.274 OA
ENDBRANCH   7   9
ENDBRANCH   1   7
BRANCH   4  17
ATOM     17  N   UNL     1       3.014  -4.404   1.072  0.00  0.00    -0.178 NA
ATOM     18  H   UNL     1       3.009  -4.300   0.056  0.00  0.00    +0.149 HD
BRANCH  17  19
ATOM     19  S   UNL     1       3.995  -5.658   1.569  0.00  0.00    +0.065 S 
ATOM     20  O   UNL     1       5.148  -5.098   2.240  0.00  0.00    -0.153 OA
ATOM     21  O   UNL     1       4.120  -6.546   0.437  0.00  0.00    -0.153 OA
BRANCH  19  22
ATOM     22  C   UNL     1       3.113  -6.570   2.795  0.00  0.00    +0.144 A 
ATOM     23  S   UNL     1       4.028  -7.729   3.642  0.00  0.00    -0.069 S 
ATOM     24  C   UNL     1       2.700  -8.153   4.647  0.00  0.00    +0.021 A 
ATOM     25  C   UNL     1       2.712  -9.084   5.701  0.00  0.00    +0.017 A 
ATOM     26  C   UNL     1       1.534  -9.297   6.420  0.00  0.00    +0.021 A 
ATOM     27  C   UNL     1       0.376  -8.610   6.088  0.00  0.00    +0.042 A 
ATOM     28  C   UNL     1       0.363  -7.691   5.034  0.00  0.00    +0.029 A 
ATOM     29 CL   UNL     1      -1.063  -8.879   6.994  0.00  0.00    -0.084 Cl
ATOM     30  C   UNL     1       1.546  -7.446   4.299  0.00  0.00    -0.008 A 
ATOM     31  C   UNL     1       1.798  -6.548   3.211  0.00  0.00    +0.045 A 
ENDBRANCH  19  22
ENDBRANCH  17  19
ENDBRANCH   4  17
TORSDOF 5
