REMARK  Name = 
REMARK  7 active torsions:
REMARK  status: ('A' for Active; 'I' for Inactive)
REMARK    1  A    between atoms: C_1  and  C_2
REMARK    2  A    between atoms: C_5  and  C_7
REMARK    3  A    between atoms: C_10  and  C_14
REMARK    4  A    between atoms: C_11  and  C_12
REMARK    5  A    between atoms: C_16  and  C_21
REMARK    6  A    between atoms: C_19  and  C_20
REMARK    7  A    between atoms: N_23  and  C_24
REMARK                            x       y       z     vdW  Elec       q    Type
REMARK                         _______ _______ _______ _____ _____    ______ ____
ROOT
ATOM      1  C   UNL     1       8.366  -5.160  -0.622  0.00  0.00    -0.014 A 
ATOM      2  C   UNL     1       8.172  -6.537  -0.301  0.00  0.00    -0.043 A 
ATOM      3  C   UNL     1       7.033  -7.079   0.528  0.00  0.00    +0.044 C 
ATOM      4  C   UNL     1       9.067  -7.519  -0.782  0.00  0.00    +0.005 A 
ATOM      5  C   UNL     1      10.199  -7.174  -1.504  0.00  0.00    +0.013 A 
ATOM      6  C   UNL     1      10.447  -5.841  -1.803  0.00  0.00    +0.037 A 
ATOM      7  C   UNL     1       9.521  -4.857  -1.398  0.00  0.00    +0.021 A 
ENDROOT
BRANCH   1  12
ATOM      8  C   UNL     1       5.494  -2.020   0.530  0.00  0.00    +0.039 A 
ATOM      9  C   UNL     1       6.867  -1.763   0.526  0.00  0.00    +0.017 A 
ATOM     10  C   UNL     1       7.830  -2.762   0.230  0.00  0.00    -0.042 A 
ATOM     11  C   UNL     1       9.263  -2.335   0.423  0.00  0.00    +0.044 C 
ATOM     12  C   UNL     1       7.423  -4.052  -0.206  0.00  0.00    -0.015 A 
ATOM     13  C   UNL     1       6.024  -4.260  -0.256  0.00  0.00    +0.009 A 
ATOM     14  C   UNL     1       5.083  -3.291   0.143  0.00  0.00    +0.014 A 
BRANCH   8  18
ATOM     15  C   UNL     1       1.270  -0.121   1.871  0.00  0.00    +0.111 C 
ATOM     16  C   UNL     1       2.710  -0.139   1.570  0.00  0.00    +0.215 A 
ATOM     17  O   UNL     1       3.242  -1.313   1.107  0.00  0.00    -0.421 OA
ATOM     18  C   UNL     1       4.567  -0.978   0.962  0.00  0.00    +0.248 A 
ATOM     19  N   UNL     1       4.807   0.276   1.298  0.00  0.00    -0.107 NA
ATOM     20  N   UNL     1       3.600   0.821   1.688  0.00  0.00    -0.112 NA
ENDBRANCH   8  18
ENDBRANCH   1  12
BRANCH   6  21
ATOM     21  C   UNL     1      11.731  -5.540  -2.502  0.00  0.00    +0.244 C 
ATOM     22  N   UNL     1      11.770  -4.423  -3.309  0.00  0.00    -0.308 N 
ATOM     23  H   UNL     1      10.924  -3.894  -3.483  0.00  0.00    +0.149 HD
ATOM     24  O   UNL     1      12.690  -6.300  -2.357  0.00  0.00    -0.270 OA
BRANCH  22  25
ATOM     25  C   UNL     1      12.933  -4.119  -4.083  0.00  0.00    +0.073 C 
ATOM     26  C   UNL     1      12.860  -3.228  -5.290  0.00  0.00    +0.024 C 
ATOM     27  C   UNL     1      13.100  -4.699  -5.462  0.00  0.00    +0.024 C 
ENDBRANCH  22  25
ENDBRANCH   6  21
TORSDOF 4
