REMARK  Name = 
REMARK  8 active torsions:
REMARK  status: ('A' for Active; 'I' for Inactive)
REMARK    1  A    between atoms: C_2  and  C_3
REMARK    2  A    between atoms: C_2  and  N_13
REMARK    3  A    between atoms: C_2  and  C_24
REMARK    4  A    between atoms: C_3  and  C_4
REMARK    5  A    between atoms: C_10  and  S_11
REMARK    6  A    between atoms: C_14  and  O_16
REMARK    7  A    between atoms: O_16  and  C_17
REMARK    8  A    between atoms: C_17  and  C_18
REMARK                            x       y       z     vdW  Elec       q    Type
REMARK                         _______ _______ _______ _____ _____    ______ ____
ROOT
ATOM      1  C   UNL     1       1.889  -0.198  -0.031  0.00  0.00    +0.115 C 
ENDROOT
BRANCH   1   2
ATOM      2  C   UNL     1       2.470   0.433  -1.289  0.00  0.00    -0.027 A 
ATOM      3  C   UNL     1       3.132   1.669  -1.228  0.00  0.00    +0.005 A 
ATOM      4  C   UNL     1       3.722   2.213  -2.371  0.00  0.00    +0.000 A 
ATOM      5  C   UNL     1       3.657   1.531  -3.586  0.00  0.00    +0.000 A 
ATOM      6  C   UNL     1       2.988   0.313  -3.664  0.00  0.00    +0.000 A 
ATOM      7  C   UNL     1       2.394  -0.230  -2.526  0.00  0.00    +0.005 A 
ENDBRANCH   1   2
BRANCH   1   8
ATOM      8  N   UNL     1       2.595  -1.454   0.221  0.00  0.00    -0.274 N 
ATOM      9  H   UNL     1       3.577  -1.386   0.449  0.00  0.00    +0.153 HD
ATOM     10  C   UNL     1       2.192  -2.703  -0.133  0.00  0.00    +0.401 C 
ATOM     11  O   UNL     1       1.073  -3.000  -0.527  0.00  0.00    -0.226 OA
BRANCH  10  12
ATOM     12  O   UNL     1       3.200  -3.577   0.088  0.00  0.00    -0.446 OA
BRANCH  12  13
ATOM     13  C   UNL     1       2.827  -4.963   0.050  0.00  0.00    +0.269 C 
BRANCH  13  14
ATOM     14  C   UNL     1       3.268  -5.650  -1.218  0.00  0.00    -0.010 A 
ATOM     15  C   UNL     1       2.331  -6.315  -2.024  0.00  0.00    +0.007 A 
ATOM     16  C   UNL     1       2.742  -7.036  -3.147  0.00  0.00    +0.000 A 
ATOM     17  C   UNL     1       4.093  -7.097  -3.481  0.00  0.00    +0.000 A 
ATOM     18  C   UNL     1       5.033  -6.431  -2.695  0.00  0.00    +0.000 A 
ATOM     19  C   UNL     1       4.624  -5.710  -1.570  0.00  0.00    +0.007 A 
ENDBRANCH  13  14
ENDBRANCH  12  13
ENDBRANCH  10  12
ENDBRANCH   1   8
BRANCH   1  20
ATOM     20  C   UNL     1       0.356  -0.252  -0.096  0.00  0.00    +0.123 C 
BRANCH  20  21
ATOM     21  C   UNL     1      -0.241  -0.706   1.220  0.00  0.00    +0.221 C 
ATOM     22  N   UNL     1      -0.777  -1.973   1.159  0.00  0.00    -0.263 N 
ATOM     23  H   UNL     1      -0.536  -2.573   0.374  0.00  0.00    +0.157 HD
ATOM     24  C   UNL     1      -1.366  -2.562   2.242  0.00  0.00    +0.189 A 
ATOM     25  S   UNL     1      -1.633  -4.242   2.086  0.00  0.00    -0.024 S 
ATOM     26  C   UNL     1      -2.213  -4.206   3.697  0.00  0.00    +0.157 A 
ATOM     27  N   UNL     1      -2.248  -3.011   4.242  0.00  0.00    -0.133 NA
ATOM     28  N   UNL     1      -1.748  -2.045   3.385  0.00  0.00    -0.125 NA
ATOM     29  O   UNL     1      -0.197   0.021   2.207  0.00  0.00    -0.275 OA
BRANCH  26  30
ATOM     30  S   UNL     1      -2.707  -5.621   4.585  0.00  0.00    -0.114 S 
ATOM     31  H   UNL     1      -3.001  -4.975   5.723  0.00  0.00    +0.109 HD
ENDBRANCH  26  30
ENDBRANCH  20  21
ENDBRANCH   1  20
TORSDOF 8
