REMARK  Name = 
REMARK  7 active torsions:
REMARK  status: ('A' for Active; 'I' for Inactive)
REMARK    1  A    between atoms: C_2  and  N_3
REMARK    2  A    between atoms: C_2  and  C_14
REMARK    3  A    between atoms: C_2  and  C_17
REMARK    4  A    between atoms: N_3  and  C_4
REMARK    5  A    between atoms: C_6  and  C_7
REMARK    6  A    between atoms: C_10  and  C_11
REMARK    7  A    between atoms: C_11  and  C_12
REMARK                            x       y       z     vdW  Elec       q    Type
REMARK                         _______ _______ _______ _____ _____    ______ ____
ROOT
ATOM      1  C   UNL     1       2.096  -0.113   0.032  0.00  0.00    +0.189 C 
ENDROOT
BRANCH   1   2
ATOM      2  C   UNL     1       3.365  -0.958   0.102  0.00  0.00    +0.009 A 
ATOM      3  C   UNL     1       3.275  -2.347  -0.185  0.00  0.00    +0.024 A 
ATOM      4 BR   UNL     1       1.635  -3.215  -0.641  0.00  0.00    -0.050 Br
ATOM      5  C   UNL     1       4.390  -3.195  -0.120  0.00  0.00    +0.016 A 
ATOM      6  C   UNL     1       5.631  -2.686   0.230  0.00  0.00    +0.002 A 
ATOM      7  C   UNL     1       5.748  -1.342   0.557  0.00  0.00    +0.016 A 
ATOM      8  C   UNL     1       4.631  -0.489   0.521  0.00  0.00    +0.024 A 
ATOM      9 BR   UNL     1       4.991   1.274   1.155  0.00  0.00    -0.050 Br
ENDBRANCH   1   2
BRANCH   1  10
ATOM     10  C   UNL     1       1.269  -0.260   1.343  0.00  0.00    +0.235 C 
ATOM     11  O   UNL     1       1.747  -0.247   2.475  0.00  0.00    -0.274 OA
ATOM     12  N   UNL     1      -0.085  -0.380   1.180  0.00  0.00    -0.328 N 
ATOM     13  H   UNL     1      -0.645  -0.355   2.019  0.00  0.00    +0.145 HD
ATOM     14  H   UNL     1      -0.536  -0.163   0.300  0.00  0.00    +0.145 HD
ENDBRANCH   1  10
BRANCH   1  15
ATOM     15  N   UNL     1       2.312   1.314  -0.220  0.00  0.00    -0.329 N 
ATOM     16  H   UNL     1       2.092   1.895   0.601  0.00  0.00    +0.147 HD
BRANCH  15  17
ATOM     17  C   UNL     1       2.159   1.990  -1.424  0.00  0.00    +0.039 A 
ATOM     18  C   UNL     1       2.056   3.406  -1.443  0.00  0.00    +0.038 A 
ATOM     19  C   UNL     1       1.982   4.108  -2.656  0.00  0.00    +0.013 A 
ATOM     20  C   UNL     1       2.087   3.424  -3.864  0.00  0.00    +0.004 A 
ATOM     21  C   UNL     1       2.239   2.037  -3.877  0.00  0.00    -0.049 A 
ATOM     22  C   UNL     1       2.453   1.324  -5.181  0.00  0.00    +0.044 C 
ATOM     23  C   UNL     1       2.252   1.333  -2.661  0.00  0.00    +0.027 A 
BRANCH  18  24
ATOM     24  C   UNL     1       1.991   4.168  -0.157  0.00  0.00    +0.162 C 
ATOM     25  O   UNL     1       1.455   3.656   0.826  0.00  0.00    -0.292 OA
ATOM     26  C   UNL     1       2.610   5.538  -0.068  0.00  0.00    +0.091 C 
ENDBRANCH  18  24
ENDBRANCH  15  17
ENDBRANCH   1  15
TORSDOF 5
