REMARK  Name = 
REMARK  11 active torsions:
REMARK  status: ('A' for Active; 'I' for Inactive)
REMARK    1  A    between atoms: C_1  and  O_2
REMARK    2  A    between atoms: O_2  and  C_3
REMARK    3  A    between atoms: C_4  and  O_5
REMARK    4  A    between atoms: O_5  and  C_6
REMARK    5  A    between atoms: C_7  and  C_8
REMARK    6  A    between atoms: C_8  and  N_9
REMARK    7  A    between atoms: C_12  and  N_15
REMARK    8  A    between atoms: C_16  and  C_18
REMARK    9  A    between atoms: C_18  and  C_19
REMARK   10  A    between atoms: C_19  and  C_20
REMARK   11  A    between atoms: C_20  and  S_21
REMARK                            x       y       z     vdW  Elec       q    Type
REMARK                         _______ _______ _______ _____ _____    ______ ____
ROOT
ATOM      1  N   UNL     1       3.683   5.637   1.556  0.00  0.00    -0.298 NA
ATOM      2  C   UNL     1       3.643   6.941   0.889  0.00  0.00    +0.086 C 
ATOM      3  C   UNL     1       4.459   7.146  -0.400  0.00  0.00    +0.037 C 
ATOM      4  C   UNL     1       5.755   6.325  -0.481  0.00  0.00    +0.075 C 
ATOM      5  C   UNL     1       5.660   4.964   0.202  0.00  0.00    +0.037 C 
ATOM      6  C   UNL     1       5.041   5.086   1.593  0.00  0.00    +0.086 C 
ENDROOT
BRANCH   4   7
ATOM      7  N   UNL     1       6.857   7.078   0.100  0.00  0.00    -0.312 N 
ATOM      8  H   UNL     1       6.922   7.114   1.107  0.00  0.00    +0.149 HD
ATOM      9  C   UNL     1       7.506   8.052  -0.626  0.00  0.00    +0.213 C 
ATOM     10  O   UNL     1       7.368   8.212  -1.828  0.00  0.00    -0.276 OA
BRANCH   9  11
ATOM     11  C   UNL     1       8.392   8.916   0.245  0.00  0.00    +0.096 C 
BRANCH  11  12
ATOM     12  C   UNL     1       8.529  10.329  -0.316  0.00  0.00    +0.020 C 
BRANCH  12  13
ATOM     13  C   UNL     1       7.188  11.067  -0.319  0.00  0.00    +0.066 C 
BRANCH  13  14
ATOM     14  S   UNL     1       7.391  12.751  -0.960  0.00  0.00    -0.178 S 
ATOM     15  H   UNL     1       8.362  13.123  -0.114  0.00  0.00    +0.102 HD
ENDBRANCH  13  14
ENDBRANCH  12  13
ENDBRANCH  11  12
ENDBRANCH   9  11
ENDBRANCH   4   7
BRANCH   1  16
ATOM     16  C   UNL     1       2.714   4.589   1.194  0.00  0.00    +0.123 C 
BRANCH  16  22
ATOM     17  C   UNL     1      -0.829   5.353  -0.193  0.00  0.00    +0.163 A 
ATOM     18  C   UNL     1      -1.521   5.398   1.024  0.00  0.00    +0.064 A 
ATOM     19  C   UNL     1      -0.849   5.256   2.226  0.00  0.00    +0.022 A 
ATOM     20 BR   UNL     1      -1.805   5.242   3.855  0.00  0.00    -0.050 Br
ATOM     21  C   UNL     1       0.526   5.078   2.228  0.00  0.00    +0.024 A 
ATOM     22  C   UNL     1       1.261   4.962   1.017  0.00  0.00    +0.013 A 
ATOM     23  C   UNL     1       0.572   5.115  -0.213  0.00  0.00    +0.166 A 
BRANCH  17  25
ATOM     24  C   UNL     1      -1.220   5.349  -2.579  0.00  0.00    +0.277 C 
ATOM     25  O   UNL     1      -1.684   5.549  -1.254  0.00  0.00    -0.491 OA
ENDBRANCH  17  25
BRANCH  23  26
ATOM     26  O   UNL     1       1.093   5.073  -1.471  0.00  0.00    -0.491 OA
ATOM     27  C   UNL     1       2.403   4.701  -1.809  0.00  0.00    +0.277 C 
ENDBRANCH  23  26
ENDBRANCH  16  22
ENDBRANCH   1  16
TORSDOF 9
