REMARK  Name = 
REMARK  3 active torsions:
REMARK  status: ('A' for Active; 'I' for Inactive)
REMARK    1  A    between atoms: C_4  and  C_5
REMARK    2  A    between atoms: C_5  and  C_6
REMARK    3  A    between atoms: C_6  and  C_7
REMARK                            x       y       z     vdW  Elec       q    Type
REMARK                         _______ _______ _______ _____ _____    ______ ____
ROOT
ATOM      1  C   UNL     1       4.325  -3.612  -0.210  0.00  0.00    +0.041 C 
ENDROOT
BRANCH   1   2
ATOM      2  C   UNL     1       5.147  -4.873  -0.378  0.00  0.00    -0.045 A 
ATOM      3  C   UNL     1       5.567  -5.597   0.750  0.00  0.00    +0.029 A 
ATOM      4  C   UNL     1       6.343  -6.746   0.543  0.00  0.00    +0.047 A 
ATOM      5  C   UNL     1       6.710  -7.190  -0.727  0.00  0.00    -0.000 A 
ATOM      6  C   UNL     1       7.488  -8.368  -0.553  0.00  0.00    +0.027 A 
ATOM      7  C   UNL     1       7.577  -8.616   0.798  0.00  0.00    +0.083 A 
ATOM      8  C   UNL     1       6.284  -6.455  -1.849  0.00  0.00    +0.010 A 
ATOM      9  N   UNL     1       6.879  -7.635   1.449  0.00  0.00    -0.361 N 
ATOM     10  H   UNL     1       6.768  -7.563   2.449  0.00  0.00    +0.165 HD
ATOM     11  C   UNL     1       5.510  -5.304  -1.661  0.00  0.00    +0.004 A 
ENDBRANCH   1   2
BRANCH   1  12
ATOM     12  C   UNL     1       5.217  -2.374  -0.066  0.00  0.00    +0.060 C 
BRANCH  12  20
ATOM     13  N   UNL     1       1.068   0.041  -0.102  0.00  0.00    -0.343 N 
ATOM     14  H   UNL     1       0.631   0.587   0.630  0.00  0.00    +0.144 HD
ATOM     15  H   UNL     1       0.810  -0.941  -0.053  0.00  0.00    +0.144 HD
ATOM     16  C   UNL     1       2.458   0.095  -0.023  0.00  0.00    +0.116 A 
ATOM     17  C   UNL     1       3.111   1.318   0.008  0.00  0.00    +0.043 A 
ATOM     18  C   UNL     1       4.499   1.333   0.063  0.00  0.00    +0.005 A 
ATOM     19  C   UNL     1       5.189   0.126   0.063  0.00  0.00    +0.023 A 
ATOM     20  C   UNL     1       4.465  -1.062   0.000  0.00  0.00    +0.044 A 
ATOM     21  N   UNL     1       3.109  -1.081  -0.031  0.00  0.00    -0.237 NA
ENDBRANCH  12  20
ENDBRANCH   1  12
TORSDOF 3
