REMARK  Name = 
REMARK  9 active torsions:
REMARK  status: ('A' for Active; 'I' for Inactive)
REMARK    1  A    between atoms: C_2  and  N_3
REMARK    2  A    between atoms: C_2  and  C_4
REMARK    3  A    between atoms: C_2  and  C_11
REMARK    4  A    between atoms: C_4  and  C_5
REMARK    5  A    between atoms: C_11  and  O_13
REMARK    6  A    between atoms: C_11  and  C_14
REMARK    7  A    between atoms: C_14  and  N_15
REMARK    8  A    between atoms: N_15  and  S_16
REMARK    9  A    between atoms: S_16  and  C_19
REMARK                            x       y       z     vdW  Elec       q    Type
REMARK                         _______ _______ _______ _____ _____    ______ ____
ROOT
ATOM      1  C   UNL     1       4.303  -0.628  -1.182  0.00  0.00    +0.138 C 
ENDROOT
BRANCH   1   2
ATOM      2  N   UNL     1       4.919  -0.941  -2.499  0.00  0.00    -0.187 NA
ATOM      3  H   UNL     1       4.740  -0.276  -3.256  0.00  0.00    +0.148 HD
BRANCH   2   4
ATOM      4  S   UNL     1       6.552  -1.351  -2.499  0.00  0.00    +0.059 S 
ATOM      5  O   UNL     1       7.192  -0.651  -1.405  0.00  0.00    -0.153 OA
ATOM      6  O   UNL     1       6.994  -1.188  -3.860  0.00  0.00    -0.153 OA
BRANCH   4   7
ATOM      7  C   UNL     1       6.530  -3.085  -2.150  0.00  0.00    +0.106 A 
ATOM      8  C   UNL     1       7.125  -3.568  -0.982  0.00  0.00    +0.037 A 
ATOM      9  C   UNL     1       7.167  -4.946  -0.735  0.00  0.00    -0.016 A 
ATOM     10  C   UNL     1       6.597  -5.841  -1.674  0.00  0.00    -0.018 A 
ATOM     11  C   UNL     1       6.659  -7.222  -1.430  0.00  0.00    +0.008 A 
ATOM     12  C   UNL     1       7.278  -7.717  -0.281  0.00  0.00    +0.001 A 
ATOM     13  C   UNL     1       7.835  -6.839   0.643  0.00  0.00    +0.001 A 
ATOM     14  C   UNL     1       5.993  -5.330  -2.835  0.00  0.00    +0.010 A 
ATOM     15  C   UNL     1       7.778  -5.462   0.420  0.00  0.00    +0.008 A 
ATOM     16  C   UNL     1       5.962  -3.957  -3.079  0.00  0.00    +0.029 A 
ENDBRANCH   4   7
ENDBRANCH   2   4
ENDBRANCH   1   2
BRANCH   1  17
ATOM     17  C   UNL     1       2.804  -0.345  -1.381  0.00  0.00    +0.147 C 
BRANCH  17  18
ATOM     18  O   UNL     1       2.165  -1.512  -1.925  0.00  0.00    -0.389 OA
ATOM     19  H   UNL     1       2.598  -1.690  -2.780  0.00  0.00    +0.210 HD
ENDBRANCH  17  18
BRANCH  17  20
ATOM     20  C   UNL     1       2.074   0.065  -0.074  0.00  0.00    +0.085 C 
BRANCH  20  21
ATOM     21  N   UNL     1       2.718   1.229   0.562  0.00  0.00    -0.325 NA
ATOM     22  H   UNL     1       2.439   2.083   0.076  0.00  0.00    +0.119 HD
ATOM     23  H   UNL     1       2.329   1.336   1.503  0.00  0.00    +0.119 HD
ENDBRANCH  20  21
BRANCH  20  24
ATOM     24  C   UNL     1       0.586   0.344  -0.414  0.00  0.00    +0.056 C 
BRANCH  24  25
ATOM     25  C   UNL     1      -0.300   0.760   0.733  0.00  0.00    -0.046 A 
ATOM     26  C   UNL     1      -0.566  -0.119   1.791  0.00  0.00    +0.004 A 
ATOM     27  C   UNL     1      -1.466   0.242   2.795  0.00  0.00    +0.000 A 
ATOM     28  C   UNL     1      -2.107   1.478   2.753  0.00  0.00    +0.000 A 
ATOM     29  C   UNL     1      -1.841   2.364   1.711  0.00  0.00    +0.000 A 
ATOM     30  C   UNL     1      -0.941   2.007   0.706  0.00  0.00    +0.004 A 
ENDBRANCH  24  25
ENDBRANCH  20  24
ENDBRANCH  17  20
ENDBRANCH   1  17
TORSDOF 9
