REMARK  Name = 
REMARK  4 active torsions:
REMARK  status: ('A' for Active; 'I' for Inactive)
REMARK    1  A    between atoms: C_6  and  N_7
REMARK    2  A    between atoms: N_7  and  C_8
REMARK    3  A    between atoms: C_11  and  N_12
REMARK    4  A    between atoms: C_13  and  C_15
REMARK                            x       y       z     vdW  Elec       q    Type
REMARK                         _______ _______ _______ _____ _____    ______ ____
ROOT
ATOM      1  C   UNL     1       4.955  -3.861  -0.337  0.00  0.00    +0.134 A 
ATOM      2  N   UNL     1       3.611  -3.884  -0.300  0.00  0.00    -0.220 NA
ATOM      3  C   UNL     1       3.007  -5.071  -0.317  0.00  0.00    +0.223 A 
ATOM      4  N   UNL     1       3.612  -6.262  -0.363  0.00  0.00    -0.235 NA
ATOM      5  C   UNL     1       4.943  -6.246  -0.400  0.00  0.00    +0.076 A 
ATOM      6  C   UNL     1       5.605  -7.465  -0.479  0.00  0.00    +0.030 A 
ATOM      7  C   UNL     1       7.001  -7.553  -0.550  0.00  0.00    +0.025 A 
ATOM      8  C   UNL     1       7.773  -6.396  -0.529  0.00  0.00    +0.034 A 
ATOM      9  C   UNL     1       7.116  -5.168  -0.435  0.00  0.00    +0.036 A 
ATOM     10  C   UNL     1       5.699  -5.066  -0.382  0.00  0.00    +0.042 A 
ENDROOT
BRANCH   8  11
ATOM     11  N   UNL     1       9.178  -6.525  -0.617  0.00  0.00    -0.282 N 
ATOM     12  H   UNL     1       9.537  -7.468  -0.692  0.00  0.00    +0.155 HD
ATOM     13  C   UNL     1      10.093  -5.489  -0.623  0.00  0.00    +0.241 C 
ATOM     14  O   UNL     1       9.847  -4.291  -0.542  0.00  0.00    -0.271 OA
BRANCH  13  15
ATOM     15  C   UNL     1      11.501  -5.960  -0.744  0.00  0.00    +0.060 C 
ATOM     16  C   UNL     1      12.493  -5.058  -0.742  0.00  0.00    +0.013 C 
ENDBRANCH  13  15
ENDBRANCH   8  11
BRANCH   1  17
ATOM     17  N   UNL     1       5.615  -2.613  -0.427  0.00  0.00    -0.299 N 
ATOM     18  H   UNL     1       6.617  -2.653  -0.319  0.00  0.00    +0.154 HD
BRANCH  17  22
ATOM     19 BR   UNL     1       1.556   0.607  -1.644  0.00  0.00    -0.050 Br
ATOM     20  C   UNL     1       3.399   0.231  -1.436  0.00  0.00    +0.020 A 
ATOM     21  C   UNL     1       3.794  -1.002  -0.911  0.00  0.00    +0.038 A 
ATOM     22  C   UNL     1       5.147  -1.334  -0.796  0.00  0.00    +0.033 A 
ATOM     23  C   UNL     1       6.092  -0.358  -1.160  0.00  0.00    +0.023 A 
ATOM     24  C   UNL     1       5.697   0.881  -1.675  0.00  0.00    +0.003 A 
ATOM     25  C   UNL     1       4.344   1.170  -1.831  0.00  0.00    +0.015 A 
ENDBRANCH  17  22
ENDBRANCH   1  17
TORSDOF 4
