REMARK  Name = 
REMARK  1 active torsions:
REMARK  status: ('A' for Active; 'I' for Inactive)
REMARK    1  A    between atoms: C_3  and  C_4
REMARK                            x       y       z     vdW  Elec       q    Type
REMARK                         _______ _______ _______ _____ _____    ______ ____
ROOT
ATOM      1  N   UNL     1      -1.613   0.933   0.001  0.00  0.00    -0.276 N 
ATOM      2  H   UNL     1      -2.014   1.864   0.001  0.00  0.00    +0.189 HD
ATOM      3  C   UNL     1      -0.284   0.607   0.001  0.00  0.00    +0.066 A 
ATOM      4  C   UNL     1       0.867   1.403   0.001  0.00  0.00    +0.028 A 
ATOM      5  C   UNL     1       2.099   0.742   0.000  0.00  0.00    +0.002 A 
ATOM      6  C   UNL     1       2.170  -0.651   0.000  0.00  0.00    +0.001 A 
ATOM      7  C   UNL     1       1.004  -1.428  -0.000  0.00  0.00    +0.012 A 
ATOM      8  C   UNL     1      -0.248  -0.784   0.001  0.00  0.00    +0.030 A 
ATOM      9  C   UNL     1      -1.613  -1.177   0.000  0.00  0.00    +0.135 A 
ATOM     10  N   UNL     1      -2.447  -0.123   0.001  0.00  0.00    -0.170 NA
ENDROOT
BRANCH   9  11
ATOM     11  C   UNL     1      -2.145  -2.572  -0.001  0.00  0.00    +0.160 A 
ATOM     12  N   UNL     1      -3.490  -2.842  -0.001  0.00  0.00    -0.337 N 
ATOM     13  H   UNL     1      -4.206  -2.131   0.000  0.00  0.00    +0.167 HD
ATOM     14  C   UNL     1      -3.662  -4.201  -0.003  0.00  0.00    +0.067 A 
ATOM     15  C   UNL     1      -2.365  -4.703  -0.004  0.00  0.00    +0.090 A 
ATOM     16  C   UNL     1      -2.172  -6.093  -0.006  0.00  0.00    +0.030 A 
ATOM     17  C   UNL     1      -3.296  -6.929  -0.008  0.00  0.00    +0.002 A 
ATOM     18  C   UNL     1      -4.587  -6.393  -0.007  0.00  0.00    +0.002 A 
ATOM     19  C   UNL     1      -4.800  -5.009  -0.004  0.00  0.00    +0.028 A 
ATOM     20  N   UNL     1      -1.439  -3.686  -0.002  0.00  0.00    -0.226 NA
ENDBRANCH   9  11
TORSDOF 1
